MODEL 1
REMARK VINA RESULT:      -6.2      0.000      0.000
REMARK  7 active torsions:
REMARK  status: ('A' for Active; 'I' for Inactive)
REMARK    1  A    between atoms: C_2  and  C_3 
REMARK    2  A    between atoms: C_3  and  O_6 
REMARK    3  A    between atoms: C_3  and  C_4 
REMARK    4  A    between atoms: C_7  and  O_6 
REMARK    5  A    between atoms: C_9  and  C_10 
REMARK    6  A    between atoms: N_15  and  C_14 
REMARK    7  A    between atoms: N_20  and  C_19 
REMARK       I    between atoms: C_22  and  N_20 
ROOT
ATOM      1  C   LIG d   1       1.252  82.694 109.751  0.00  0.00     0.161 C 
ATOM      2  C   LIG d   1       1.494  84.071 109.886  0.00  0.00     0.016 C 
ATOM      3  C   LIG d   1       0.761  84.908 110.758  0.00  0.00     0.038 C 
ATOM      4  C   LIG d   1      -0.169  84.393 111.673  0.00  0.00     0.028 C 
ATOM      5  C   LIG d   1      -0.803  83.082 111.219  0.00  0.00    -0.047 C 
ATOM      6  C   LIG d   1       0.317  82.094 110.822  0.00  0.00     0.091 C 
ENDROOT
BRANCH   1   7
ATOM      7  O   LIG d   1       2.503  81.979 109.721  0.00  0.00    -0.368 OA
BRANCH   7   8
ATOM      8  C   LIG d   1       3.644  82.666 110.291  0.00  0.00     0.119 C 
BRANCH   8   9
ATOM      9  C   LIG d   1       4.915  81.992 109.738  0.00  0.00     0.028 C 
ATOM     10  C   LIG d   1       4.765  80.466 109.621  0.00  0.00     0.006 C 
ENDBRANCH   8   9
BRANCH   8  11
ATOM     11  C   LIG d   1       3.710  82.474 111.809  0.00  0.00     0.028 C 
ATOM     12  C   LIG d   1       4.753  83.382 112.480  0.00  0.00     0.006 C 
ENDBRANCH   8  11
ENDBRANCH   7   8
ENDBRANCH   1   7
BRANCH   6  13
ATOM     13  N   LIG d   1      -0.219  80.815 110.286  0.00  0.00    -0.311 N 
ATOM     14  C   LIG d   1      -0.517  79.767 111.051  0.00  0.00     0.210 C 
ATOM     15  C   LIG d   1      -1.038  78.541 110.294  0.00  0.00     0.109 C 
ATOM     16  O   LIG d   1      -0.430  79.747 112.288  0.00  0.00    -0.276 OA
ATOM     17  H   LIG d   1      -0.351  80.756 109.295  0.00  0.00     0.149 HD
ENDBRANCH   6  13
BRANCH   5  18
ATOM     18  N   LIG d   1      -1.646  82.588 112.324  0.00  0.00     0.381 N 
ATOM     19  H   LIG d   1      -1.076  82.123 113.002  0.00  0.00    -0.090 HD
ATOM     20  H   LIG d   1      -2.306  81.925 111.958  0.00  0.00    -0.090 HD
ATOM     21  H   LIG d   1      -2.129  83.348 112.750  0.00  0.00    -0.090 HD
ENDBRANCH   5  18
BRANCH   3  22
ATOM     22  C   LIG d   1       0.928  86.283 110.693  0.00  0.00     0.382 C 
ATOM     23  O   LIG d   1       1.966  86.765 110.178  0.00  0.00    -0.241 OA
ATOM     24  O   LIG d   1       0.074  87.047 111.181  0.00  0.00    -0.241 OA
ENDBRANCH   3  22
TORSDOF 7
ENDMDL
MODEL 2
REMARK VINA RESULT:      -6.0      2.259      4.806
REMARK  7 active torsions:
REMARK  status: ('A' for Active; 'I' for Inactive)
REMARK    1  A    between atoms: C_2  and  C_3 
REMARK    2  A    between atoms: C_3  and  O_6 
REMARK    3  A    between atoms: C_3  and  C_4 
REMARK    4  A    between atoms: C_7  and  O_6 
REMARK    5  A    between atoms: C_9  and  C_10 
REMARK    6  A    between atoms: N_15  and  C_14 
REMARK    7  A    between atoms: N_20  and  C_19 
REMARK       I    between atoms: C_22  and  N_20 
ROOT
ATOM      1  C   LIG d   1       1.872  82.787 112.224  0.00  0.00     0.161 C 
ATOM      2  C   LIG d   1       0.766  81.921 112.212  0.00  0.00     0.016 C 
ATOM      3  C   LIG d   1      -0.553  82.347 111.932  0.00  0.00     0.038 C 
ATOM      4  C   LIG d   1      -0.834  83.650 111.493  0.00  0.00     0.028 C 
ATOM      5  C   LIG d   1       0.176  84.683 111.979  0.00  0.00    -0.047 C 
ATOM      6  C   LIG d   1       1.601  84.190 111.639  0.00  0.00     0.091 C 
ENDROOT
BRANCH   1   7
ATOM      7  O   LIG d   1       2.984  82.169 111.548  0.00  0.00    -0.368 OA
BRANCH   7   8
ATOM      8  C   LIG d   1       2.818  81.937 110.127  0.00  0.00     0.119 C 
BRANCH   8   9
ATOM      9  C   LIG d   1       3.170  80.462 109.854  0.00  0.00     0.028 C 
ATOM     10  C   LIG d   1       1.924  79.602 109.582  0.00  0.00     0.006 C 
ENDBRANCH   8   9
BRANCH   8  11
ATOM     11  C   LIG d   1       3.823  82.752 109.308  0.00  0.00     0.028 C 
ATOM     12  C   LIG d   1       5.172  82.928 110.024  0.00  0.00     0.006 C 
ENDBRANCH   8  11
ENDBRANCH   7   8
ENDBRANCH   1   7
BRANCH   6  13
ATOM     13  N   LIG d   1       2.655  85.102 112.155  0.00  0.00    -0.311 N 
ATOM     14  C   LIG d   1       3.128  86.140 111.466  0.00  0.00     0.210 C 
ATOM     15  C   LIG d   1       4.226  86.940 112.173  0.00  0.00     0.109 C 
ATOM     16  O   LIG d   1       2.719  86.492 110.349  0.00  0.00    -0.276 OA
ATOM     17  H   LIG d   1       3.021  84.908 113.066  0.00  0.00     0.149 HD
ENDBRANCH   6  13
BRANCH   5  18
ATOM     18  N   LIG d   1      -0.158  85.969 111.337  0.00  0.00     0.381 N 
ATOM     19  H   LIG d   1      -1.136  86.156 111.442  0.00  0.00    -0.090 HD
ATOM     20  H   LIG d   1       0.048  85.906 110.356  0.00  0.00    -0.090 HD
ATOM     21  H   LIG d   1       0.374  86.704 111.749  0.00  0.00    -0.090 HD
ENDBRANCH   5  18
BRANCH   3  22
ATOM     22  C   LIG d   1      -1.613  81.475 112.128  0.00  0.00     0.382 C 
ATOM     23  O   LIG d   1      -2.718  81.912 112.531  0.00  0.00    -0.241 OA
ATOM     24  O   LIG d   1      -1.465  80.251 111.950  0.00  0.00    -0.241 OA
ENDBRANCH   3  22
TORSDOF 7
ENDMDL
MODEL 3
REMARK VINA RESULT:      -6.0      2.549      5.071
REMARK  7 active torsions:
REMARK  status: ('A' for Active; 'I' for Inactive)
REMARK    1  A    between atoms: C_2  and  C_3 
REMARK    2  A    between atoms: C_3  and  O_6 
REMARK    3  A    between atoms: C_3  and  C_4 
REMARK    4  A    between atoms: C_7  and  O_6 
REMARK    5  A    between atoms: C_9  and  C_10 
REMARK    6  A    between atoms: N_15  and  C_14 
REMARK    7  A    between atoms: N_20  and  C_19 
REMARK       I    between atoms: C_22  and  N_20 
ROOT
ATOM      1  C   LIG d   1       1.657  84.127 112.707  0.00  0.00     0.161 C 
ATOM      2  C   LIG d   1       0.855  82.990 112.515  0.00  0.00     0.016 C 
ATOM      3  C   LIG d   1      -0.405  83.025 111.873  0.00  0.00     0.038 C 
ATOM      4  C   LIG d   1      -0.883  84.183 111.242  0.00  0.00     0.028 C 
ATOM      5  C   LIG d   1      -0.339  85.472 111.849  0.00  0.00    -0.047 C 
ATOM      6  C   LIG d   1       1.202  85.378 111.927  0.00  0.00     0.091 C 
ENDROOT
BRANCH   1   7
ATOM      7  O   LIG d   1       3.029  83.815 112.398  0.00  0.00    -0.368 OA
BRANCH   7   8
ATOM      8  C   LIG d   1       3.240  82.829 111.358  0.00  0.00     0.119 C 
BRANCH   8   9
ATOM      9  C   LIG d   1       4.390  81.912 111.815  0.00  0.00     0.028 C 
ATOM     10  C   LIG d   1       4.405  81.704 113.339  0.00  0.00     0.006 C 
ENDBRANCH   8   9
BRANCH   8  11
ATOM     11  C   LIG d   1       3.732  83.481 110.062  0.00  0.00     0.028 C 
ATOM     12  C   LIG d   1       4.749  82.611 109.306  0.00  0.00     0.006 C 
ENDBRANCH   8  11
ENDBRANCH   7   8
ENDBRANCH   1   7
BRANCH   6  13
ATOM     13  N   LIG d   1       1.809  86.564 112.586  0.00  0.00    -0.311 N 
ATOM     14  C   LIG d   1       2.912  87.164 112.143  0.00  0.00     0.210 C 
ATOM     15  C   LIG d   1       3.380  88.358 112.982  0.00  0.00     0.109 C 
ATOM     16  O   LIG d   1       3.530  86.841 111.118  0.00  0.00    -0.276 OA
ATOM     17  H   LIG d   1       1.355  86.912 113.408  0.00  0.00     0.149 HD
ENDBRANCH   6  13
BRANCH   5  18
ATOM     18  N   LIG d   1      -0.808  86.592 111.010  0.00  0.00     0.381 N 
ATOM     19  H   LIG d   1      -1.702  86.371 110.620  0.00  0.00    -0.090 HD
ATOM     20  H   LIG d   1      -0.159  86.727 110.255  0.00  0.00    -0.090 HD
ATOM     21  H   LIG d   1      -0.872  87.423 111.556  0.00  0.00    -0.090 HD
ENDBRANCH   5  18
BRANCH   3  22
ATOM     22  C   LIG d   1      -1.218  81.902 111.894  0.00  0.00     0.382 C 
ATOM     23  O   LIG d   1      -0.827  80.835 111.363  0.00  0.00    -0.241 OA
ATOM     24  O   LIG d   1      -2.357  81.956 112.396  0.00  0.00    -0.241 OA
ENDBRANCH   3  22
TORSDOF 7
ENDMDL
MODEL 4
REMARK VINA RESULT:      -5.9      3.738      5.660
REMARK  7 active torsions:
REMARK  status: ('A' for Active; 'I' for Inactive)
REMARK    1  A    between atoms: C_2  and  C_3 
REMARK    2  A    between atoms: C_3  and  O_6 
REMARK    3  A    between atoms: C_3  and  C_4 
REMARK    4  A    between atoms: C_7  and  O_6 
REMARK    5  A    between atoms: C_9  and  C_10 
REMARK    6  A    between atoms: N_15  and  C_14 
REMARK    7  A    between atoms: N_20  and  C_19 
REMARK       I    between atoms: C_22  and  N_20 
ROOT
ATOM      1  C   LIG d   1       2.739  86.627 112.177  0.00  0.00     0.161 C 
ATOM      2  C   LIG d   1       3.115  87.961 112.410  0.00  0.00     0.016 C 
ATOM      3  C   LIG d   1       3.976  88.354 113.460  0.00  0.00     0.038 C 
ATOM      4  C   LIG d   1       4.644  87.416 114.262  0.00  0.00     0.028 C 
ATOM      5  C   LIG d   1       3.903  86.089 114.386  0.00  0.00    -0.047 C 
ATOM      6  C   LIG d   1       3.545  85.579 112.972  0.00  0.00     0.091 C 
ENDROOT
BRANCH   1   7
ATOM      7  O   LIG d   1       2.801  86.342 110.765  0.00  0.00    -0.368 OA
BRANCH   7   8
ATOM      8  C   LIG d   1       1.532  86.302 110.067  0.00  0.00     0.119 C 
BRANCH   8   9
ATOM      9  C   LIG d   1       0.417  86.395 111.126  0.00  0.00     0.028 C 
ATOM     10  C   LIG d   1      -0.942  85.915 110.591  0.00  0.00     0.006 C 
ENDBRANCH   8   9
BRANCH   8  11
ATOM     11  C   LIG d   1       1.321  84.952 109.373  0.00  0.00     0.028 C 
ATOM     12  C   LIG d   1       2.570  84.058 109.417  0.00  0.00     0.006 C 
ENDBRANCH   8  11
ENDBRANCH   7   8
ENDBRANCH   1   7
BRANCH   6  13
ATOM     13  N   LIG d   1       2.745  84.327 113.006  0.00  0.00    -0.311 N 
ATOM     14  C   LIG d   1       3.287  83.111 112.989  0.00  0.00     0.210 C 
ATOM     15  C   LIG d   1       2.281  81.955 113.010  0.00  0.00     0.109 C 
ATOM     16  O   LIG d   1       4.505  82.878 112.991  0.00  0.00    -0.276 OA
ATOM     17  H   LIG d   1       1.749  84.423 113.036  0.00  0.00     0.149 HD
ENDBRANCH   6  13
BRANCH   5  18
ATOM     18  N   LIG d   1       4.774  85.161 115.132  0.00  0.00     0.381 N 
ATOM     19  H   LIG d   1       4.301  84.291 115.273  0.00  0.00    -0.090 HD
ATOM     20  H   LIG d   1       4.977  85.558 116.032  0.00  0.00    -0.090 HD
ATOM     21  H   LIG d   1       5.621  85.009 114.629  0.00  0.00    -0.090 HD
ENDBRANCH   5  18
BRANCH   3  22
ATOM     22  C   LIG d   1       4.145  89.701 113.743  0.00  0.00     0.382 C 
ATOM     23  O   LIG d   1       3.991  90.119 114.916  0.00  0.00    -0.241 OA
ATOM     24  O   LIG d   1       4.405  90.510 112.832  0.00  0.00    -0.241 OA
ENDBRANCH   3  22
TORSDOF 7
ENDMDL
MODEL 5
REMARK VINA RESULT:      -5.8      6.363     10.196
REMARK  7 active torsions:
REMARK  status: ('A' for Active; 'I' for Inactive)
REMARK    1  A    between atoms: C_2  and  C_3 
REMARK    2  A    between atoms: C_3  and  O_6 
REMARK    3  A    between atoms: C_3  and  C_4 
REMARK    4  A    between atoms: C_7  and  O_6 
REMARK    5  A    between atoms: C_9  and  C_10 
REMARK    6  A    between atoms: N_15  and  C_14 
REMARK    7  A    between atoms: N_20  and  C_19 
REMARK       I    between atoms: C_22  and  N_20 
ROOT
ATOM      1  C   LIG d   1      -1.502  76.084 115.005  0.00  0.00     0.161 C 
ATOM      2  C   LIG d   1      -1.360  75.146 116.041  0.00  0.00     0.016 C 
ATOM      3  C   LIG d   1      -0.579  75.376 117.197  0.00  0.00     0.038 C 
ATOM      4  C   LIG d   1      -0.005  76.627 117.468  0.00  0.00     0.028 C 
ATOM      5  C   LIG d   1       0.297  77.439 116.212  0.00  0.00    -0.047 C 
ATOM      6  C   LIG d   1      -0.974  77.496 115.334  0.00  0.00     0.091 C 
ENDROOT
BRANCH   1   7
ATOM      7  O   LIG d   1      -2.881  76.149 114.590  0.00  0.00    -0.368 OA
BRANCH   7   8
ATOM      8  C   LIG d   1      -3.866  75.818 115.600  0.00  0.00     0.119 C 
BRANCH   8   9
ATOM      9  C   LIG d   1      -4.918  74.906 114.939  0.00  0.00     0.028 C 
ATOM     10  C   LIG d   1      -5.986  75.703 114.171  0.00  0.00     0.006 C 
ENDBRANCH   8   9
BRANCH   8  11
ATOM     11  C   LIG d   1      -4.636  77.061 116.055  0.00  0.00     0.028 C 
ATOM     12  C   LIG d   1      -3.936  77.810 117.200  0.00  0.00     0.006 C 
ENDBRANCH   8  11
ENDBRANCH   7   8
ENDBRANCH   1   7
BRANCH   6  13
ATOM     13  N   LIG d   1      -0.741  78.200 114.046  0.00  0.00    -0.311 N 
ATOM     14  C   LIG d   1      -1.612  79.053 113.509  0.00  0.00     0.210 C 
ATOM     15  C   LIG d   1      -1.185  79.654 112.166  0.00  0.00     0.109 C 
ATOM     16  O   LIG d   1      -2.683  79.394 114.034  0.00  0.00    -0.276 OA
ATOM     17  H   LIG d   1       0.117  78.006 113.568  0.00  0.00     0.149 HD
ENDBRANCH   6  13
BRANCH   5  18
ATOM     18  N   LIG d   1       0.762  78.771 116.644  0.00  0.00     0.381 N 
ATOM     19  H   LIG d   1      -0.025  79.362 116.825  0.00  0.00    -0.090 HD
ATOM     20  H   LIG d   1       1.301  79.182 115.903  0.00  0.00    -0.090 HD
ATOM     21  H   LIG d   1       1.320  78.688 117.465  0.00  0.00    -0.090 HD
ENDBRANCH   5  18
BRANCH   3  22
ATOM     22  C   LIG d   1      -0.333  74.334 118.079  0.00  0.00     0.382 C 
ATOM     23  O   LIG d   1       0.431  74.509 119.058  0.00  0.00    -0.241 OA
ATOM     24  O   LIG d   1      -0.830  73.209 117.882  0.00  0.00    -0.241 OA
ENDBRANCH   3  22
TORSDOF 7
ENDMDL
MODEL 6
REMARK VINA RESULT:      -5.8      2.286      5.270
REMARK  7 active torsions:
REMARK  status: ('A' for Active; 'I' for Inactive)
REMARK    1  A    between atoms: C_2  and  C_3 
REMARK    2  A    between atoms: C_3  and  O_6 
REMARK    3  A    between atoms: C_3  and  C_4 
REMARK    4  A    between atoms: C_7  and  O_6 
REMARK    5  A    between atoms: C_9  and  C_10 
REMARK    6  A    between atoms: N_15  and  C_14 
REMARK    7  A    between atoms: N_20  and  C_19 
REMARK       I    between atoms: C_22  and  N_20 
ROOT
ATOM      1  C   LIG d   1       0.513  82.502 111.578  0.00  0.00     0.161 C 
ATOM      2  C   LIG d   1      -0.729  82.138 112.124  0.00  0.00     0.016 C 
ATOM      3  C   LIG d   1      -1.270  80.836 112.027  0.00  0.00     0.038 C 
ATOM      4  C   LIG d   1      -0.532  79.763 111.505  0.00  0.00     0.028 C 
ATOM      5  C   LIG d   1       0.521  80.190 110.489  0.00  0.00    -0.047 C 
ATOM      6  C   LIG d   1       1.382  81.319 111.102  0.00  0.00     0.091 C 
ENDROOT
BRANCH   1   7
ATOM      7  O   LIG d   1       1.243  83.312 112.521  0.00  0.00    -0.368 OA
BRANCH   7   8
ATOM      8  C   LIG d   1       1.404  84.709 112.171  0.00  0.00     0.119 C 
BRANCH   8   9
ATOM      9  C   LIG d   1       0.424  85.519 113.041  0.00  0.00     0.028 C 
ATOM     10  C   LIG d   1       1.123  86.205 114.228  0.00  0.00     0.006 C 
ENDBRANCH   8   9
BRANCH   8  11
ATOM     11  C   LIG d   1       0.976  84.974 110.724  0.00  0.00     0.028 C 
ATOM     12  C   LIG d   1       1.406  86.360 110.220  0.00  0.00     0.006 C 
ENDBRANCH   8  11
ENDBRANCH   7   8
ENDBRANCH   1   7
BRANCH   6  13
ATOM     13  N   LIG d   1       2.383  81.853 110.143  0.00  0.00    -0.311 N 
ATOM     14  C   LIG d   1       3.677  81.983 110.430  0.00  0.00     0.210 C 
ATOM     15  C   LIG d   1       4.533  82.573 109.305  0.00  0.00     0.109 C 
ATOM     16  O   LIG d   1       4.203  81.635 111.498  0.00  0.00    -0.276 OA
ATOM     17  H   LIG d   1       2.048  82.130 109.241  0.00  0.00     0.149 HD
ENDBRANCH   6  13
BRANCH   5  18
ATOM     18  N   LIG d   1       1.306  78.994 110.131  0.00  0.00     0.381 N 
ATOM     19  H   LIG d   1       1.580  79.043 109.170  0.00  0.00    -0.090 HD
ATOM     20  H   LIG d   1       0.731  78.179 110.253  0.00  0.00    -0.090 HD
ATOM     21  H   LIG d   1       2.114  78.930 110.710  0.00  0.00    -0.090 HD
ENDBRANCH   5  18
BRANCH   3  22
ATOM     22  C   LIG d   1      -2.580  80.605 112.420  0.00  0.00     0.382 C 
ATOM     23  O   LIG d   1      -3.032  79.435 112.438  0.00  0.00    -0.241 OA
ATOM     24  O   LIG d   1      -3.328  81.556 112.714  0.00  0.00    -0.241 OA
ENDBRANCH   3  22
TORSDOF 7
ENDMDL
MODEL 7
REMARK VINA RESULT:      -5.7      3.825      5.089
REMARK  7 active torsions:
REMARK  status: ('A' for Active; 'I' for Inactive)
REMARK    1  A    between atoms: C_2  and  C_3 
REMARK    2  A    between atoms: C_3  and  O_6 
REMARK    3  A    between atoms: C_3  and  C_4 
REMARK    4  A    between atoms: C_7  and  O_6 
REMARK    5  A    between atoms: C_9  and  C_10 
REMARK    6  A    between atoms: N_15  and  C_14 
REMARK    7  A    between atoms: N_20  and  C_19 
REMARK       I    between atoms: C_22  and  N_20 
ROOT
ATOM      1  C   LIG d   1       3.654  85.852 112.199  0.00  0.00     0.161 C 
ATOM      2  C   LIG d   1       4.303  87.094 112.101  0.00  0.00     0.016 C 
ATOM      3  C   LIG d   1       4.679  87.866 113.224  0.00  0.00     0.038 C 
ATOM      4  C   LIG d   1       4.567  87.375 114.533  0.00  0.00     0.028 C 
ATOM      5  C   LIG d   1       3.457  86.342 114.699  0.00  0.00    -0.047 C 
ATOM      6  C   LIG d   1       3.623  85.249 113.619  0.00  0.00     0.091 C 
ENDROOT
BRANCH   1   7
ATOM      7  O   LIG d   1       4.242  84.919 111.271  0.00  0.00    -0.368 OA
BRANCH   7   8
ATOM      8  C   LIG d   1       3.522  84.715 110.030  0.00  0.00     0.119 C 
BRANCH   8   9
ATOM      9  C   LIG d   1       2.042  85.055 110.292  0.00  0.00     0.028 C 
ATOM     10  C   LIG d   1       1.107  83.871 109.996  0.00  0.00     0.006 C 
ENDBRANCH   8   9
BRANCH   8  11
ATOM     11  C   LIG d   1       3.533  83.241 109.615  0.00  0.00     0.028 C 
ATOM     12  C   LIG d   1       4.827  82.517 110.019  0.00  0.00     0.006 C 
ENDBRANCH   8  11
ENDBRANCH   7   8
ENDBRANCH   1   7
BRANCH   6  13
ATOM     13  N   LIG d   1       2.529  84.244 113.657  0.00  0.00    -0.311 N 
ATOM     14  C   LIG d   1       2.733  82.933 113.540  0.00  0.00     0.210 C 
ATOM     15  C   LIG d   1       1.465  82.074 113.586  0.00  0.00     0.109 C 
ATOM     16  O   LIG d   1       3.846  82.397 113.436  0.00  0.00    -0.276 OA
ATOM     17  H   LIG d   1       1.596  84.589 113.770  0.00  0.00     0.149 HD
ENDBRANCH   6  13
BRANCH   5  18
ATOM     18  N   LIG d   1       3.541  85.814 116.074  0.00  0.00     0.381 N 
ATOM     19  H   LIG d   1       4.128  86.405 116.628  0.00  0.00    -0.090 HD
ATOM     20  H   LIG d   1       3.953  84.898 116.046  0.00  0.00    -0.090 HD
ATOM     21  H   LIG d   1       2.631  85.765 116.477  0.00  0.00    -0.090 HD
ENDBRANCH   5  18
BRANCH   3  22
ATOM     22  C   LIG d   1       5.139  89.162 113.044  0.00  0.00     0.382 C 
ATOM     23  O   LIG d   1       6.352  89.369 112.800  0.00  0.00    -0.241 OA
ATOM     24  O   LIG d   1       4.364  90.129 113.166  0.00  0.00    -0.241 OA
ENDBRANCH   3  22
TORSDOF 7
ENDMDL
MODEL 8
REMARK VINA RESULT:      -5.6     10.212     12.524
REMARK  7 active torsions:
REMARK  status: ('A' for Active; 'I' for Inactive)
REMARK    1  A    between atoms: C_2  and  C_3 
REMARK    2  A    between atoms: C_3  and  O_6 
REMARK    3  A    between atoms: C_3  and  C_4 
REMARK    4  A    between atoms: C_7  and  O_6 
REMARK    5  A    between atoms: C_9  and  C_10 
REMARK    6  A    between atoms: N_15  and  C_14 
REMARK    7  A    between atoms: N_20  and  C_19 
REMARK       I    between atoms: C_22  and  N_20 
ROOT
ATOM      1  C   LIG d   1      -4.020  90.793 117.025  0.00  0.00     0.161 C 
ATOM      2  C   LIG d   1      -5.045  90.229 116.246  0.00  0.00     0.016 C 
ATOM      3  C   LIG d   1      -6.248  90.903 115.937  0.00  0.00     0.038 C 
ATOM      4  C   LIG d   1      -6.446  92.253 116.263  0.00  0.00     0.028 C 
ATOM      5  C   LIG d   1      -5.652  92.705 117.484  0.00  0.00    -0.047 C 
ATOM      6  C   LIG d   1      -4.171  92.304 117.295  0.00  0.00     0.091 C 
ENDROOT
BRANCH   1   7
ATOM      7  O   LIG d   1      -2.740  90.516 116.422  0.00  0.00    -0.368 OA
BRANCH   7   8
ATOM      8  C   LIG d   1      -2.106  89.274 116.814  0.00  0.00     0.119 C 
BRANCH   8   9
ATOM      9  C   LIG d   1      -2.326  89.100 118.329  0.00  0.00     0.028 C 
ATOM     10  C   LIG d   1      -1.830  87.738 118.842  0.00  0.00     0.006 C 
ENDBRANCH   8   9
BRANCH   8  11
ATOM     11  C   LIG d   1      -0.587  89.342 116.630  0.00  0.00     0.028 C 
ATOM     12  C   LIG d   1      -0.001  90.710 117.013  0.00  0.00     0.006 C 
ENDBRANCH   8  11
ENDBRANCH   7   8
ENDBRANCH   1   7
BRANCH   6  13
ATOM     13  N   LIG d   1      -3.339  92.634 118.481  0.00  0.00    -0.311 N 
ATOM     14  C   LIG d   1      -2.244  93.390 118.422  0.00  0.00     0.210 C 
ATOM     15  C   LIG d   1      -1.522  93.590 119.758  0.00  0.00     0.109 C 
ATOM     16  O   LIG d   1      -1.820  93.941 117.395  0.00  0.00    -0.276 OA
ATOM     17  H   LIG d   1      -3.628  92.254 119.361  0.00  0.00     0.149 HD
ENDBRANCH   6  13
BRANCH   5  18
ATOM     18  N   LIG d   1      -5.843  94.160 117.627  0.00  0.00     0.381 N 
ATOM     19  H   LIG d   1      -5.294  94.501 118.391  0.00  0.00    -0.090 HD
ATOM     20  H   LIG d   1      -6.811  94.343 117.829  0.00  0.00    -0.090 HD
ATOM     21  H   LIG d   1      -5.579  94.624 116.786  0.00  0.00    -0.090 HD
ENDBRANCH   5  18
BRANCH   3  22
ATOM     22  C   LIG d   1      -7.287  90.213 115.330  0.00  0.00     0.382 C 
ATOM     23  O   LIG d   1      -7.861  89.280 115.941  0.00  0.00    -0.241 OA
ATOM     24  O   LIG d   1      -7.626  90.483 114.162  0.00  0.00    -0.241 OA
ENDBRANCH   3  22
TORSDOF 7
ENDMDL
MODEL 9
REMARK VINA RESULT:      -5.5      6.641      9.806
REMARK  7 active torsions:
REMARK  status: ('A' for Active; 'I' for Inactive)
REMARK    1  A    between atoms: C_2  and  C_3 
REMARK    2  A    between atoms: C_3  and  O_6 
REMARK    3  A    between atoms: C_3  and  C_4 
REMARK    4  A    between atoms: C_7  and  O_6 
REMARK    5  A    between atoms: C_9  and  C_10 
REMARK    6  A    between atoms: N_15  and  C_14 
REMARK    7  A    between atoms: N_20  and  C_19 
REMARK       I    between atoms: C_22  and  N_20 
ROOT
ATOM      1  C   LIG d   1      -2.325  77.647 116.496  0.00  0.00     0.161 C 
ATOM      2  C   LIG d   1      -2.690  78.441 115.396  0.00  0.00     0.016 C 
ATOM      3  C   LIG d   1      -2.079  78.338 114.125  0.00  0.00     0.038 C 
ATOM      4  C   LIG d   1      -1.159  77.322 113.825  0.00  0.00     0.028 C 
ATOM      5  C   LIG d   1      -0.392  76.820 115.044  0.00  0.00    -0.047 C 
ATOM      6  C   LIG d   1      -1.401  76.458 116.158  0.00  0.00     0.091 C 
ENDROOT
BRANCH   1   7
ATOM      7  O   LIG d   1      -3.507  77.184 117.178  0.00  0.00    -0.368 OA
BRANCH   7   8
ATOM      8  C   LIG d   1      -4.754  77.813 116.791  0.00  0.00     0.119 C 
BRANCH   8   9
ATOM      9  C   LIG d   1      -5.312  78.537 118.031  0.00  0.00     0.028 C 
ATOM     10  C   LIG d   1      -6.804  78.242 118.260  0.00  0.00     0.006 C 
ENDBRANCH   8   9
BRANCH   8  11
ATOM     11  C   LIG d   1      -5.812  76.770 116.419  0.00  0.00     0.028 C 
ATOM     12  C   LIG d   1      -5.370  75.859 115.263  0.00  0.00     0.006 C 
ENDBRANCH   8  11
ENDBRANCH   7   8
ENDBRANCH   1   7
BRANCH   6  13
ATOM     13  N   LIG d   1      -0.730  76.038 117.415  0.00  0.00    -0.311 N 
ATOM     14  C   LIG d   1      -0.450  74.769 117.708  0.00  0.00     0.210 C 
ATOM     15  C   LIG d   1       0.226  74.552 119.065  0.00  0.00     0.109 C 
ATOM     16  O   LIG d   1      -0.667  73.806 116.957  0.00  0.00    -0.276 OA
ATOM     17  H   LIG d   1      -0.490  76.758 118.067  0.00  0.00     0.149 HD
ENDBRANCH   6  13
BRANCH   5  18
ATOM     18  N   LIG d   1       0.429  75.673 114.612  0.00  0.00     0.381 N 
ATOM     19  H   LIG d   1      -0.152  74.867 114.492  0.00  0.00    -0.090 HD
ATOM     20  H   LIG d   1       1.105  75.470 115.327  0.00  0.00    -0.090 HD
ATOM     21  H   LIG d   1       0.892  75.888 113.757  0.00  0.00    -0.090 HD
ENDBRANCH   5  18
BRANCH   3  22
ATOM     22  C   LIG d   1      -2.358  79.283 113.150  0.00  0.00     0.382 C 
ATOM     23  O   LIG d   1      -3.108  80.254 113.414  0.00  0.00    -0.241 OA
ATOM     24  O   LIG d   1      -1.905  79.154 111.997  0.00  0.00    -0.241 OA
ENDBRANCH   3  22
TORSDOF 7
ENDMDL
