MODEL 1
REMARK VINA RESULT:      -6.6      0.000      0.000
REMARK  7 active torsions:
REMARK  status: ('A' for Active; 'I' for Inactive)
REMARK    1  A    between atoms: C_2  and  C_3 
REMARK    2  A    between atoms: C_3  and  O_6 
REMARK    3  A    between atoms: C_3  and  C_4 
REMARK    4  A    between atoms: C_7  and  O_6 
REMARK    5  A    between atoms: C_9  and  C_10 
REMARK    6  A    between atoms: N_15  and  C_14 
REMARK    7  A    between atoms: N_20  and  C_19 
REMARK       I    between atoms: C_22  and  N_20 
ROOT
ATOM      1  C   LIG d   1       0.134  83.173 111.349  0.00  0.00     0.161 C 
ATOM      2  C   LIG d   1      -0.986  82.895 112.149  0.00  0.00     0.016 C 
ATOM      3  C   LIG d   1      -1.456  81.585 112.402  0.00  0.00     0.038 C 
ATOM      4  C   LIG d   1      -0.743  80.449 111.990  0.00  0.00     0.028 C 
ATOM      5  C   LIG d   1       0.116  80.689 110.753  0.00  0.00    -0.047 C 
ATOM      6  C   LIG d   1       0.990  81.942 110.983  0.00  0.00     0.091 C 
ENDROOT
BRANCH   1   7
ATOM      7  O   LIG d   1       0.949  84.180 111.982  0.00  0.00    -0.368 OA
BRANCH   7   8
ATOM      8  C   LIG d   1       0.962  85.481 111.346  0.00  0.00     0.119 C 
BRANCH   8   9
ATOM      9  C   LIG d   1      -0.163  85.494 110.293  0.00  0.00     0.028 C 
ATOM     10  C   LIG d   1       0.278  86.144 108.970  0.00  0.00     0.006 C 
ENDBRANCH   8   9
BRANCH   8  11
ATOM     11  C   LIG d   1       2.257  85.703 110.558  0.00  0.00     0.028 C 
ATOM     12  C   LIG d   1       3.506  85.228 111.318  0.00  0.00     0.006 C 
ENDBRANCH   8  11
ENDBRANCH   7   8
ENDBRANCH   1   7
BRANCH   6  13
ATOM     13  N   LIG d   1       1.799  82.296 109.788  0.00  0.00    -0.311 N 
ATOM     14  C   LIG d   1       3.068  81.926 109.625  0.00  0.00     0.210 C 
ATOM     15  C   LIG d   1       3.724  82.414 108.330  0.00  0.00     0.109 C 
ATOM     16  O   LIG d   1       3.703  81.212 110.416  0.00  0.00    -0.276 OA
ATOM     17  H   LIG d   1       1.352  82.848 109.081  0.00  0.00     0.149 HD
ENDBRANCH   6  13
BRANCH   5  18
ATOM     18  N   LIG d   1       0.908  79.467 110.517  0.00  0.00     0.381 N 
ATOM     19  H   LIG d   1       1.804  79.555 110.952  0.00  0.00    -0.090 HD
ATOM     20  H   LIG d   1       1.047  79.355 109.528  0.00  0.00    -0.090 HD
ATOM     21  H   LIG d   1       0.429  78.674 110.884  0.00  0.00    -0.090 HD
ENDBRANCH   5  18
BRANCH   3  22
ATOM     22  C   LIG d   1      -2.674  81.403 113.039  0.00  0.00     0.382 C 
ATOM     23  O   LIG d   1      -3.695  82.002 112.623  0.00  0.00    -0.241 OA
ATOM     24  O   LIG d   1      -2.756  80.682 114.051  0.00  0.00    -0.241 OA
ENDBRANCH   3  22
TORSDOF 7
ENDMDL
MODEL 2
REMARK VINA RESULT:      -6.2      2.685      4.436
REMARK  7 active torsions:
REMARK  status: ('A' for Active; 'I' for Inactive)
REMARK    1  A    between atoms: C_2  and  C_3 
REMARK    2  A    between atoms: C_3  and  O_6 
REMARK    3  A    between atoms: C_3  and  C_4 
REMARK    4  A    between atoms: C_7  and  O_6 
REMARK    5  A    between atoms: C_9  and  C_10 
REMARK    6  A    between atoms: N_15  and  C_14 
REMARK    7  A    between atoms: N_20  and  C_19 
REMARK       I    between atoms: C_22  and  N_20 
ROOT
ATOM      1  C   LIG d   1       1.825  84.321 111.610  0.00  0.00     0.161 C 
ATOM      2  C   LIG d   1       0.812  83.351 111.685  0.00  0.00     0.016 C 
ATOM      3  C   LIG d   1      -0.237  83.393 112.632  0.00  0.00     0.038 C 
ATOM      4  C   LIG d   1      -0.430  84.496 113.476  0.00  0.00     0.028 C 
ATOM      5  C   LIG d   1       0.855  85.259 113.780  0.00  0.00    -0.047 C 
ATOM      6  C   LIG d   1       1.568  85.590 112.449  0.00  0.00     0.091 C 
ENDROOT
BRANCH   1   7
ATOM      7  O   LIG d   1       2.065  84.672 110.232  0.00  0.00    -0.368 OA
BRANCH   7   8
ATOM      8  C   LIG d   1       0.945  84.505 109.328  0.00  0.00     0.119 C 
BRANCH   8   9
ATOM      9  C   LIG d   1       1.468  83.785 108.071  0.00  0.00     0.028 C 
ATOM     10  C   LIG d   1       2.494  82.689 108.406  0.00  0.00     0.006 C 
ENDBRANCH   8   9
BRANCH   8  11
ATOM     11  C   LIG d   1       0.422  85.857 108.834  0.00  0.00     0.028 C 
ATOM     12  C   LIG d   1      -0.688  86.431 109.728  0.00  0.00     0.006 C 
ENDBRANCH   8  11
ENDBRANCH   7   8
ENDBRANCH   1   7
BRANCH   6  13
ATOM     13  N   LIG d   1       2.877  86.263 112.660  0.00  0.00    -0.311 N 
ATOM     14  C   LIG d   1       3.141  87.500 112.244  0.00  0.00     0.210 C 
ATOM     15  C   LIG d   1       4.559  87.996 112.546  0.00  0.00     0.109 C 
ATOM     16  O   LIG d   1       2.324  88.247 111.683  0.00  0.00    -0.276 OA
ATOM     17  H   LIG d   1       3.587  85.740 113.134  0.00  0.00     0.149 HD
ENDBRANCH   6  13
BRANCH   5  18
ATOM     18  N   LIG d   1       0.489  86.460 114.554  0.00  0.00     0.381 N 
ATOM     19  H   LIG d   1      -0.250  86.950 114.090  0.00  0.00    -0.090 HD
ATOM     20  H   LIG d   1       1.286  87.068 114.608  0.00  0.00    -0.090 HD
ATOM     21  H   LIG d   1       0.199  86.199 115.471  0.00  0.00    -0.090 HD
ENDBRANCH   5  18
BRANCH   3  22
ATOM     22  C   LIG d   1      -1.083  82.303 112.769  0.00  0.00     0.382 C 
ATOM     23  O   LIG d   1      -0.643  81.220 113.225  0.00  0.00    -0.241 OA
ATOM     24  O   LIG d   1      -2.271  82.375 112.400  0.00  0.00    -0.241 OA
ENDBRANCH   3  22
TORSDOF 7
ENDMDL
MODEL 3
REMARK VINA RESULT:      -6.2      1.691      4.978
REMARK  7 active torsions:
REMARK  status: ('A' for Active; 'I' for Inactive)
REMARK    1  A    between atoms: C_2  and  C_3 
REMARK    2  A    between atoms: C_3  and  O_6 
REMARK    3  A    between atoms: C_3  and  C_4 
REMARK    4  A    between atoms: C_7  and  O_6 
REMARK    5  A    between atoms: C_9  and  C_10 
REMARK    6  A    between atoms: N_15  and  C_14 
REMARK    7  A    between atoms: N_20  and  C_19 
REMARK       I    between atoms: C_22  and  N_20 
ROOT
ATOM      1  C   LIG d   1       1.636  83.348 111.777  0.00  0.00     0.161 C 
ATOM      2  C   LIG d   1       2.527  83.440 110.695  0.00  0.00     0.016 C 
ATOM      3  C   LIG d   1       2.461  82.601 109.559  0.00  0.00     0.038 C 
ATOM      4  C   LIG d   1       1.398  81.708 109.358  0.00  0.00     0.028 C 
ATOM      5  C   LIG d   1       0.758  81.227 110.656  0.00  0.00    -0.047 C 
ATOM      6  C   LIG d   1       0.403  82.454 111.526  0.00  0.00     0.091 C 
ENDROOT
BRANCH   1   7
ATOM      7  O   LIG d   1       1.223  84.668 112.184  0.00  0.00    -0.368 OA
BRANCH   7   8
ATOM      8  C   LIG d   1       1.259  85.691 111.158  0.00  0.00     0.119 C 
BRANCH   8   9
ATOM      9  C   LIG d   1       1.918  86.940 111.775  0.00  0.00     0.028 C 
ATOM     10  C   LIG d   1       3.453  86.898 111.687  0.00  0.00     0.006 C 
ENDBRANCH   8   9
BRANCH   8  11
ATOM     11  C   LIG d   1      -0.152  86.132 110.760  0.00  0.00     0.028 C 
ATOM     12  C   LIG d   1      -0.324  86.278 109.240  0.00  0.00     0.006 C 
ENDBRANCH   8  11
ENDBRANCH   7   8
ENDBRANCH   1   7
BRANCH   6  13
ATOM     13  N   LIG d   1      -0.151  82.070 112.850  0.00  0.00    -0.311 N 
ATOM     14  C   LIG d   1      -1.455  82.052 113.122  0.00  0.00     0.210 C 
ATOM     15  C   LIG d   1      -1.811  81.645 114.555  0.00  0.00     0.109 C 
ATOM     16  O   LIG d   1      -2.351  82.305 112.303  0.00  0.00    -0.276 OA
ATOM     17  H   LIG d   1       0.505  81.820 113.564  0.00  0.00     0.149 HD
ENDBRANCH   6  13
BRANCH   5  18
ATOM     18  N   LIG d   1      -0.419  80.413 110.297  0.00  0.00     0.381 N 
ATOM     19  H   LIG d   1      -0.149  79.456 110.189  0.00  0.00    -0.090 HD
ATOM     20  H   LIG d   1      -0.784  80.738 109.419  0.00  0.00    -0.090 HD
ATOM     21  H   LIG d   1      -1.116  80.491 111.004  0.00  0.00    -0.090 HD
ENDBRANCH   5  18
BRANCH   3  22
ATOM     22  C   LIG d   1       3.487  82.624 108.627  0.00  0.00     0.382 C 
ATOM     23  O   LIG d   1       4.670  82.814 109.002  0.00  0.00    -0.241 OA
ATOM     24  O   LIG d   1       3.241  82.501 107.413  0.00  0.00    -0.241 OA
ENDBRANCH   3  22
TORSDOF 7
ENDMDL
MODEL 4
REMARK VINA RESULT:      -5.9      2.823      4.746
REMARK  7 active torsions:
REMARK  status: ('A' for Active; 'I' for Inactive)
REMARK    1  A    between atoms: C_2  and  C_3 
REMARK    2  A    between atoms: C_3  and  O_6 
REMARK    3  A    between atoms: C_3  and  C_4 
REMARK    4  A    between atoms: C_7  and  O_6 
REMARK    5  A    between atoms: C_9  and  C_10 
REMARK    6  A    between atoms: N_15  and  C_14 
REMARK    7  A    between atoms: N_20  and  C_19 
REMARK       I    between atoms: C_22  and  N_20 
ROOT
ATOM      1  C   LIG d   1       2.717  83.873 112.610  0.00  0.00     0.161 C 
ATOM      2  C   LIG d   1       1.636  82.976 112.574  0.00  0.00     0.016 C 
ATOM      3  C   LIG d   1       0.285  83.382 112.654  0.00  0.00     0.038 C 
ATOM      4  C   LIG d   1      -0.086  84.735 112.624  0.00  0.00     0.028 C 
ATOM      5  C   LIG d   1       0.988  85.670 113.170  0.00  0.00    -0.047 C 
ATOM      6  C   LIG d   1       2.328  85.360 112.465  0.00  0.00     0.091 C 
ENDROOT
BRANCH   1   7
ATOM      7  O   LIG d   1       3.688  83.509 111.610  0.00  0.00    -0.368 OA
BRANCH   7   8
ATOM      8  C   LIG d   1       3.168  82.867 110.420  0.00  0.00     0.119 C 
BRANCH   8   9
ATOM      9  C   LIG d   1       4.261  81.919 109.890  0.00  0.00     0.028 C 
ATOM     10  C   LIG d   1       4.031  81.521 108.422  0.00  0.00     0.006 C 
ENDBRANCH   8   9
BRANCH   8  11
ATOM     11  C   LIG d   1       2.931  83.882 109.297  0.00  0.00     0.028 C 
ATOM     12  C   LIG d   1       1.439  84.115 109.010  0.00  0.00     0.006 C 
ENDBRANCH   8  11
ENDBRANCH   7   8
ENDBRANCH   1   7
BRANCH   6  13
ATOM     13  N   LIG d   1       3.451  86.173 113.001  0.00  0.00    -0.311 N 
ATOM     14  C   LIG d   1       3.814  87.348 112.490  0.00  0.00     0.210 C 
ATOM     15  C   LIG d   1       5.011  88.011 113.180  0.00  0.00     0.109 C 
ATOM     16  O   LIG d   1       3.238  87.920 111.552  0.00  0.00    -0.276 OA
ATOM     17  H   LIG d   1       3.953  85.798 113.782  0.00  0.00     0.149 HD
ENDBRANCH   6  13
BRANCH   5  18
ATOM     18  N   LIG d   1       0.526  87.054 112.952  0.00  0.00     0.381 N 
ATOM     19  H   LIG d   1      -0.210  87.063 112.275  0.00  0.00    -0.090 HD
ATOM     20  H   LIG d   1       1.291  87.598 112.592  0.00  0.00    -0.090 HD
ATOM     21  H   LIG d   1       0.204  87.445 113.809  0.00  0.00    -0.090 HD
ENDBRANCH   5  18
BRANCH   3  22
ATOM     22  C   LIG d   1      -0.711  82.429 112.806  0.00  0.00     0.382 C 
ATOM     23  O   LIG d   1      -0.472  81.366 113.427  0.00  0.00    -0.241 OA
ATOM     24  O   LIG d   1      -1.833  82.600 112.291  0.00  0.00    -0.241 OA
ENDBRANCH   3  22
TORSDOF 7
ENDMDL
MODEL 5
REMARK VINA RESULT:      -5.8      2.213      4.847
REMARK  7 active torsions:
REMARK  status: ('A' for Active; 'I' for Inactive)
REMARK    1  A    between atoms: C_2  and  C_3 
REMARK    2  A    between atoms: C_3  and  O_6 
REMARK    3  A    between atoms: C_3  and  C_4 
REMARK    4  A    between atoms: C_7  and  O_6 
REMARK    5  A    between atoms: C_9  and  C_10 
REMARK    6  A    between atoms: N_15  and  C_14 
REMARK    7  A    between atoms: N_20  and  C_19 
REMARK       I    between atoms: C_22  and  N_20 
ROOT
ATOM      1  C   LIG d   1      -0.050  83.401 110.687  0.00  0.00     0.161 C 
ATOM      2  C   LIG d   1      -0.015  84.795 110.513  0.00  0.00     0.016 C 
ATOM      3  C   LIG d   1       0.083  85.711 111.586  0.00  0.00     0.038 C 
ATOM      4  C   LIG d   1       0.308  85.287 112.904  0.00  0.00     0.028 C 
ATOM      5  C   LIG d   1      -0.226  83.887 113.189  0.00  0.00    -0.047 C 
ATOM      6  C   LIG d   1       0.305  82.918 112.109  0.00  0.00     0.091 C 
ENDROOT
BRANCH   1   7
ATOM      7  O   LIG d   1       0.803  82.766 109.714  0.00  0.00    -0.368 OA
BRANCH   7   8
ATOM      8  C   LIG d   1       1.952  83.533 109.276  0.00  0.00     0.119 C 
BRANCH   8   9
ATOM      9  C   LIG d   1       2.361  83.003 107.889  0.00  0.00     0.028 C 
ATOM     10  C   LIG d   1       3.707  82.259 107.917  0.00  0.00     0.006 C 
ENDBRANCH   8   9
BRANCH   8  11
ATOM     11  C   LIG d   1       3.164  83.284 110.179  0.00  0.00     0.028 C 
ATOM     12  C   LIG d   1       3.616  84.546 110.931  0.00  0.00     0.006 C 
ENDBRANCH   8  11
ENDBRANCH   7   8
ENDBRANCH   1   7
BRANCH   6  13
ATOM     13  N   LIG d   1      -0.237  81.543 112.265  0.00  0.00    -0.311 N 
ATOM     14  C   LIG d   1      -1.536  81.277 112.386  0.00  0.00     0.210 C 
ATOM     15  C   LIG d   1      -1.879  79.793 112.557  0.00  0.00     0.109 C 
ATOM     16  O   LIG d   1      -2.440  82.125 112.336  0.00  0.00    -0.276 OA
ATOM     17  H   LIG d   1       0.425  80.792 112.284  0.00  0.00     0.149 HD
ENDBRANCH   6  13
BRANCH   5  18
ATOM     18  N   LIG d   1       0.197  83.519 114.554  0.00  0.00     0.381 N 
ATOM     19  H   LIG d   1       0.724  84.267 114.959  0.00  0.00    -0.090 HD
ATOM     20  H   LIG d   1       0.787  82.708 114.504  0.00  0.00    -0.090 HD
ATOM     21  H   LIG d   1      -0.602  83.324 115.117  0.00  0.00    -0.090 HD
ENDBRANCH   5  18
BRANCH   3  22
ATOM     22  C   LIG d   1      -0.083  87.067 111.349  0.00  0.00     0.382 C 
ATOM     23  O   LIG d   1       0.920  87.815 111.259  0.00  0.00    -0.241 OA
ATOM     24  O   LIG d   1      -1.224  87.559 111.268  0.00  0.00    -0.241 OA
ENDBRANCH   3  22
TORSDOF 7
ENDMDL
MODEL 6
REMARK VINA RESULT:      -5.7      2.372      4.170
REMARK  7 active torsions:
REMARK  status: ('A' for Active; 'I' for Inactive)
REMARK    1  A    between atoms: C_2  and  C_3 
REMARK    2  A    between atoms: C_3  and  O_6 
REMARK    3  A    between atoms: C_3  and  C_4 
REMARK    4  A    between atoms: C_7  and  O_6 
REMARK    5  A    between atoms: C_9  and  C_10 
REMARK    6  A    between atoms: N_15  and  C_14 
REMARK    7  A    between atoms: N_20  and  C_19 
REMARK       I    between atoms: C_22  and  N_20 
ROOT
ATOM      1  C   LIG d   1       2.342  82.640 112.385  0.00  0.00     0.161 C 
ATOM      2  C   LIG d   1       1.373  81.627 112.473  0.00  0.00     0.016 C 
ATOM      3  C   LIG d   1      -0.008  81.850 112.266  0.00  0.00     0.038 C 
ATOM      4  C   LIG d   1      -0.499  83.081 111.805  0.00  0.00     0.028 C 
ATOM      5  C   LIG d   1       0.381  84.266 112.190  0.00  0.00    -0.047 C 
ATOM      6  C   LIG d   1       1.839  83.965 111.774  0.00  0.00     0.091 C 
ENDROOT
BRANCH   1   7
ATOM      7  O   LIG d   1       3.489  82.157 111.658  0.00  0.00    -0.368 OA
BRANCH   7   8
ATOM      8  C   LIG d   1       3.319  82.006 110.227  0.00  0.00     0.119 C 
BRANCH   8   9
ATOM      9  C   LIG d   1       3.701  80.558 109.865  0.00  0.00     0.028 C 
ATOM     10  C   LIG d   1       2.478  79.704 109.491  0.00  0.00     0.006 C 
ENDBRANCH   8   9
BRANCH   8  11
ATOM     11  C   LIG d   1       4.302  82.890 109.453  0.00  0.00     0.028 C 
ATOM     12  C   LIG d   1       4.208  82.695 107.931  0.00  0.00     0.006 C 
ENDBRANCH   8  11
ENDBRANCH   7   8
ENDBRANCH   1   7
BRANCH   6  13
ATOM     13  N   LIG d   1       2.780  85.037 112.190  0.00  0.00    -0.311 N 
ATOM     14  C   LIG d   1       3.050  86.106 111.442  0.00  0.00     0.210 C 
ATOM     15  C   LIG d   1       4.063  87.081 112.049  0.00  0.00     0.109 C 
ATOM     16  O   LIG d   1       2.521  86.355 110.348  0.00  0.00    -0.276 OA
ATOM     17  H   LIG d   1       3.229  84.931 113.078  0.00  0.00     0.149 HD
ENDBRANCH   6  13
BRANCH   5  18
ATOM     18  N   LIG d   1      -0.173  85.464 111.530  0.00  0.00     0.381 N 
ATOM     19  H   LIG d   1      -0.792  85.190 110.794  0.00  0.00    -0.090 HD
ATOM     20  H   LIG d   1       0.582  85.991 111.128  0.00  0.00    -0.090 HD
ATOM     21  H   LIG d   1      -0.662  86.023 112.194  0.00  0.00    -0.090 HD
ENDBRANCH   5  18
BRANCH   3  22
ATOM     22  C   LIG d   1      -0.918  80.846 112.559  0.00  0.00     0.382 C 
ATOM     23  O   LIG d   1      -1.267  80.644 113.747  0.00  0.00    -0.241 OA
ATOM     24  O   LIG d   1      -1.360  80.111 111.656  0.00  0.00    -0.241 OA
ENDBRANCH   3  22
TORSDOF 7
ENDMDL
MODEL 7
REMARK VINA RESULT:      -5.6      2.424      5.674
REMARK  7 active torsions:
REMARK  status: ('A' for Active; 'I' for Inactive)
REMARK    1  A    between atoms: C_2  and  C_3 
REMARK    2  A    between atoms: C_3  and  O_6 
REMARK    3  A    between atoms: C_3  and  C_4 
REMARK    4  A    between atoms: C_7  and  O_6 
REMARK    5  A    between atoms: C_9  and  C_10 
REMARK    6  A    between atoms: N_15  and  C_14 
REMARK    7  A    between atoms: N_20  and  C_19 
REMARK       I    between atoms: C_22  and  N_20 
ROOT
ATOM      1  C   LIG d   1       2.271  83.386 111.669  0.00  0.00     0.161 C 
ATOM      2  C   LIG d   1       2.788  84.660 111.381  0.00  0.00     0.016 C 
ATOM      3  C   LIG d   1       2.375  85.837 112.047  0.00  0.00     0.038 C 
ATOM      4  C   LIG d   1       1.521  85.798 113.159  0.00  0.00     0.028 C 
ATOM      5  C   LIG d   1       0.586  84.593 113.163  0.00  0.00    -0.047 C 
ATOM      6  C   LIG d   1       1.420  83.309 112.954  0.00  0.00     0.091 C 
ENDROOT
BRANCH   1   7
ATOM      7  O   LIG d   1       3.343  82.424 111.719  0.00  0.00    -0.368 OA
BRANCH   7   8
ATOM      8  C   LIG d   1       3.462  81.543 110.575  0.00  0.00     0.119 C 
BRANCH   8   9
ATOM      9  C   LIG d   1       4.448  82.198 109.588  0.00  0.00     0.028 C 
ATOM     10  C   LIG d   1       3.842  82.377 108.185  0.00  0.00     0.006 C 
ENDBRANCH   8   9
BRANCH   8  11
ATOM     11  C   LIG d   1       2.138  81.435 109.814  0.00  0.00     0.028 C 
ATOM     12  C   LIG d   1       1.509  80.036 109.907  0.00  0.00     0.006 C 
ENDBRANCH   8  11
ENDBRANCH   7   8
ENDBRANCH   1   7
BRANCH   6  13
ATOM     13  N   LIG d   1       0.573  82.091 112.860  0.00  0.00    -0.311 N 
ATOM     14  C   LIG d   1      -0.621  82.073 112.271  0.00  0.00     0.210 C 
ATOM     15  C   LIG d   1      -1.337  80.719 112.303  0.00  0.00     0.109 C 
ATOM     16  O   LIG d   1      -1.141  83.041 111.696  0.00  0.00    -0.276 OA
ATOM     17  H   LIG d   1       0.933  81.253 113.273  0.00  0.00     0.149 HD
ENDBRANCH   6  13
BRANCH   5  18
ATOM     18  N   LIG d   1      -0.149  84.603 114.442  0.00  0.00     0.381 N 
ATOM     19  H   LIG d   1      -1.077  84.948 114.296  0.00  0.00    -0.090 HD
ATOM     20  H   LIG d   1       0.320  85.220 115.081  0.00  0.00    -0.090 HD
ATOM     21  H   LIG d   1      -0.185  83.683 114.822  0.00  0.00    -0.090 HD
ENDBRANCH   5  18
BRANCH   3  22
ATOM     22  C   LIG d   1       2.788  87.074 111.577  0.00  0.00     0.382 C 
ATOM     23  O   LIG d   1       4.010  87.313 111.428  0.00  0.00    -0.241 OA
ATOM     24  O   LIG d   1       1.955  87.970 111.341  0.00  0.00    -0.241 OA
ENDBRANCH   3  22
TORSDOF 7
ENDMDL
MODEL 8
REMARK VINA RESULT:      -5.4      2.056      5.010
REMARK  7 active torsions:
REMARK  status: ('A' for Active; 'I' for Inactive)
REMARK    1  A    between atoms: C_2  and  C_3 
REMARK    2  A    between atoms: C_3  and  O_6 
REMARK    3  A    between atoms: C_3  and  C_4 
REMARK    4  A    between atoms: C_7  and  O_6 
REMARK    5  A    between atoms: C_9  and  C_10 
REMARK    6  A    between atoms: N_15  and  C_14 
REMARK    7  A    between atoms: N_20  and  C_19 
REMARK       I    between atoms: C_22  and  N_20 
ROOT
ATOM      1  C   LIG d   1       0.070  83.202 111.117  0.00  0.00     0.161 C 
ATOM      2  C   LIG d   1       0.185  84.577 111.380  0.00  0.00     0.016 C 
ATOM      3  C   LIG d   1       0.683  85.510 110.442  0.00  0.00     0.038 C 
ATOM      4  C   LIG d   1       0.959  85.150 109.114  0.00  0.00     0.028 C 
ATOM      5  C   LIG d   1       1.337  83.682 108.950  0.00  0.00    -0.047 C 
ATOM      6  C   LIG d   1       0.262  82.808 109.637  0.00  0.00     0.091 C 
ENDROOT
BRANCH   1   7
ATOM      7  O   LIG d   1      -1.196  82.715 111.604  0.00  0.00    -0.368 OA
BRANCH   7   8
ATOM      8  C   LIG d   1      -1.144  81.865 112.776  0.00  0.00     0.119 C 
BRANCH   8   9
ATOM      9  C   LIG d   1       0.334  81.744 113.195  0.00  0.00     0.028 C 
ATOM     10  C   LIG d   1       0.615  82.407 114.554  0.00  0.00     0.006 C 
ENDBRANCH   8   9
BRANCH   8  11
ATOM     11  C   LIG d   1      -1.591  80.437 112.449  0.00  0.00     0.028 C 
ATOM     12  C   LIG d   1      -1.718  79.552 113.699  0.00  0.00     0.006 C 
ENDBRANCH   8  11
ENDBRANCH   7   8
ENDBRANCH   1   7
BRANCH   6  13
ATOM     13  N   LIG d   1       0.598  81.361 109.597  0.00  0.00    -0.311 N 
ATOM     14  C   LIG d   1       1.787  80.874 109.945  0.00  0.00     0.210 C 
ATOM     15  C   LIG d   1       1.929  79.355 109.810  0.00  0.00     0.109 C 
ATOM     16  O   LIG d   1       2.728  81.553 110.383  0.00  0.00    -0.276 OA
ATOM     17  H   LIG d   1      -0.118  80.735 109.282  0.00  0.00     0.149 HD
ENDBRANCH   6  13
BRANCH   5  18
ATOM     18  N   LIG d   1       1.463  83.413 107.505  0.00  0.00     0.381 N 
ATOM     19  H   LIG d   1       2.287  82.872 107.332  0.00  0.00    -0.090 HD
ATOM     20  H   LIG d   1       1.552  84.287 107.018  0.00  0.00    -0.090 HD
ATOM     21  H   LIG d   1       0.660  82.922 107.178  0.00  0.00    -0.090 HD
ENDBRANCH   5  18
BRANCH   3  22
ATOM     22  C   LIG d   1       0.946  86.811 110.840  0.00  0.00     0.382 C 
ATOM     23  O   LIG d   1       0.013  87.544 111.247  0.00  0.00    -0.241 OA
ATOM     24  O   LIG d   1       2.099  87.277 110.756  0.00  0.00    -0.241 OA
ENDBRANCH   3  22
TORSDOF 7
ENDMDL
MODEL 9
REMARK VINA RESULT:      -5.2      2.166      3.858
REMARK  7 active torsions:
REMARK  status: ('A' for Active; 'I' for Inactive)
REMARK    1  A    between atoms: C_2  and  C_3 
REMARK    2  A    between atoms: C_3  and  O_6 
REMARK    3  A    between atoms: C_3  and  C_4 
REMARK    4  A    between atoms: C_7  and  O_6 
REMARK    5  A    between atoms: C_9  and  C_10 
REMARK    6  A    between atoms: N_15  and  C_14 
REMARK    7  A    between atoms: N_20  and  C_19 
REMARK       I    between atoms: C_22  and  N_20 
ROOT
ATOM      1  C   LIG d   1       0.500  82.310 111.754  0.00  0.00     0.161 C 
ATOM      2  C   LIG d   1      -0.643  81.543 112.033  0.00  0.00     0.016 C 
ATOM      3  C   LIG d   1      -1.569  81.869 113.051  0.00  0.00     0.038 C 
ATOM      4  C   LIG d   1      -1.494  83.075 113.763  0.00  0.00     0.028 C 
ATOM      5  C   LIG d   1      -0.078  83.633 113.862  0.00  0.00    -0.047 C 
ATOM      6  C   LIG d   1       0.539  83.689 112.446  0.00  0.00     0.091 C 
ENDROOT
BRANCH   1   7
ATOM      7  O   LIG d   1       0.651  82.460 110.328  0.00  0.00    -0.368 OA
BRANCH   7   8
ATOM      8  C   LIG d   1       1.776  81.771 109.730  0.00  0.00     0.119 C 
BRANCH   8   9
ATOM      9  C   LIG d   1       2.332  82.676 108.613  0.00  0.00     0.028 C 
ATOM     10  C   LIG d   1       3.853  82.879 108.726  0.00  0.00     0.006 C 
ENDBRANCH   8   9
BRANCH   8  11
ATOM     11  C   LIG d   1       1.331  80.485 109.026  0.00  0.00     0.028 C 
ATOM     12  C   LIG d   1       1.996  79.227 109.607  0.00  0.00     0.006 C 
ENDBRANCH   8  11
ENDBRANCH   7   8
ENDBRANCH   1   7
BRANCH   6  13
ATOM     13  N   LIG d   1       1.954  84.144 112.461  0.00  0.00    -0.311 N 
ATOM     14  C   LIG d   1       2.438  85.064 111.628  0.00  0.00     0.210 C 
ATOM     15  C   LIG d   1       3.928  85.373 111.800  0.00  0.00     0.109 C 
ATOM     16  O   LIG d   1       1.766  85.676 110.784  0.00  0.00    -0.276 OA
ATOM     17  H   LIG d   1       2.562  83.721 113.135  0.00  0.00     0.149 HD
ENDBRANCH   6  13
BRANCH   5  18
ATOM     18  N   LIG d   1      -0.164  84.957 114.507  0.00  0.00     0.381 N 
ATOM     19  H   LIG d   1       0.265  84.922 115.410  0.00  0.00    -0.090 HD
ATOM     20  H   LIG d   1      -1.132  85.197 114.627  0.00  0.00    -0.090 HD
ATOM     21  H   LIG d   1       0.288  85.642 113.942  0.00  0.00    -0.090 HD
ENDBRANCH   5  18
BRANCH   3  22
ATOM     22  C   LIG d   1      -2.562  80.964 113.393  0.00  0.00     0.382 C 
ATOM     23  O   LIG d   1      -3.034  80.960 114.555  0.00  0.00    -0.241 OA
ATOM     24  O   LIG d   1      -2.960  80.121 112.566  0.00  0.00    -0.241 OA
ENDBRANCH   3  22
TORSDOF 7
ENDMDL
