MODEL 1
REMARK VINA RESULT:      -6.4      0.000      0.000
REMARK  7 active torsions:
REMARK  status: ('A' for Active; 'I' for Inactive)
REMARK    1  A    between atoms: C_2  and  C_3 
REMARK    2  A    between atoms: C_3  and  O_6 
REMARK    3  A    between atoms: C_3  and  C_4 
REMARK    4  A    between atoms: C_7  and  O_6 
REMARK    5  A    between atoms: C_9  and  C_10 
REMARK    6  A    between atoms: N_15  and  C_14 
REMARK    7  A    between atoms: N_20  and  C_19 
REMARK       I    between atoms: C_22  and  N_20 
ROOT
ATOM      1  C   LIG d   1       2.138  84.088 111.820  0.00  0.00     0.161 C 
ATOM      2  C   LIG d   1       1.172  83.068 111.813  0.00  0.00     0.016 C 
ATOM      3  C   LIG d   1      -0.052  83.150 112.516  0.00  0.00     0.038 C 
ATOM      4  C   LIG d   1      -0.461  84.329 113.157  0.00  0.00     0.028 C 
ATOM      5  C   LIG d   1       0.701  85.205 113.614  0.00  0.00    -0.047 C 
ATOM      6  C   LIG d   1       1.661  85.426 112.423  0.00  0.00     0.091 C 
ENDROOT
BRANCH   1   7
ATOM      7  O   LIG d   1       2.644  84.292 110.486  0.00  0.00    -0.368 OA
BRANCH   7   8
ATOM      8  C   LIG d   1       2.438  83.202 109.553  0.00  0.00     0.119 C 
BRANCH   8   9
ATOM      9  C   LIG d   1       3.825  82.760 109.046  0.00  0.00     0.028 C 
ATOM     10  C   LIG d   1       4.276  81.425 109.661  0.00  0.00     0.006 C 
ENDBRANCH   8   9
BRANCH   8  11
ATOM     11  C   LIG d   1       1.681  83.671 108.307  0.00  0.00     0.028 C 
ATOM     12  C   LIG d   1       0.940  84.999 108.525  0.00  0.00     0.006 C 
ENDBRANCH   8  11
ENDBRANCH   7   8
ENDBRANCH   1   7
BRANCH   6  13
ATOM     13  N   LIG d   1       2.869  86.203 112.805  0.00  0.00    -0.311 N 
ATOM     14  C   LIG d   1       2.963  87.525 112.671  0.00  0.00     0.210 C 
ATOM     15  C   LIG d   1       4.303  88.126 113.107  0.00  0.00     0.109 C 
ATOM     16  O   LIG d   1       2.052  88.261 112.263  0.00  0.00    -0.276 OA
ATOM     17  H   LIG d   1       3.644  85.689 113.175  0.00  0.00     0.149 HD
ENDBRANCH   6  13
BRANCH   5  18
ATOM     18  N   LIG d   1       0.133  86.460 114.140  0.00  0.00     0.381 N 
ATOM     19  H   LIG d   1      -0.251  86.999 113.389  0.00  0.00    -0.090 HD
ATOM     20  H   LIG d   1       0.867  86.995 114.568  0.00  0.00    -0.090 HD
ATOM     21  H   LIG d   1      -0.576  86.259 114.811  0.00  0.00    -0.090 HD
ENDBRANCH   5  18
BRANCH   3  22
ATOM     22  C   LIG d   1      -0.863  82.030 112.617  0.00  0.00     0.382 C 
ATOM     23  O   LIG d   1      -2.006  82.035 112.099  0.00  0.00    -0.241 OA
ATOM     24  O   LIG d   1      -0.484  81.031 113.257  0.00  0.00    -0.241 OA
ENDBRANCH   3  22
TORSDOF 7
ENDMDL
MODEL 2
REMARK VINA RESULT:      -6.3      2.803      5.492
REMARK  7 active torsions:
REMARK  status: ('A' for Active; 'I' for Inactive)
REMARK    1  A    between atoms: C_2  and  C_3 
REMARK    2  A    between atoms: C_3  and  O_6 
REMARK    3  A    between atoms: C_3  and  C_4 
REMARK    4  A    between atoms: C_7  and  O_6 
REMARK    5  A    between atoms: C_9  and  C_10 
REMARK    6  A    between atoms: N_15  and  C_14 
REMARK    7  A    between atoms: N_20  and  C_19 
REMARK       I    between atoms: C_22  and  N_20 
ROOT
ATOM      1  C   LIG d   1       1.368  83.005 111.682  0.00  0.00     0.161 C 
ATOM      2  C   LIG d   1       2.375  82.842 110.716  0.00  0.00     0.016 C 
ATOM      3  C   LIG d   1       2.465  81.714 109.868  0.00  0.00     0.038 C 
ATOM      4  C   LIG d   1       1.460  80.737 109.826  0.00  0.00     0.028 C 
ATOM      5  C   LIG d   1       0.689  80.603 111.135  0.00  0.00    -0.047 C 
ATOM      6  C   LIG d   1       0.200  82.002 111.575  0.00  0.00     0.091 C 
ENDROOT
BRANCH   1   7
ATOM      7  O   LIG d   1       0.872  84.358 111.648  0.00  0.00    -0.368 OA
BRANCH   7   8
ATOM      8  C   LIG d   1       1.327  85.176 110.542  0.00  0.00     0.119 C 
BRANCH   8   9
ATOM      9  C   LIG d   1       1.577  86.595 111.087  0.00  0.00     0.028 C 
ATOM     10  C   LIG d   1       1.539  86.648 112.624  0.00  0.00     0.006 C 
ENDBRANCH   8   9
BRANCH   8  11
ATOM     11  C   LIG d   1       0.235  85.336 109.480  0.00  0.00     0.028 C 
ATOM     12  C   LIG d   1      -1.083  85.875 110.058  0.00  0.00     0.006 C 
ENDBRANCH   8  11
ENDBRANCH   7   8
ENDBRANCH   1   7
BRANCH   6  13
ATOM     13  N   LIG d   1      -0.491  81.974 112.890  0.00  0.00    -0.311 N 
ATOM     14  C   LIG d   1      -1.808  81.826 113.023  0.00  0.00     0.210 C 
ATOM     15  C   LIG d   1      -2.318  81.844 114.467  0.00  0.00     0.109 C 
ATOM     16  O   LIG d   1      -2.598  81.648 112.084  0.00  0.00    -0.276 OA
ATOM     17  H   LIG d   1       0.078  82.080 113.707  0.00  0.00     0.149 HD
ENDBRANCH   6  13
BRANCH   5  18
ATOM     18  N   LIG d   1      -0.414  79.651 110.908  0.00  0.00     0.381 N 
ATOM     19  H   LIG d   1      -1.279  80.147 110.828  0.00  0.00    -0.090 HD
ATOM     20  H   LIG d   1      -0.477  79.032 111.697  0.00  0.00    -0.090 HD
ATOM     21  H   LIG d   1      -0.245  79.126 110.078  0.00  0.00    -0.090 HD
ENDBRANCH   5  18
BRANCH   3  22
ATOM     22  C   LIG d   1       3.591  81.536 109.079  0.00  0.00     0.382 C 
ATOM     23  O   LIG d   1       4.512  80.775 109.463  0.00  0.00    -0.241 OA
ATOM     24  O   LIG d   1       3.717  82.161 108.009  0.00  0.00    -0.241 OA
ENDBRANCH   3  22
TORSDOF 7
ENDMDL
MODEL 3
REMARK VINA RESULT:      -6.0      2.717      6.029
REMARK  7 active torsions:
REMARK  status: ('A' for Active; 'I' for Inactive)
REMARK    1  A    between atoms: C_2  and  C_3 
REMARK    2  A    between atoms: C_3  and  O_6 
REMARK    3  A    between atoms: C_3  and  C_4 
REMARK    4  A    between atoms: C_7  and  O_6 
REMARK    5  A    between atoms: C_9  and  C_10 
REMARK    6  A    between atoms: N_15  and  C_14 
REMARK    7  A    between atoms: N_20  and  C_19 
REMARK       I    between atoms: C_22  and  N_20 
ROOT
ATOM      1  C   LIG d   1       1.667  83.160 111.693  0.00  0.00     0.161 C 
ATOM      2  C   LIG d   1       1.548  84.539 111.931  0.00  0.00     0.016 C 
ATOM      3  C   LIG d   1       1.382  85.495 110.903  0.00  0.00     0.038 C 
ATOM      4  C   LIG d   1       1.170  85.119 109.568  0.00  0.00     0.028 C 
ATOM      5  C   LIG d   1       1.785  83.769 109.214  0.00  0.00    -0.047 C 
ATOM      6  C   LIG d   1       1.326  82.721 110.253  0.00  0.00     0.091 C 
ENDROOT
BRANCH   1   7
ATOM      7  O   LIG d   1       0.865  82.429 112.642  0.00  0.00    -0.368 OA
BRANCH   7   8
ATOM      8  C   LIG d   1      -0.497  82.891 112.815  0.00  0.00     0.119 C 
BRANCH   8   9
ATOM      9  C   LIG d   1      -0.690  83.218 114.309  0.00  0.00     0.028 C 
ATOM     10  C   LIG d   1      -0.945  84.714 114.554  0.00  0.00     0.006 C 
ENDBRANCH   8   9
BRANCH   8  11
ATOM     11  C   LIG d   1      -1.506  81.780 112.510  0.00  0.00     0.028 C 
ATOM     12  C   LIG d   1      -0.857  80.388 112.441  0.00  0.00     0.006 C 
ENDBRANCH   8  11
ENDBRANCH   7   8
ENDBRANCH   1   7
BRANCH   6  13
ATOM     13  N   LIG d   1       1.950  81.390 110.030  0.00  0.00    -0.311 N 
ATOM     14  C   LIG d   1       1.302  80.357 109.495  0.00  0.00     0.210 C 
ATOM     15  C   LIG d   1       2.125  79.071 109.371  0.00  0.00     0.109 C 
ATOM     16  O   LIG d   1       0.133  80.393 109.081  0.00  0.00    -0.276 OA
ATOM     17  H   LIG d   1       2.906  81.282 110.308  0.00  0.00     0.149 HD
ENDBRANCH   6  13
BRANCH   5  18
ATOM     18  N   LIG d   1       1.372  83.438 107.838  0.00  0.00     0.381 N 
ATOM     19  H   LIG d   1       2.154  83.524 107.219  0.00  0.00    -0.090 HD
ATOM     20  H   LIG d   1       0.665  84.090 107.545  0.00  0.00    -0.090 HD
ATOM     21  H   LIG d   1       1.012  82.510 107.803  0.00  0.00    -0.090 HD
ENDBRANCH   5  18
BRANCH   3  22
ATOM     22  C   LIG d   1       1.467  86.846 111.201  0.00  0.00     0.382 C 
ATOM     23  O   LIG d   1       2.585  87.372 111.418  0.00  0.00    -0.241 OA
ATOM     24  O   LIG d   1       0.435  87.538 111.300  0.00  0.00    -0.241 OA
ENDBRANCH   3  22
TORSDOF 7
ENDMDL
MODEL 4
REMARK VINA RESULT:      -5.5      2.780      4.971
REMARK  7 active torsions:
REMARK  status: ('A' for Active; 'I' for Inactive)
REMARK    1  A    between atoms: C_2  and  C_3 
REMARK    2  A    between atoms: C_3  and  O_6 
REMARK    3  A    between atoms: C_3  and  C_4 
REMARK    4  A    between atoms: C_7  and  O_6 
REMARK    5  A    between atoms: C_9  and  C_10 
REMARK    6  A    between atoms: N_15  and  C_14 
REMARK    7  A    between atoms: N_20  and  C_19 
REMARK       I    between atoms: C_22  and  N_20 
ROOT
ATOM      1  C   LIG d   1       1.979  82.755 111.365  0.00  0.00     0.161 C 
ATOM      2  C   LIG d   1       2.602  81.518 111.126  0.00  0.00     0.016 C 
ATOM      3  C   LIG d   1       2.811  80.989 109.831  0.00  0.00     0.038 C 
ATOM      4  C   LIG d   1       2.544  81.735 108.674  0.00  0.00     0.028 C 
ATOM      5  C   LIG d   1       1.449  82.780 108.865  0.00  0.00    -0.047 C 
ATOM      6  C   LIG d   1       1.782  83.632 110.111  0.00  0.00     0.091 C 
ENDROOT
BRANCH   1   7
ATOM      7  O   LIG d   1       2.706  83.481 112.375  0.00  0.00    -0.368 OA
BRANCH   7   8
ATOM      8  C   LIG d   1       2.072  83.574 113.674  0.00  0.00     0.119 C 
BRANCH   8   9
ATOM      9  C   LIG d   1       0.606  83.129 113.506  0.00  0.00     0.028 C 
ATOM     10  C   LIG d   1      -0.391  84.227 113.912  0.00  0.00     0.006 C 
ENDBRANCH   8   9
BRANCH   8  11
ATOM     11  C   LIG d   1       2.002  85.025 114.158  0.00  0.00     0.028 C 
ATOM     12  C   LIG d   1       3.301  85.803 113.897  0.00  0.00     0.006 C 
ENDBRANCH   8  11
ENDBRANCH   7   8
ENDBRANCH   1   7
BRANCH   6  13
ATOM     13  N   LIG d   1       0.719  84.624 110.419  0.00  0.00    -0.311 N 
ATOM     14  C   LIG d   1       0.964  85.913 110.651  0.00  0.00     0.210 C 
ATOM     15  C   LIG d   1      -0.273  86.759 110.969  0.00  0.00     0.109 C 
ATOM     16  O   LIG d   1       2.084  86.442 110.591  0.00  0.00    -0.276 OA
ATOM     17  H   LIG d   1      -0.223  84.287 110.456  0.00  0.00     0.149 HD
ENDBRANCH   6  13
BRANCH   5  18
ATOM     18  N   LIG d   1       1.370  83.574 107.625  0.00  0.00     0.381 N 
ATOM     19  H   LIG d   1       0.782  84.371 107.770  0.00  0.00    -0.090 HD
ATOM     20  H   LIG d   1       0.962  83.009 106.902  0.00  0.00    -0.090 HD
ATOM     21  H   LIG d   1       2.281  83.871 107.351  0.00  0.00    -0.090 HD
ENDBRANCH   5  18
BRANCH   3  22
ATOM     22  C   LIG d   1       3.254  79.684 109.686  0.00  0.00     0.382 C 
ATOM     23  O   LIG d   1       4.484  79.433 109.711  0.00  0.00    -0.241 OA
ATOM     24  O   LIG d   1       2.444  78.759 109.486  0.00  0.00    -0.241 OA
ENDBRANCH   3  22
TORSDOF 7
ENDMDL
MODEL 5
REMARK VINA RESULT:      -5.3      2.619      5.271
REMARK  7 active torsions:
REMARK  status: ('A' for Active; 'I' for Inactive)
REMARK    1  A    between atoms: C_2  and  C_3 
REMARK    2  A    between atoms: C_3  and  O_6 
REMARK    3  A    between atoms: C_3  and  C_4 
REMARK    4  A    between atoms: C_7  and  O_6 
REMARK    5  A    between atoms: C_9  and  C_10 
REMARK    6  A    between atoms: N_15  and  C_14 
REMARK    7  A    between atoms: N_20  and  C_19 
REMARK       I    between atoms: C_22  and  N_20 
ROOT
ATOM      1  C   LIG d   1       2.432  84.541 111.050  0.00  0.00     0.161 C 
ATOM      2  C   LIG d   1       3.186  83.357 111.111  0.00  0.00     0.016 C 
ATOM      3  C   LIG d   1       3.290  82.446 110.035  0.00  0.00     0.038 C 
ATOM      4  C   LIG d   1       2.766  82.734 108.766  0.00  0.00     0.028 C 
ATOM      5  C   LIG d   1       1.571  83.680 108.804  0.00  0.00    -0.047 C 
ATOM      6  C   LIG d   1       1.945  84.927 109.638  0.00  0.00     0.091 C 
ENDROOT
BRANCH   1   7
ATOM      7  O   LIG d   1       3.179  85.626 111.636  0.00  0.00    -0.368 OA
BRANCH   7   8
ATOM      8  C   LIG d   1       2.608  86.223 112.827  0.00  0.00     0.119 C 
BRANCH   8   9
ATOM      9  C   LIG d   1       2.605  87.750 112.622  0.00  0.00     0.028 C 
ATOM     10  C   LIG d   1       3.749  88.446 113.380  0.00  0.00     0.006 C 
ENDBRANCH   8   9
BRANCH   8  11
ATOM     11  C   LIG d   1       3.495  85.980 114.052  0.00  0.00     0.028 C 
ATOM     12  C   LIG d   1       3.431  84.529 114.554  0.00  0.00     0.006 C 
ENDBRANCH   8  11
ENDBRANCH   7   8
ENDBRANCH   1   7
BRANCH   6  13
ATOM     13  N   LIG d   1       0.805  85.866 109.796  0.00  0.00    -0.311 N 
ATOM     14  C   LIG d   1      -0.349  85.529 110.371  0.00  0.00     0.210 C 
ATOM     15  C   LIG d   1      -1.400  86.642 110.414  0.00  0.00     0.109 C 
ATOM     16  O   LIG d   1      -0.589  84.423 110.877  0.00  0.00    -0.276 OA
ATOM     17  H   LIG d   1       0.925  86.795 109.441  0.00  0.00     0.149 HD
ENDBRANCH   6  13
BRANCH   5  18
ATOM     18  N   LIG d   1       1.214  84.003 107.410  0.00  0.00     0.381 N 
ATOM     19  H   LIG d   1       0.545  83.342 107.069  0.00  0.00    -0.090 HD
ATOM     20  H   LIG d   1       2.039  83.940 106.839  0.00  0.00    -0.090 HD
ATOM     21  H   LIG d   1       0.836  84.924 107.359  0.00  0.00    -0.090 HD
ENDBRANCH   5  18
BRANCH   3  22
ATOM     22  C   LIG d   1       3.890  81.212 110.235  0.00  0.00     0.382 C 
ATOM     23  O   LIG d   1       4.653  80.736 109.361  0.00  0.00    -0.241 OA
ATOM     24  O   LIG d   1       3.642  80.548 111.260  0.00  0.00    -0.241 OA
ENDBRANCH   3  22
TORSDOF 7
ENDMDL
MODEL 6
REMARK VINA RESULT:      -5.2      2.777      5.883
REMARK  7 active torsions:
REMARK  status: ('A' for Active; 'I' for Inactive)
REMARK    1  A    between atoms: C_2  and  C_3 
REMARK    2  A    between atoms: C_3  and  O_6 
REMARK    3  A    between atoms: C_3  and  C_4 
REMARK    4  A    between atoms: C_7  and  O_6 
REMARK    5  A    between atoms: C_9  and  C_10 
REMARK    6  A    between atoms: N_15  and  C_14 
REMARK    7  A    between atoms: N_20  and  C_19 
REMARK       I    between atoms: C_22  and  N_20 
ROOT
ATOM      1  C   LIG d   1       2.279  82.571 111.924  0.00  0.00     0.161 C 
ATOM      2  C   LIG d   1       2.496  83.870 112.413  0.00  0.00     0.016 C 
ATOM      3  C   LIG d   1       3.274  84.836 111.735  0.00  0.00     0.038 C 
ATOM      4  C   LIG d   1       3.767  84.616 110.441  0.00  0.00     0.028 C 
ATOM      5  C   LIG d   1       3.999  83.143 110.123  0.00  0.00    -0.047 C 
ATOM      6  C   LIG d   1       2.717  82.349 110.461  0.00  0.00     0.091 C 
ENDROOT
BRANCH   1   7
ATOM      7  O   LIG d   1       0.894  82.210 112.092  0.00  0.00    -0.368 OA
BRANCH   7   8
ATOM      8  C   LIG d   1      -0.045  83.310 112.184  0.00  0.00     0.119 C 
BRANCH   8   9
ATOM      9  C   LIG d   1      -1.173  82.877 113.141  0.00  0.00     0.028 C 
ATOM     10  C   LIG d   1      -1.813  81.542 112.727  0.00  0.00     0.006 C 
ENDBRANCH   8   9
BRANCH   8  11
ATOM     11  C   LIG d   1      -0.731  83.571 110.840  0.00  0.00     0.028 C 
ATOM     12  C   LIG d   1      -0.474  84.989 110.306  0.00  0.00     0.006 C 
ENDBRANCH   8  11
ENDBRANCH   7   8
ENDBRANCH   1   7
BRANCH   6  13
ATOM     13  N   LIG d   1       2.886  80.886 110.258  0.00  0.00    -0.311 N 
ATOM     14  C   LIG d   1       2.069  80.151 109.505  0.00  0.00     0.210 C 
ATOM     15  C   LIG d   1       2.411  78.659 109.447  0.00  0.00     0.109 C 
ATOM     16  O   LIG d   1       1.114  80.598 108.854  0.00  0.00    -0.276 OA
ATOM     17  H   LIG d   1       3.655  80.447 110.726  0.00  0.00     0.149 HD
ENDBRANCH   6  13
BRANCH   5  18
ATOM     18  N   LIG d   1       4.380  83.048 108.701  0.00  0.00     0.381 N 
ATOM     19  H   LIG d   1       4.824  83.897 108.412  0.00  0.00    -0.090 HD
ATOM     20  H   LIG d   1       3.550  82.923 108.149  0.00  0.00    -0.090 HD
ATOM     21  H   LIG d   1       4.998  82.278 108.564  0.00  0.00    -0.090 HD
ENDBRANCH   5  18
BRANCH   3  22
ATOM     22  C   LIG d   1       3.600  86.025 112.371  0.00  0.00     0.382 C 
ATOM     23  O   LIG d   1       4.186  86.935 111.737  0.00  0.00    -0.241 OA
ATOM     24  O   LIG d   1       3.355  86.181 113.582  0.00  0.00    -0.241 OA
ENDBRANCH   3  22
TORSDOF 7
ENDMDL
MODEL 7
REMARK VINA RESULT:      -5.1      1.700      2.188
REMARK  7 active torsions:
REMARK  status: ('A' for Active; 'I' for Inactive)
REMARK    1  A    between atoms: C_2  and  C_3 
REMARK    2  A    between atoms: C_3  and  O_6 
REMARK    3  A    between atoms: C_3  and  C_4 
REMARK    4  A    between atoms: C_7  and  O_6 
REMARK    5  A    between atoms: C_9  and  C_10 
REMARK    6  A    between atoms: N_15  and  C_14 
REMARK    7  A    between atoms: N_20  and  C_19 
REMARK       I    between atoms: C_22  and  N_20 
ROOT
ATOM      1  C   LIG d   1       1.943  83.123 111.838  0.00  0.00     0.161 C 
ATOM      2  C   LIG d   1       0.923  82.216 112.173  0.00  0.00     0.016 C 
ATOM      3  C   LIG d   1      -0.454  82.528 112.090  0.00  0.00     0.038 C 
ATOM      4  C   LIG d   1      -0.909  83.725 111.518  0.00  0.00     0.028 C 
ATOM      5  C   LIG d   1       0.090  84.871 111.634  0.00  0.00    -0.047 C 
ATOM      6  C   LIG d   1       1.463  84.394 111.107  0.00  0.00     0.091 C 
ENDROOT
BRANCH   1   7
ATOM      7  O   LIG d   1       2.957  82.453 111.064  0.00  0.00    -0.368 OA
BRANCH   7   8
ATOM      8  C   LIG d   1       2.488  81.669 109.940  0.00  0.00     0.119 C 
BRANCH   8   9
ATOM      9  C   LIG d   1       3.222  80.315 109.980  0.00  0.00     0.028 C 
ATOM     10  C   LIG d   1       2.345  79.157 109.475  0.00  0.00     0.006 C 
ENDBRANCH   8   9
BRANCH   8  11
ATOM     11  C   LIG d   1       2.890  82.309 108.608  0.00  0.00     0.028 C 
ATOM     12  C   LIG d   1       4.398  82.206 108.329  0.00  0.00     0.006 C 
ENDBRANCH   8  11
ENDBRANCH   7   8
ENDBRANCH   1   7
BRANCH   6  13
ATOM     13  N   LIG d   1       2.520  85.428 111.263  0.00  0.00    -0.311 N 
ATOM     14  C   LIG d   1       2.806  86.015 112.424  0.00  0.00     0.210 C 
ATOM     15  C   LIG d   1       3.917  87.068 112.359  0.00  0.00     0.109 C 
ATOM     16  O   LIG d   1       2.267  85.741 113.507  0.00  0.00    -0.276 OA
ATOM     17  H   LIG d   1       3.028  85.688 110.440  0.00  0.00     0.149 HD
ENDBRANCH   6  13
BRANCH   5  18
ATOM     18  N   LIG d   1      -0.453  86.015 110.878  0.00  0.00     0.381 N 
ATOM     19  H   LIG d   1      -1.255  85.725 110.355  0.00  0.00    -0.090 HD
ATOM     20  H   LIG d   1       0.245  86.339 110.232  0.00  0.00    -0.090 HD
ATOM     21  H   LIG d   1      -0.703  86.749 111.504  0.00  0.00    -0.090 HD
ENDBRANCH   5  18
BRANCH   3  22
ATOM     22  C   LIG d   1      -1.390  81.653 112.619  0.00  0.00     0.382 C 
ATOM     23  O   LIG d   1      -1.034  80.779 113.446  0.00  0.00    -0.241 OA
ATOM     24  O   LIG d   1      -2.577  81.697 112.245  0.00  0.00    -0.241 OA
ENDBRANCH   3  22
TORSDOF 7
ENDMDL
MODEL 8
REMARK VINA RESULT:      -4.7      2.599      5.926
REMARK  7 active torsions:
REMARK  status: ('A' for Active; 'I' for Inactive)
REMARK    1  A    between atoms: C_2  and  C_3 
REMARK    2  A    between atoms: C_3  and  O_6 
REMARK    3  A    between atoms: C_3  and  C_4 
REMARK    4  A    between atoms: C_7  and  O_6 
REMARK    5  A    between atoms: C_9  and  C_10 
REMARK    6  A    between atoms: N_15  and  C_14 
REMARK    7  A    between atoms: N_20  and  C_19 
REMARK       I    between atoms: C_22  and  N_20 
ROOT
ATOM      1  C   LIG d   1       0.943  83.050 111.559  0.00  0.00     0.161 C 
ATOM      2  C   LIG d   1       1.344  84.310 112.035  0.00  0.00     0.016 C 
ATOM      3  C   LIG d   1       1.706  85.383 111.189  0.00  0.00     0.038 C 
ATOM      4  C   LIG d   1       1.544  85.315 109.797  0.00  0.00     0.028 C 
ATOM      5  C   LIG d   1       1.623  83.896 109.246  0.00  0.00    -0.047 C 
ATOM      6  C   LIG d   1       0.655  82.993 110.045  0.00  0.00     0.091 C 
ENDROOT
BRANCH   1   7
ATOM      7  O   LIG d   1      -0.200  82.587 112.305  0.00  0.00    -0.368 OA
BRANCH   7   8
ATOM      8  C   LIG d   1      -0.001  81.394 113.102  0.00  0.00     0.119 C 
BRANCH   8   9
ATOM      9  C   LIG d   1      -0.623  80.213 112.330  0.00  0.00     0.028 C 
ATOM     10  C   LIG d   1      -1.548  79.358 113.213  0.00  0.00     0.006 C 
ENDBRANCH   8   9
BRANCH   8  11
ATOM     11  C   LIG d   1      -0.775  81.469 114.421  0.00  0.00     0.028 C 
ATOM     12  C   LIG d   1      -1.784  82.627 114.455  0.00  0.00     0.006 C 
ENDBRANCH   8  11
ENDBRANCH   7   8
ENDBRANCH   1   7
BRANCH   6  13
ATOM     13  N   LIG d   1       0.731  81.569 109.626  0.00  0.00    -0.311 N 
ATOM     14  C   LIG d   1       1.877  80.941 109.369  0.00  0.00     0.210 C 
ATOM     15  C   LIG d   1       1.730  79.480 108.932  0.00  0.00     0.109 C 
ATOM     16  O   LIG d   1       3.003  81.446 109.492  0.00  0.00    -0.276 OA
ATOM     17  H   LIG d   1      -0.134  81.075 109.531  0.00  0.00     0.149 HD
ENDBRANCH   6  13
BRANCH   5  18
ATOM     18  N   LIG d   1       1.301  83.957 107.807  0.00  0.00     0.381 N 
ATOM     19  H   LIG d   1       1.181  83.032 107.447  0.00  0.00    -0.090 HD
ATOM     20  H   LIG d   1       2.068  84.388 107.321  0.00  0.00    -0.090 HD
ATOM     21  H   LIG d   1       0.470  84.487 107.666  0.00  0.00    -0.090 HD
ENDBRANCH   5  18
BRANCH   3  22
ATOM     22  C   LIG d   1       2.273  86.526 111.731  0.00  0.00     0.382 C 
ATOM     23  O   LIG d   1       1.625  87.217 112.554  0.00  0.00    -0.241 OA
ATOM     24  O   LIG d   1       3.406  86.899 111.375  0.00  0.00    -0.241 OA
ENDBRANCH   3  22
TORSDOF 7
ENDMDL
MODEL 9
REMARK VINA RESULT:      -4.3     15.993     17.441
REMARK  7 active torsions:
REMARK  status: ('A' for Active; 'I' for Inactive)
REMARK    1  A    between atoms: C_2  and  C_3 
REMARK    2  A    between atoms: C_3  and  O_6 
REMARK    3  A    between atoms: C_3  and  C_4 
REMARK    4  A    between atoms: C_7  and  O_6 
REMARK    5  A    between atoms: C_9  and  C_10 
REMARK    6  A    between atoms: N_15  and  C_14 
REMARK    7  A    between atoms: N_20  and  C_19 
REMARK       I    between atoms: C_22  and  N_20 
ROOT
ATOM      1  C   LIG d   1      12.028  97.384 110.201  0.00  0.00     0.161 C 
ATOM      2  C   LIG d   1      11.273  98.374 109.551  0.00  0.00     0.016 C 
ATOM      3  C   LIG d   1      10.158  99.015 110.140  0.00  0.00     0.038 C 
ATOM      4  C   LIG d   1       9.813  98.814 111.484  0.00  0.00     0.028 C 
ATOM      5  C   LIG d   1      10.237  97.452 112.022  0.00  0.00    -0.047 C 
ATOM      6  C   LIG d   1      11.735  97.232 111.708  0.00  0.00     0.091 C 
ENDROOT
BRANCH   1   7
ATOM      7  O   LIG d   1      13.434  97.621 109.985  0.00  0.00    -0.368 OA
BRANCH   7   8
ATOM      8  C   LIG d   1      13.934  97.324 108.659  0.00  0.00     0.119 C 
BRANCH   8   9
ATOM      9  C   LIG d   1      14.913  96.140 108.788  0.00  0.00     0.028 C 
ATOM     10  C   LIG d   1      15.354  95.900 110.242  0.00  0.00     0.006 C 
ENDBRANCH   8   9
BRANCH   8  11
ATOM     11  C   LIG d   1      14.770  98.482 108.105  0.00  0.00     0.028 C 
ATOM     12  C   LIG d   1      14.817  99.689 109.055  0.00  0.00     0.006 C 
ENDBRANCH   8  11
ENDBRANCH   7   8
ENDBRANCH   1   7
BRANCH   6  13
ATOM     13  N   LIG d   1      12.210  95.887 112.125  0.00  0.00    -0.311 N 
ATOM     14  C   LIG d   1      12.799  95.649 113.296  0.00  0.00     0.210 C 
ATOM     15  C   LIG d   1      13.231  94.196 113.518  0.00  0.00     0.109 C 
ATOM     16  O   LIG d   1      12.977  96.496 114.184  0.00  0.00    -0.276 OA
ATOM     17  H   LIG d   1      12.078  95.135 111.478  0.00  0.00     0.149 HD
ENDBRANCH   6  13
BRANCH   5  18
ATOM     18  N   LIG d   1       9.940  97.430 113.467  0.00  0.00     0.381 N 
ATOM     19  H   LIG d   1      10.673  96.957 113.956  0.00  0.00    -0.090 HD
ATOM     20  H   LIG d   1       9.084  96.925 113.615  0.00  0.00    -0.090 HD
ATOM     21  H   LIG d   1       9.849  98.361 113.810  0.00  0.00    -0.090 HD
ENDBRANCH   5  18
BRANCH   3  22
ATOM     22  C   LIG d   1       9.352  99.837 109.368  0.00  0.00     0.382 C 
ATOM     23  O   LIG d   1       9.280 101.063 109.624  0.00  0.00    -0.241 OA
ATOM     24  O   LIG d   1       8.661  99.361 108.448  0.00  0.00    -0.241 OA
ENDBRANCH   3  22
TORSDOF 7
ENDMDL
