MODEL 1
REMARK VINA RESULT:      -6.5      0.000      0.000
REMARK  7 active torsions:
REMARK  status: ('A' for Active; 'I' for Inactive)
REMARK    1  A    between atoms: C_2  and  C_3 
REMARK    2  A    between atoms: C_3  and  O_6 
REMARK    3  A    between atoms: C_3  and  C_4 
REMARK    4  A    between atoms: C_7  and  O_6 
REMARK    5  A    between atoms: C_9  and  C_10 
REMARK    6  A    between atoms: N_15  and  C_14 
REMARK    7  A    between atoms: N_20  and  C_19 
REMARK       I    between atoms: C_22  and  N_20 
ROOT
ATOM      1  C   LIG d   1       1.203  83.855 109.459  0.00  0.00     0.161 C 
ATOM      2  C   LIG d   1       0.936  85.126 109.994  0.00  0.00     0.016 C 
ATOM      3  C   LIG d   1       0.157  85.333 111.156  0.00  0.00     0.038 C 
ATOM      4  C   LIG d   1      -0.285  84.266 111.952  0.00  0.00     0.028 C 
ATOM      5  C   LIG d   1      -0.468  82.966 111.176  0.00  0.00    -0.047 C 
ATOM      6  C   LIG d   1       0.822  82.674 110.376  0.00  0.00     0.091 C 
ENDROOT
BRANCH   1   7
ATOM      7  O   LIG d   1       2.590  83.767 109.078  0.00  0.00    -0.368 OA
BRANCH   7   8
ATOM      8  C   LIG d   1       3.535  83.561 110.157  0.00  0.00     0.119 C 
BRANCH   8   9
ATOM      9  C   LIG d   1       4.242  84.906 110.416  0.00  0.00     0.028 C 
ATOM     10  C   LIG d   1       4.115  85.363 111.879  0.00  0.00     0.006 C 
ENDBRANCH   8   9
BRANCH   8  11
ATOM     11  C   LIG d   1       4.647  82.592 109.746  0.00  0.00     0.028 C 
ATOM     12  C   LIG d   1       4.423  81.983 108.353  0.00  0.00     0.006 C 
ENDBRANCH   8  11
ENDBRANCH   7   8
ENDBRANCH   1   7
BRANCH   6  13
ATOM     13  N   LIG d   1       0.698  81.464 109.523  0.00  0.00    -0.311 N 
ATOM     14  C   LIG d   1       1.439  80.370 109.689  0.00  0.00     0.210 C 
ATOM     15  C   LIG d   1       1.165  79.244 108.688  0.00  0.00     0.109 C 
ATOM     16  O   LIG d   1       2.276  80.213 110.591  0.00  0.00    -0.276 OA
ATOM     17  H   LIG d   1       0.021  81.493 108.785  0.00  0.00     0.149 HD
ENDBRANCH   6  13
BRANCH   5  18
ATOM     18  N   LIG d   1      -0.797  81.908 112.150  0.00  0.00     0.381 N 
ATOM     19  H   LIG d   1       0.043  81.466 112.465  0.00  0.00    -0.090 HD
ATOM     20  H   LIG d   1      -1.367  81.216 111.697  0.00  0.00    -0.090 HD
ATOM     21  H   LIG d   1      -1.287  82.298 112.925  0.00  0.00    -0.090 HD
ENDBRANCH   5  18
BRANCH   3  22
ATOM     22  C   LIG d   1      -0.221  86.620 111.509  0.00  0.00     0.382 C 
ATOM     23  O   LIG d   1       0.651  87.503 111.687  0.00  0.00    -0.241 OA
ATOM     24  O   LIG d   1      -1.421  86.897 111.697  0.00  0.00    -0.241 OA
ENDBRANCH   3  22
TORSDOF 7
ENDMDL
MODEL 2
REMARK VINA RESULT:      -6.3      2.402      4.785
REMARK  7 active torsions:
REMARK  status: ('A' for Active; 'I' for Inactive)
REMARK    1  A    between atoms: C_2  and  C_3 
REMARK    2  A    between atoms: C_3  and  O_6 
REMARK    3  A    between atoms: C_3  and  C_4 
REMARK    4  A    between atoms: C_7  and  O_6 
REMARK    5  A    between atoms: C_9  and  C_10 
REMARK    6  A    between atoms: N_15  and  C_14 
REMARK    7  A    between atoms: N_20  and  C_19 
REMARK       I    between atoms: C_22  and  N_20 
ROOT
ATOM      1  C   LIG d   1       1.439  81.797 111.863  0.00  0.00     0.161 C 
ATOM      2  C   LIG d   1       2.541  82.229 111.107  0.00  0.00     0.016 C 
ATOM      3  C   LIG d   1       2.676  81.987 109.720  0.00  0.00     0.038 C 
ATOM      4  C   LIG d   1       1.638  81.425 108.962  0.00  0.00     0.028 C 
ATOM      5  C   LIG d   1       0.718  80.519 109.772  0.00  0.00    -0.047 C 
ATOM      6  C   LIG d   1       0.247  81.280 111.032  0.00  0.00     0.091 C 
ENDROOT
BRANCH   1   7
ATOM      7  O   LIG d   1       1.013  82.851 112.750  0.00  0.00    -0.368 OA
BRANCH   7   8
ATOM      8  C   LIG d   1       1.193  84.204 112.265  0.00  0.00     0.119 C 
BRANCH   8   9
ATOM      9  C   LIG d   1       1.704  85.054 113.444  0.00  0.00     0.028 C 
ATOM     10  C   LIG d   1       1.103  86.470 113.451  0.00  0.00     0.006 C 
ENDBRANCH   8   9
BRANCH   8  11
ATOM     11  C   LIG d   1      -0.144  84.834 111.861  0.00  0.00     0.028 C 
ATOM     12  C   LIG d   1      -0.332  84.906 110.337  0.00  0.00     0.006 C 
ENDBRANCH   8  11
ENDBRANCH   7   8
ENDBRANCH   1   7
BRANCH   6  13
ATOM     13  N   LIG d   1      -0.591  80.436 111.924  0.00  0.00    -0.311 N 
ATOM     14  C   LIG d   1      -1.695  80.877 112.526  0.00  0.00     0.210 C 
ATOM     15  C   LIG d   1      -2.398  79.850 113.419  0.00  0.00     0.109 C 
ATOM     16  O   LIG d   1      -2.175  82.010 112.380  0.00  0.00    -0.276 OA
ATOM     17  H   LIG d   1      -0.291  79.493 112.074  0.00  0.00     0.149 HD
ENDBRANCH   6  13
BRANCH   5  18
ATOM     18  N   LIG d   1      -0.394  80.112 108.893  0.00  0.00     0.381 N 
ATOM     19  H   LIG d   1      -1.209  79.925 109.442  0.00  0.00    -0.090 HD
ATOM     20  H   LIG d   1      -0.137  79.267 108.413  0.00  0.00    -0.090 HD
ATOM     21  H   LIG d   1      -0.588  80.832 108.232  0.00  0.00    -0.090 HD
ENDBRANCH   5  18
BRANCH   3  22
ATOM     22  C   LIG d   1       3.875  82.273 109.086  0.00  0.00     0.382 C 
ATOM     23  O   LIG d   1       4.024  81.994 107.872  0.00  0.00    -0.241 OA
ATOM     24  O   LIG d   1       4.825  82.767 109.723  0.00  0.00    -0.241 OA
ENDBRANCH   3  22
TORSDOF 7
ENDMDL
MODEL 3
REMARK VINA RESULT:      -6.2      2.702      3.630
REMARK  7 active torsions:
REMARK  status: ('A' for Active; 'I' for Inactive)
REMARK    1  A    between atoms: C_2  and  C_3 
REMARK    2  A    between atoms: C_3  and  O_6 
REMARK    3  A    between atoms: C_3  and  C_4 
REMARK    4  A    between atoms: C_7  and  O_6 
REMARK    5  A    between atoms: C_9  and  C_10 
REMARK    6  A    between atoms: N_15  and  C_14 
REMARK    7  A    between atoms: N_20  and  C_19 
REMARK       I    between atoms: C_22  and  N_20 
ROOT
ATOM      1  C   LIG d   1       4.082  85.326 110.731  0.00  0.00     0.161 C 
ATOM      2  C   LIG d   1       4.377  86.369 111.626  0.00  0.00     0.016 C 
ATOM      3  C   LIG d   1       3.402  87.259 112.132  0.00  0.00     0.038 C 
ATOM      4  C   LIG d   1       2.033  87.073 111.893  0.00  0.00     0.028 C 
ATOM      5  C   LIG d   1       1.740  86.337 110.590  0.00  0.00    -0.047 C 
ATOM      6  C   LIG d   1       2.578  85.039 110.547  0.00  0.00     0.091 C 
ENDROOT
BRANCH   1   7
ATOM      7  O   LIG d   1       4.776  84.128 111.132  0.00  0.00    -0.368 OA
BRANCH   7   8
ATOM      8  C   LIG d   1       4.070  83.260 112.052  0.00  0.00     0.119 C 
BRANCH   8   9
ATOM      9  C   LIG d   1       4.880  83.217 113.362  0.00  0.00     0.028 C 
ATOM     10  C   LIG d   1       4.282  84.123 114.452  0.00  0.00     0.006 C 
ENDBRANCH   8   9
BRANCH   8  11
ATOM     11  C   LIG d   1       4.043  81.815 111.545  0.00  0.00     0.028 C 
ATOM     12  C   LIG d   1       4.700  81.655 110.165  0.00  0.00     0.006 C 
ENDBRANCH   8  11
ENDBRANCH   7   8
ENDBRANCH   1   7
BRANCH   6  13
ATOM     13  N   LIG d   1       2.415  84.300 109.268  0.00  0.00    -0.311 N 
ATOM     14  C   LIG d   1       1.578  83.275 109.114  0.00  0.00     0.210 C 
ATOM     15  C   LIG d   1       1.579  82.643 107.719  0.00  0.00     0.109 C 
ATOM     16  O   LIG d   1       0.813  82.849 109.992  0.00  0.00    -0.276 OA
ATOM     17  H   LIG d   1       2.975  84.599 108.494  0.00  0.00     0.149 HD
ENDBRANCH   6  13
BRANCH   5  18
ATOM     18  N   LIG d   1       0.287  86.089 110.534  0.00  0.00     0.381 N 
ATOM     19  H   LIG d   1      -0.207  86.893 110.868  0.00  0.00    -0.090 HD
ATOM     20  H   LIG d   1       0.066  85.313 111.134  0.00  0.00    -0.090 HD
ATOM     21  H   LIG d   1       0.011  85.885 109.599  0.00  0.00    -0.090 HD
ENDBRANCH   5  18
BRANCH   3  22
ATOM     22  C   LIG d   1       3.799  88.375 112.853  0.00  0.00     0.382 C 
ATOM     23  O   LIG d   1       3.017  88.894 113.686  0.00  0.00    -0.241 OA
ATOM     24  O   LIG d   1       4.912  88.895 112.651  0.00  0.00    -0.241 OA
ENDBRANCH   3  22
TORSDOF 7
ENDMDL
MODEL 4
REMARK VINA RESULT:      -6.1      2.767      4.509
REMARK  7 active torsions:
REMARK  status: ('A' for Active; 'I' for Inactive)
REMARK    1  A    between atoms: C_2  and  C_3 
REMARK    2  A    between atoms: C_3  and  O_6 
REMARK    3  A    between atoms: C_3  and  C_4 
REMARK    4  A    between atoms: C_7  and  O_6 
REMARK    5  A    between atoms: C_9  and  C_10 
REMARK    6  A    between atoms: N_15  and  C_14 
REMARK    7  A    between atoms: N_20  and  C_19 
REMARK       I    between atoms: C_22  and  N_20 
ROOT
ATOM      1  C   LIG d   1       2.855  85.020 111.140  0.00  0.00     0.161 C 
ATOM      2  C   LIG d   1       3.191  86.373 111.316  0.00  0.00     0.016 C 
ATOM      3  C   LIG d   1       4.116  86.825 112.286  0.00  0.00     0.038 C 
ATOM      4  C   LIG d   1       4.884  85.934 113.050  0.00  0.00     0.028 C 
ATOM      5  C   LIG d   1       4.213  84.581 113.260  0.00  0.00    -0.047 C 
ATOM      6  C   LIG d   1       3.766  84.024 111.888  0.00  0.00     0.091 C 
ENDROOT
BRANCH   1   7
ATOM      7  O   LIG d   1       2.817  84.705 109.734  0.00  0.00    -0.368 OA
BRANCH   7   8
ATOM      8  C   LIG d   1       1.568  84.165 109.236  0.00  0.00     0.119 C 
BRANCH   8   9
ATOM      9  C   LIG d   1       1.878  83.417 107.924  0.00  0.00     0.028 C 
ATOM     10  C   LIG d   1       2.928  82.309 108.114  0.00  0.00     0.006 C 
ENDBRANCH   8   9
BRANCH   8  11
ATOM     11  C   LIG d   1       0.594  85.280 108.846  0.00  0.00     0.028 C 
ATOM     12  C   LIG d   1      -0.511  85.499 109.892  0.00  0.00     0.006 C 
ENDBRANCH   8  11
ENDBRANCH   7   8
ENDBRANCH   1   7
BRANCH   6  13
ATOM     13  N   LIG d   1       3.025  82.742 112.012  0.00  0.00    -0.311 N 
ATOM     14  C   LIG d   1       1.842  82.634 112.614  0.00  0.00     0.210 C 
ATOM     15  C   LIG d   1       1.261  81.217 112.648  0.00  0.00     0.109 C 
ATOM     16  O   LIG d   1       1.204  83.582 113.096  0.00  0.00    -0.276 OA
ATOM     17  H   LIG d   1       3.456  81.927 111.621  0.00  0.00     0.149 HD
ENDBRANCH   6  13
BRANCH   5  18
ATOM     18  N   LIG d   1       5.179  83.706 113.951  0.00  0.00     0.381 N 
ATOM     19  H   LIG d   1       5.254  82.834 113.466  0.00  0.00    -0.090 HD
ATOM     20  H   LIG d   1       4.844  83.523 114.881  0.00  0.00    -0.090 HD
ATOM     21  H   LIG d   1       6.071  84.149 113.992  0.00  0.00    -0.090 HD
ENDBRANCH   5  18
BRANCH   3  22
ATOM     22  C   LIG d   1       4.249  88.184 112.527  0.00  0.00     0.382 C 
ATOM     23  O   LIG d   1       3.227  88.900 112.658  0.00  0.00    -0.241 OA
ATOM     24  O   LIG d   1       5.377  88.710 112.572  0.00  0.00    -0.241 OA
ENDBRANCH   3  22
TORSDOF 7
ENDMDL
MODEL 5
REMARK VINA RESULT:      -6.0      2.696      4.878
REMARK  7 active torsions:
REMARK  status: ('A' for Active; 'I' for Inactive)
REMARK    1  A    between atoms: C_2  and  C_3 
REMARK    2  A    between atoms: C_3  and  O_6 
REMARK    3  A    between atoms: C_3  and  C_4 
REMARK    4  A    between atoms: C_7  and  O_6 
REMARK    5  A    between atoms: C_9  and  C_10 
REMARK    6  A    between atoms: N_15  and  C_14 
REMARK    7  A    between atoms: N_20  and  C_19 
REMARK       I    between atoms: C_22  and  N_20 
ROOT
ATOM      1  C   LIG d   1       2.573  83.546 111.964  0.00  0.00     0.161 C 
ATOM      2  C   LIG d   1       1.554  82.594 111.789  0.00  0.00     0.016 C 
ATOM      3  C   LIG d   1       0.178  82.919 111.782  0.00  0.00     0.038 C 
ATOM      4  C   LIG d   1      -0.270  84.249 111.799  0.00  0.00     0.028 C 
ATOM      5  C   LIG d   1       0.701  85.206 112.483  0.00  0.00    -0.047 C 
ATOM      6  C   LIG d   1       2.108  85.015 111.872  0.00  0.00     0.091 C 
ENDROOT
BRANCH   1   7
ATOM      7  O   LIG d   1       3.639  83.299 111.026  0.00  0.00    -0.368 OA
BRANCH   7   8
ATOM      8  C   LIG d   1       3.344  82.364 109.958  0.00  0.00     0.119 C 
BRANCH   8   9
ATOM      9  C   LIG d   1       4.600  81.498 109.741  0.00  0.00     0.028 C 
ATOM     10  C   LIG d   1       4.290  79.993 109.784  0.00  0.00     0.006 C 
ENDBRANCH   8   9
BRANCH   8  11
ATOM     11  C   LIG d   1       3.118  83.090 108.629  0.00  0.00     0.028 C 
ATOM     12  C   LIG d   1       1.698  82.893 108.076  0.00  0.00     0.006 C 
ENDBRANCH   8  11
ENDBRANCH   7   8
ENDBRANCH   1   7
BRANCH   6  13
ATOM     13  N   LIG d   1       3.136  85.854 112.542  0.00  0.00    -0.311 N 
ATOM     14  C   LIG d   1       3.407  87.107 112.182  0.00  0.00     0.210 C 
ATOM     15  C   LIG d   1       4.516  87.786 112.992  0.00  0.00     0.109 C 
ATOM     16  O   LIG d   1       2.812  87.731 111.291  0.00  0.00    -0.276 OA
ATOM     17  H   LIG d   1       3.644  85.436 113.297  0.00  0.00     0.149 HD
ENDBRANCH   6  13
BRANCH   5  18
ATOM     18  N   LIG d   1       0.176  86.573 112.307  0.00  0.00     0.381 N 
ATOM     19  H   LIG d   1       0.672  87.035 111.571  0.00  0.00    -0.090 HD
ATOM     20  H   LIG d   1       0.321  87.089 113.157  0.00  0.00    -0.090 HD
ATOM     21  H   LIG d   1      -0.797  86.540 112.093  0.00  0.00    -0.090 HD
ENDBRANCH   5  18
BRANCH   3  22
ATOM     22  C   LIG d   1      -0.767  81.905 111.799  0.00  0.00     0.382 C 
ATOM     23  O   LIG d   1      -1.918  82.128 112.247  0.00  0.00    -0.241 OA
ATOM     24  O   LIG d   1      -0.471  80.759 111.411  0.00  0.00    -0.241 OA
ENDBRANCH   3  22
TORSDOF 7
ENDMDL
MODEL 6
REMARK VINA RESULT:      -5.8      2.147      5.414
REMARK  7 active torsions:
REMARK  status: ('A' for Active; 'I' for Inactive)
REMARK    1  A    between atoms: C_2  and  C_3 
REMARK    2  A    between atoms: C_3  and  O_6 
REMARK    3  A    between atoms: C_3  and  C_4 
REMARK    4  A    between atoms: C_7  and  O_6 
REMARK    5  A    between atoms: C_9  and  C_10 
REMARK    6  A    between atoms: N_15  and  C_14 
REMARK    7  A    between atoms: N_20  and  C_19 
REMARK       I    between atoms: C_22  and  N_20 
ROOT
ATOM      1  C   LIG d   1       2.069  82.820 111.786  0.00  0.00     0.161 C 
ATOM      2  C   LIG d   1       2.806  81.691 111.392  0.00  0.00     0.016 C 
ATOM      3  C   LIG d   1       3.017  81.333 110.040  0.00  0.00     0.038 C 
ATOM      4  C   LIG d   1       2.631  82.169 108.983  0.00  0.00     0.028 C 
ATOM      5  C   LIG d   1       1.443  83.064 109.321  0.00  0.00    -0.047 C 
ATOM      6  C   LIG d   1       1.735  83.805 110.646  0.00  0.00     0.091 C 
ENDROOT
BRANCH   1   7
ATOM      7  O   LIG d   1       2.757  83.503 112.853  0.00  0.00    -0.368 OA
BRANCH   7   8
ATOM      8  C   LIG d   1       3.992  84.169 112.492  0.00  0.00     0.119 C 
BRANCH   8   9
ATOM      9  C   LIG d   1       5.108  83.587 113.382  0.00  0.00     0.028 C 
ATOM     10  C   LIG d   1       5.017  84.081 114.835  0.00  0.00     0.006 C 
ENDBRANCH   8   9
BRANCH   8  11
ATOM     11  C   LIG d   1       3.941  85.662 112.830  0.00  0.00     0.028 C 
ATOM     12  C   LIG d   1       4.690  86.530 111.807  0.00  0.00     0.006 C 
ENDBRANCH   8  11
ENDBRANCH   7   8
ENDBRANCH   1   7
BRANCH   6  13
ATOM     13  N   LIG d   1       0.589  84.638 111.094  0.00  0.00    -0.311 N 
ATOM     14  C   LIG d   1       0.592  85.969 111.059  0.00  0.00     0.210 C 
ATOM     15  C   LIG d   1      -0.683  86.634 111.586  0.00  0.00     0.109 C 
ATOM     16  O   LIG d   1       1.518  86.662 110.611  0.00  0.00    -0.276 OA
ATOM     17  H   LIG d   1      -0.217  84.156 111.443  0.00  0.00     0.149 HD
ENDBRANCH   6  13
BRANCH   5  18
ATOM     18  N   LIG d   1       1.235  83.978 108.182  0.00  0.00     0.381 N 
ATOM     19  H   LIG d   1       2.087  84.078 107.667  0.00  0.00    -0.090 HD
ATOM     20  H   LIG d   1       0.972  84.882 108.534  0.00  0.00    -0.090 HD
ATOM     21  H   LIG d   1       0.519  83.624 107.587  0.00  0.00    -0.090 HD
ENDBRANCH   5  18
BRANCH   3  22
ATOM     22  C   LIG d   1       3.587  80.106 109.735  0.00  0.00     0.382 C 
ATOM     23  O   LIG d   1       2.858  79.095 109.588  0.00  0.00    -0.241 OA
ATOM     24  O   LIG d   1       4.824  79.987 109.649  0.00  0.00    -0.241 OA
ENDBRANCH   3  22
TORSDOF 7
ENDMDL
MODEL 7
REMARK VINA RESULT:      -5.4      2.909      3.794
REMARK  7 active torsions:
REMARK  status: ('A' for Active; 'I' for Inactive)
REMARK    1  A    between atoms: C_2  and  C_3 
REMARK    2  A    between atoms: C_3  and  O_6 
REMARK    3  A    between atoms: C_3  and  C_4 
REMARK    4  A    between atoms: C_7  and  O_6 
REMARK    5  A    between atoms: C_9  and  C_10 
REMARK    6  A    between atoms: N_15  and  C_14 
REMARK    7  A    between atoms: N_20  and  C_19 
REMARK       I    between atoms: C_22  and  N_20 
ROOT
ATOM      1  C   LIG d   1       1.387  82.962 112.258  0.00  0.00     0.161 C 
ATOM      2  C   LIG d   1       0.593  83.827 111.487  0.00  0.00     0.016 C 
ATOM      3  C   LIG d   1       0.513  85.220 111.716  0.00  0.00     0.038 C 
ATOM      4  C   LIG d   1       1.344  85.868 112.641  0.00  0.00     0.028 C 
ATOM      5  C   LIG d   1       1.793  84.968 113.787  0.00  0.00    -0.047 C 
ATOM      6  C   LIG d   1       2.385  83.666 113.200  0.00  0.00     0.091 C 
ENDROOT
BRANCH   1   7
ATOM      7  O   LIG d   1       2.078  82.036 111.396  0.00  0.00    -0.368 OA
BRANCH   7   8
ATOM      8  C   LIG d   1       2.837  82.622 110.310  0.00  0.00     0.119 C 
BRANCH   8   9
ATOM      9  C   LIG d   1       2.319  82.004 108.997  0.00  0.00     0.028 C 
ATOM     10  C   LIG d   1       1.829  83.068 108.000  0.00  0.00     0.006 C 
ENDBRANCH   8   9
BRANCH   8  11
ATOM     11  C   LIG d   1       4.316  82.230 110.387  0.00  0.00     0.028 C 
ATOM     12  C   LIG d   1       4.600  80.854 109.764  0.00  0.00     0.006 C 
ENDBRANCH   8  11
ENDBRANCH   7   8
ENDBRANCH   1   7
BRANCH   6  13
ATOM     13  N   LIG d   1       2.772  82.693 114.255  0.00  0.00    -0.311 N 
ATOM     14  C   LIG d   1       4.025  82.289 114.455  0.00  0.00     0.210 C 
ATOM     15  C   LIG d   1       4.202  81.266 115.582  0.00  0.00     0.109 C 
ATOM     16  O   LIG d   1       5.011  82.704 113.828  0.00  0.00    -0.276 OA
ATOM     17  H   LIG d   1       2.038  82.329 114.830  0.00  0.00     0.149 HD
ENDBRANCH   6  13
BRANCH   5  18
ATOM     18  N   LIG d   1       2.761  85.729 114.599  0.00  0.00     0.381 N 
ATOM     19  H   LIG d   1       3.355  85.097 115.099  0.00  0.00    -0.090 HD
ATOM     20  H   LIG d   1       2.259  86.285 115.268  0.00  0.00    -0.090 HD
ATOM     21  H   LIG d   1       3.310  86.317 114.012  0.00  0.00    -0.090 HD
ENDBRANCH   5  18
BRANCH   3  22
ATOM     22  C   LIG d   1      -0.436  85.974 111.041  0.00  0.00     0.382 C 
ATOM     23  O   LIG d   1      -0.920  86.999 111.579  0.00  0.00    -0.241 OA
ATOM     24  O   LIG d   1      -0.845  85.618 109.920  0.00  0.00    -0.241 OA
ENDBRANCH   3  22
TORSDOF 7
ENDMDL
MODEL 8
REMARK VINA RESULT:      -5.3      3.133      4.589
REMARK  7 active torsions:
REMARK  status: ('A' for Active; 'I' for Inactive)
REMARK    1  A    between atoms: C_2  and  C_3 
REMARK    2  A    between atoms: C_3  and  O_6 
REMARK    3  A    between atoms: C_3  and  C_4 
REMARK    4  A    between atoms: C_7  and  O_6 
REMARK    5  A    between atoms: C_9  and  C_10 
REMARK    6  A    between atoms: N_15  and  C_14 
REMARK    7  A    between atoms: N_20  and  C_19 
REMARK       I    between atoms: C_22  and  N_20 
ROOT
ATOM      1  C   LIG d   1       3.804  85.187 111.766  0.00  0.00     0.161 C 
ATOM      2  C   LIG d   1       4.004  86.576 111.832  0.00  0.00     0.016 C 
ATOM      3  C   LIG d   1       4.464  87.242 112.991  0.00  0.00     0.038 C 
ATOM      4  C   LIG d   1       4.901  86.541 114.125  0.00  0.00     0.028 C 
ATOM      5  C   LIG d   1       4.242  85.175 114.284  0.00  0.00    -0.047 C 
ATOM      6  C   LIG d   1       4.381  84.393 112.958  0.00  0.00     0.091 C 
ENDROOT
BRANCH   1   7
ATOM      7  O   LIG d   1       4.325  84.675 110.524  0.00  0.00    -0.368 OA
BRANCH   7   8
ATOM      8  C   LIG d   1       3.349  84.155 109.589  0.00  0.00     0.119 C 
BRANCH   8   9
ATOM      9  C   LIG d   1       1.954  84.566 110.099  0.00  0.00     0.028 C 
ATOM     10  C   LIG d   1       0.934  83.419 110.007  0.00  0.00     0.006 C 
ENDBRANCH   8   9
BRANCH   8  11
ATOM     11  C   LIG d   1       3.343  82.624 109.583  0.00  0.00     0.028 C 
ATOM     12  C   LIG d   1       4.177  82.029 108.437  0.00  0.00     0.006 C 
ENDBRANCH   8  11
ENDBRANCH   7   8
ENDBRANCH   1   7
BRANCH   6  13
ATOM     13  N   LIG d   1       3.689  83.079 113.000  0.00  0.00    -0.311 N 
ATOM     14  C   LIG d   1       2.408  82.935 113.334  0.00  0.00     0.210 C 
ATOM     15  C   LIG d   1       1.897  81.490 113.333  0.00  0.00     0.109 C 
ATOM     16  O   LIG d   1       1.637  83.869 113.600  0.00  0.00    -0.276 OA
ATOM     17  H   LIG d   1       4.232  82.270 112.767  0.00  0.00     0.149 HD
ENDBRANCH   6  13
BRANCH   5  18
ATOM     18  N   LIG d   1       4.888  84.499 115.424  0.00  0.00     0.381 N 
ATOM     19  H   LIG d   1       4.274  84.504 116.214  0.00  0.00    -0.090 HD
ATOM     20  H   LIG d   1       5.722  85.002 115.670  0.00  0.00    -0.090 HD
ATOM     21  H   LIG d   1       5.117  83.561 115.179  0.00  0.00    -0.090 HD
ENDBRANCH   5  18
BRANCH   3  22
ATOM     22  C   LIG d   1       4.452  88.628 113.037  0.00  0.00     0.382 C 
ATOM     23  O   LIG d   1       3.414  89.234 113.397  0.00  0.00    -0.241 OA
ATOM     24  O   LIG d   1       5.452  89.280 112.681  0.00  0.00    -0.241 OA
ENDBRANCH   3  22
TORSDOF 7
ENDMDL
MODEL 9
REMARK VINA RESULT:      -5.2      2.729      5.333
REMARK  7 active torsions:
REMARK  status: ('A' for Active; 'I' for Inactive)
REMARK    1  A    between atoms: C_2  and  C_3 
REMARK    2  A    between atoms: C_3  and  O_6 
REMARK    3  A    between atoms: C_3  and  C_4 
REMARK    4  A    between atoms: C_7  and  O_6 
REMARK    5  A    between atoms: C_9  and  C_10 
REMARK    6  A    between atoms: N_15  and  C_14 
REMARK    7  A    between atoms: N_20  and  C_19 
REMARK       I    between atoms: C_22  and  N_20 
ROOT
ATOM      1  C   LIG d   1      -0.101  81.541 111.495  0.00  0.00     0.161 C 
ATOM      2  C   LIG d   1      -0.693  80.503 112.234  0.00  0.00     0.016 C 
ATOM      3  C   LIG d   1      -0.855  79.189 111.738  0.00  0.00     0.038 C 
ATOM      4  C   LIG d   1      -0.296  78.783 110.517  0.00  0.00     0.028 C 
ATOM      5  C   LIG d   1      -0.132  79.923 109.517  0.00  0.00    -0.047 C 
ATOM      6  C   LIG d   1       0.614  81.090 110.204  0.00  0.00     0.091 C 
ENDROOT
BRANCH   1   7
ATOM      7  O   LIG d   1       0.803  82.285 112.335  0.00  0.00    -0.368 OA
BRANCH   7   8
ATOM      8  C   LIG d   1       0.996  83.678 111.987  0.00  0.00     0.119 C 
BRANCH   8   9
ATOM      9  C   LIG d   1       1.762  84.343 113.147  0.00  0.00     0.028 C 
ATOM     10  C   LIG d   1       3.261  84.507 112.843  0.00  0.00     0.006 C 
ENDBRANCH   8   9
BRANCH   8  11
ATOM     11  C   LIG d   1      -0.340  84.422 111.905  0.00  0.00     0.028 C 
ATOM     12  C   LIG d   1      -0.206  85.924 112.201  0.00  0.00     0.006 C 
ENDBRANCH   8  11
ENDBRANCH   7   8
ENDBRANCH   1   7
BRANCH   6  13
ATOM     13  N   LIG d   1       0.743  82.279 109.322  0.00  0.00    -0.311 N 
ATOM     14  C   LIG d   1       1.758  82.459 108.479  0.00  0.00     0.210 C 
ATOM     15  C   LIG d   1       1.707  83.763 107.676  0.00  0.00     0.109 C 
ATOM     16  O   LIG d   1       2.678  81.649 108.296  0.00  0.00    -0.276 OA
ATOM     17  H   LIG d   1       0.023  82.972 109.383  0.00  0.00     0.149 HD
ENDBRANCH   6  13
BRANCH   5  18
ATOM     18  N   LIG d   1       0.586  79.388 108.345  0.00  0.00     0.381 N 
ATOM     19  H   LIG d   1      -0.030  79.351 107.558  0.00  0.00    -0.090 HD
ATOM     20  H   LIG d   1       0.892  78.453 108.550  0.00  0.00    -0.090 HD
ATOM     21  H   LIG d   1       1.371  79.964 108.134  0.00  0.00    -0.090 HD
ENDBRANCH   5  18
BRANCH   3  22
ATOM     22  C   LIG d   1      -1.618  78.275 112.449  0.00  0.00     0.382 C 
ATOM     23  O   LIG d   1      -1.606  78.290 113.703  0.00  0.00    -0.241 OA
ATOM     24  O   LIG d   1      -2.284  77.409 111.852  0.00  0.00    -0.241 OA
ENDBRANCH   3  22
TORSDOF 7
ENDMDL
