MODEL 1
REMARK VINA RESULT:      -6.7      0.000      0.000
REMARK  7 active torsions:
REMARK  status: ('A' for Active; 'I' for Inactive)
REMARK    1  A    between atoms: C_2  and  C_3 
REMARK    2  A    between atoms: C_3  and  O_6 
REMARK    3  A    between atoms: C_3  and  C_4 
REMARK    4  A    between atoms: C_7  and  O_6 
REMARK    5  A    between atoms: C_9  and  C_10 
REMARK    6  A    between atoms: N_15  and  C_14 
REMARK    7  A    between atoms: N_20  and  C_19 
REMARK       I    between atoms: C_22  and  N_20 
ROOT
ATOM      1  C   LIG d   1      -0.011  82.856 111.107  0.00  0.00     0.161 C 
ATOM      2  C   LIG d   1      -1.123  82.512 111.894  0.00  0.00     0.016 C 
ATOM      3  C   LIG d   1      -1.560  81.180 112.082  0.00  0.00     0.038 C 
ATOM      4  C   LIG d   1      -0.821  80.084 111.615  0.00  0.00     0.028 C 
ATOM      5  C   LIG d   1       0.030  80.404 110.390  0.00  0.00    -0.047 C 
ATOM      6  C   LIG d   1       0.874  81.666 110.681  0.00  0.00     0.091 C 
ENDROOT
BRANCH   1   7
ATOM      7  O   LIG d   1       0.780  83.850 111.788  0.00  0.00    -0.368 OA
BRANCH   7   8
ATOM      8  C   LIG d   1       0.827  85.160 111.171  0.00  0.00     0.119 C 
BRANCH   8   9
ATOM      9  C   LIG d   1      -0.154  85.147 109.982  0.00  0.00     0.028 C 
ATOM     10  C   LIG d   1       0.530  85.511 108.654  0.00  0.00     0.006 C 
ENDBRANCH   8   9
BRANCH   8  11
ATOM     11  C   LIG d   1       2.203  85.438 110.558  0.00  0.00     0.028 C 
ATOM     12  C   LIG d   1       3.352  84.817 111.367  0.00  0.00     0.006 C 
ENDBRANCH   8  11
ENDBRANCH   7   8
ENDBRANCH   1   7
BRANCH   6  13
ATOM     13  N   LIG d   1       1.672  82.097 109.504  0.00  0.00    -0.311 N 
ATOM     14  C   LIG d   1       2.946  81.757 109.318  0.00  0.00     0.210 C 
ATOM     15  C   LIG d   1       3.589  82.325 108.049  0.00  0.00     0.109 C 
ATOM     16  O   LIG d   1       3.596  81.012 110.068  0.00  0.00    -0.276 OA
ATOM     17  H   LIG d   1       1.214  82.678 108.830  0.00  0.00     0.149 HD
ENDBRANCH   6  13
BRANCH   5  18
ATOM     18  N   LIG d   1       0.851  79.214 110.095  0.00  0.00     0.381 N 
ATOM     19  H   LIG d   1       1.820  79.435 110.208  0.00  0.00    -0.090 HD
ATOM     20  H   LIG d   1       0.699  78.944 109.139  0.00  0.00    -0.090 HD
ATOM     21  H   LIG d   1       0.599  78.467 110.703  0.00  0.00    -0.090 HD
ENDBRANCH   5  18
BRANCH   3  22
ATOM     22  C   LIG d   1      -2.773  80.938 112.710  0.00  0.00     0.382 C 
ATOM     23  O   LIG d   1      -3.492  81.898 113.076  0.00  0.00    -0.241 OA
ATOM     24  O   LIG d   1      -3.135  79.772 112.954  0.00  0.00    -0.241 OA
ENDBRANCH   3  22
TORSDOF 7
ENDMDL
MODEL 2
REMARK VINA RESULT:      -6.6      1.622      4.923
REMARK  7 active torsions:
REMARK  status: ('A' for Active; 'I' for Inactive)
REMARK    1  A    between atoms: C_2  and  C_3 
REMARK    2  A    between atoms: C_3  and  O_6 
REMARK    3  A    between atoms: C_3  and  C_4 
REMARK    4  A    between atoms: C_7  and  O_6 
REMARK    5  A    between atoms: C_9  and  C_10 
REMARK    6  A    between atoms: N_15  and  C_14 
REMARK    7  A    between atoms: N_20  and  C_19 
REMARK       I    between atoms: C_22  and  N_20 
ROOT
ATOM      1  C   LIG d   1       1.479  83.218 111.275  0.00  0.00     0.161 C 
ATOM      2  C   LIG d   1       2.440  83.043 110.266  0.00  0.00     0.016 C 
ATOM      3  C   LIG d   1       2.490  81.906 109.427  0.00  0.00     0.038 C 
ATOM      4  C   LIG d   1       1.482  80.930 109.441  0.00  0.00     0.028 C 
ATOM      5  C   LIG d   1       0.771  80.812 110.785  0.00  0.00    -0.047 C 
ATOM      6  C   LIG d   1       0.305  82.217 111.231  0.00  0.00     0.091 C 
ENDROOT
BRANCH   1   7
ATOM      7  O   LIG d   1       0.984  84.572 111.248  0.00  0.00    -0.368 OA
BRANCH   7   8
ATOM      8  C   LIG d   1       1.419  85.388 110.133  0.00  0.00     0.119 C 
BRANCH   8   9
ATOM      9  C   LIG d   1       1.822  86.764 110.696  0.00  0.00     0.028 C 
ATOM     10  C   LIG d   1       3.156  86.718 111.460  0.00  0.00     0.006 C 
ENDBRANCH   8   9
BRANCH   8  11
ATOM     11  C   LIG d   1       0.267  85.668 109.164  0.00  0.00     0.028 C 
ATOM     12  C   LIG d   1      -1.040  86.037 109.883  0.00  0.00     0.006 C 
ENDBRANCH   8  11
ENDBRANCH   7   8
ENDBRANCH   1   7
BRANCH   6  13
ATOM     13  N   LIG d   1      -0.326  82.205 112.576  0.00  0.00    -0.311 N 
ATOM     14  C   LIG d   1      -1.638  82.080 112.769  0.00  0.00     0.210 C 
ATOM     15  C   LIG d   1      -2.081  82.111 114.235  0.00  0.00     0.109 C 
ATOM     16  O   LIG d   1      -2.473  81.914 111.868  0.00  0.00    -0.276 OA
ATOM     17  H   LIG d   1       0.282  82.302 113.366  0.00  0.00     0.149 HD
ENDBRANCH   6  13
BRANCH   5  18
ATOM     18  N   LIG d   1      -0.343  79.860 110.618  0.00  0.00     0.381 N 
ATOM     19  H   LIG d   1      -1.144  80.336 110.255  0.00  0.00    -0.090 HD
ATOM     20  H   LIG d   1      -0.583  79.479 111.516  0.00  0.00    -0.090 HD
ATOM     21  H   LIG d   1      -0.075  79.126 109.999  0.00  0.00    -0.090 HD
ENDBRANCH   5  18
BRANCH   3  22
ATOM     22  C   LIG d   1       3.578  81.716 108.589  0.00  0.00     0.382 C 
ATOM     23  O   LIG d   1       3.616  82.285 107.472  0.00  0.00    -0.241 OA
ATOM     24  O   LIG d   1       4.503  80.949 108.919  0.00  0.00    -0.241 OA
ENDBRANCH   3  22
TORSDOF 7
ENDMDL
MODEL 3
REMARK VINA RESULT:      -6.2      2.633      5.511
REMARK  7 active torsions:
REMARK  status: ('A' for Active; 'I' for Inactive)
REMARK    1  A    between atoms: C_2  and  C_3 
REMARK    2  A    between atoms: C_3  and  O_6 
REMARK    3  A    between atoms: C_3  and  C_4 
REMARK    4  A    between atoms: C_7  and  O_6 
REMARK    5  A    between atoms: C_9  and  C_10 
REMARK    6  A    between atoms: N_15  and  C_14 
REMARK    7  A    between atoms: N_20  and  C_19 
REMARK       I    between atoms: C_22  and  N_20 
ROOT
ATOM      1  C   LIG d   1       2.221  84.142 110.761  0.00  0.00     0.161 C 
ATOM      2  C   LIG d   1       2.802  85.414 110.900  0.00  0.00     0.016 C 
ATOM      3  C   LIG d   1       2.560  86.263 112.005  0.00  0.00     0.038 C 
ATOM      4  C   LIG d   1       1.835  85.833 113.126  0.00  0.00     0.028 C 
ATOM      5  C   LIG d   1       0.814  84.746 112.807  0.00  0.00    -0.047 C 
ATOM      6  C   LIG d   1       1.517  83.611 112.027  0.00  0.00     0.091 C 
ENDROOT
BRANCH   1   7
ATOM      7  O   LIG d   1       3.213  83.200 110.307  0.00  0.00    -0.368 OA
BRANCH   7   8
ATOM      8  C   LIG d   1       3.327  83.036 108.872  0.00  0.00     0.119 C 
BRANCH   8   9
ATOM      9  C   LIG d   1       1.908  82.795 108.320  0.00  0.00     0.028 C 
ATOM     10  C   LIG d   1       1.580  83.709 107.128  0.00  0.00     0.006 C 
ENDBRANCH   8   9
BRANCH   8  11
ATOM     11  C   LIG d   1       4.120  81.775 108.516  0.00  0.00     0.028 C 
ATOM     12  C   LIG d   1       3.765  80.576 109.410  0.00  0.00     0.006 C 
ENDBRANCH   8  11
ENDBRANCH   7   8
ENDBRANCH   1   7
BRANCH   6  13
ATOM     13  N   LIG d   1       0.571  82.546 111.602  0.00  0.00    -0.311 N 
ATOM     14  C   LIG d   1       0.800  81.247 111.786  0.00  0.00     0.210 C 
ATOM     15  C   LIG d   1      -0.295  80.316 111.255  0.00  0.00     0.109 C 
ATOM     16  O   LIG d   1       1.790  80.778 112.368  0.00  0.00    -0.276 OA
ATOM     17  H   LIG d   1      -0.273  82.839 111.150  0.00  0.00     0.149 HD
ENDBRANCH   6  13
BRANCH   5  18
ATOM     18  N   LIG d   1       0.230  84.294 114.084  0.00  0.00     0.381 N 
ATOM     19  H   LIG d   1       0.311  83.300 114.161  0.00  0.00    -0.090 HD
ATOM     20  H   LIG d   1      -0.746  84.533 114.097  0.00  0.00    -0.090 HD
ATOM     21  H   LIG d   1       0.697  84.733 114.847  0.00  0.00    -0.090 HD
ENDBRANCH   5  18
BRANCH   3  22
ATOM     22  C   LIG d   1       3.013  87.573 111.976  0.00  0.00     0.382 C 
ATOM     23  O   LIG d   1       2.197  88.521 112.079  0.00  0.00    -0.241 OA
ATOM     24  O   LIG d   1       4.222  87.820 111.805  0.00  0.00    -0.241 OA
ENDBRANCH   3  22
TORSDOF 7
ENDMDL
MODEL 4
REMARK VINA RESULT:      -6.2      2.553      4.201
REMARK  7 active torsions:
REMARK  status: ('A' for Active; 'I' for Inactive)
REMARK    1  A    between atoms: C_2  and  C_3 
REMARK    2  A    between atoms: C_3  and  O_6 
REMARK    3  A    between atoms: C_3  and  C_4 
REMARK    4  A    between atoms: C_7  and  O_6 
REMARK    5  A    between atoms: C_9  and  C_10 
REMARK    6  A    between atoms: N_15  and  C_14 
REMARK    7  A    between atoms: N_20  and  C_19 
REMARK       I    between atoms: C_22  and  N_20 
ROOT
ATOM      1  C   LIG d   1       1.653  83.829 111.269  0.00  0.00     0.161 C 
ATOM      2  C   LIG d   1       0.584  82.920 111.203  0.00  0.00     0.016 C 
ATOM      3  C   LIG d   1      -0.508  82.937 112.102  0.00  0.00     0.038 C 
ATOM      4  C   LIG d   1      -0.680  83.966 113.040  0.00  0.00     0.028 C 
ATOM      5  C   LIG d   1       0.629  84.614 113.475  0.00  0.00    -0.047 C 
ATOM      6  C   LIG d   1       1.427  85.026 112.216  0.00  0.00     0.091 C 
ENDROOT
BRANCH   1   7
ATOM      7  O   LIG d   1       1.982  84.293 109.945  0.00  0.00    -0.368 OA
BRANCH   7   8
ATOM      8  C   LIG d   1       0.911  84.250 108.970  0.00  0.00     0.119 C 
BRANCH   8   9
ATOM      9  C   LIG d   1       1.516  83.764 107.639  0.00  0.00     0.028 C 
ATOM     10  C   LIG d   1       2.638  82.732 107.846  0.00  0.00     0.006 C 
ENDBRANCH   8   9
BRANCH   8  11
ATOM     11  C   LIG d   1       0.366  85.652 108.680  0.00  0.00     0.028 C 
ATOM     12  C   LIG d   1      -0.842  86.015 109.558  0.00  0.00     0.006 C 
ENDBRANCH   8  11
ENDBRANCH   7   8
ENDBRANCH   1   7
BRANCH   6  13
ATOM     13  N   LIG d   1       2.760  85.592 112.550  0.00  0.00    -0.311 N 
ATOM     14  C   LIG d   1       3.249  86.697 111.989  0.00  0.00     0.210 C 
ATOM     15  C   LIG d   1       4.650  87.097 112.462  0.00  0.00     0.109 C 
ATOM     16  O   LIG d   1       2.641  87.402 111.169  0.00  0.00    -0.276 OA
ATOM     17  H   LIG d   1       3.308  85.101 113.230  0.00  0.00     0.149 HD
ENDBRANCH   6  13
BRANCH   5  18
ATOM     18  N   LIG d   1       0.294  85.757 114.345  0.00  0.00     0.381 N 
ATOM     19  H   LIG d   1       0.564  85.556 115.287  0.00  0.00    -0.090 HD
ATOM     20  H   LIG d   1      -0.701  85.899 114.326  0.00  0.00    -0.090 HD
ATOM     21  H   LIG d   1       0.760  86.578 114.026  0.00  0.00    -0.090 HD
ENDBRANCH   5  18
BRANCH   3  22
ATOM     22  C   LIG d   1      -1.422  81.894 112.092  0.00  0.00     0.382 C 
ATOM     23  O   LIG d   1      -1.108  80.790 111.586  0.00  0.00    -0.241 OA
ATOM     24  O   LIG d   1      -2.571  82.057 112.544  0.00  0.00    -0.241 OA
ENDBRANCH   3  22
TORSDOF 7
ENDMDL
MODEL 5
REMARK VINA RESULT:      -6.1      2.668      5.482
REMARK  7 active torsions:
REMARK  status: ('A' for Active; 'I' for Inactive)
REMARK    1  A    between atoms: C_2  and  C_3 
REMARK    2  A    between atoms: C_3  and  O_6 
REMARK    3  A    between atoms: C_3  and  C_4 
REMARK    4  A    between atoms: C_7  and  O_6 
REMARK    5  A    between atoms: C_9  and  C_10 
REMARK    6  A    between atoms: N_15  and  C_14 
REMARK    7  A    between atoms: N_20  and  C_19 
REMARK       I    between atoms: C_22  and  N_20 
ROOT
ATOM      1  C   LIG d   1       2.646  83.858 111.927  0.00  0.00     0.161 C 
ATOM      2  C   LIG d   1       3.486  83.504 110.858  0.00  0.00     0.016 C 
ATOM      3  C   LIG d   1       3.018  82.902 109.667  0.00  0.00     0.038 C 
ATOM      4  C   LIG d   1       1.649  82.751 109.401  0.00  0.00     0.028 C 
ATOM      5  C   LIG d   1       0.797  82.631 110.660  0.00  0.00    -0.047 C 
ATOM      6  C   LIG d   1       1.137  83.802 111.610  0.00  0.00     0.091 C 
ENDROOT
BRANCH   1   7
ATOM      7  O   LIG d   1       3.006  85.164 112.420  0.00  0.00    -0.368 OA
BRANCH   7   8
ATOM      8  C   LIG d   1       3.221  86.187 111.417  0.00  0.00     0.119 C 
BRANCH   8   9
ATOM      9  C   LIG d   1       4.598  86.822 111.692  0.00  0.00     0.028 C 
ATOM     10  C   LIG d   1       4.544  87.879 112.808  0.00  0.00     0.006 C 
ENDBRANCH   8   9
BRANCH   8  11
ATOM     11  C   LIG d   1       2.211  87.329 111.560  0.00  0.00     0.028 C 
ATOM     12  C   LIG d   1       0.889  87.051 110.828  0.00  0.00     0.006 C 
ENDBRANCH   8  11
ENDBRANCH   7   8
ENDBRANCH   1   7
BRANCH   6  13
ATOM     13  N   LIG d   1       0.408  83.714 112.902  0.00  0.00    -0.311 N 
ATOM     14  C   LIG d   1      -0.770  84.296 113.121  0.00  0.00     0.210 C 
ATOM     15  C   LIG d   1      -1.338  84.096 114.530  0.00  0.00     0.109 C 
ATOM     16  O   LIG d   1      -1.414  84.930 112.272  0.00  0.00    -0.276 OA
ATOM     17  H   LIG d   1       0.844  83.192 113.637  0.00  0.00     0.149 HD
ENDBRANCH   6  13
BRANCH   5  18
ATOM     18  N   LIG d   1      -0.618  82.618 110.242  0.00  0.00     0.381 N 
ATOM     19  H   LIG d   1      -0.826  83.449 109.725  0.00  0.00    -0.090 HD
ATOM     20  H   LIG d   1      -1.199  82.601 111.061  0.00  0.00    -0.090 HD
ATOM     21  H   LIG d   1      -0.799  81.815 109.680  0.00  0.00    -0.090 HD
ENDBRANCH   5  18
BRANCH   3  22
ATOM     22  C   LIG d   1       3.927  82.408 108.744  0.00  0.00     0.382 C 
ATOM     23  O   LIG d   1       5.045  81.989 109.128  0.00  0.00    -0.241 OA
ATOM     24  O   LIG d   1       3.660  82.418 107.527  0.00  0.00    -0.241 OA
ENDBRANCH   3  22
TORSDOF 7
ENDMDL
MODEL 6
REMARK VINA RESULT:      -5.9      2.397      3.997
REMARK  7 active torsions:
REMARK  status: ('A' for Active; 'I' for Inactive)
REMARK    1  A    between atoms: C_2  and  C_3 
REMARK    2  A    between atoms: C_3  and  O_6 
REMARK    3  A    between atoms: C_3  and  C_4 
REMARK    4  A    between atoms: C_7  and  O_6 
REMARK    5  A    between atoms: C_9  and  C_10 
REMARK    6  A    between atoms: N_15  and  C_14 
REMARK    7  A    between atoms: N_20  and  C_19 
REMARK       I    between atoms: C_22  and  N_20 
ROOT
ATOM      1  C   LIG d   1       1.745  82.887 112.266  0.00  0.00     0.161 C 
ATOM      2  C   LIG d   1       0.642  82.024 112.388  0.00  0.00     0.016 C 
ATOM      3  C   LIG d   1      -0.700  82.462 112.318  0.00  0.00     0.038 C 
ATOM      4  C   LIG d   1      -1.033  83.779 111.967  0.00  0.00     0.028 C 
ATOM      5  C   LIG d   1       0.046  84.794 112.332  0.00  0.00    -0.047 C 
ATOM      6  C   LIG d   1       1.402  84.308 111.772  0.00  0.00     0.091 C 
ENDROOT
BRANCH   1   7
ATOM      7  O   LIG d   1       2.742  82.287 111.415  0.00  0.00    -0.368 OA
BRANCH   7   8
ATOM      8  C   LIG d   1       2.548  82.456 109.989  0.00  0.00     0.119 C 
BRANCH   8   9
ATOM      9  C   LIG d   1       2.356  81.054 109.379  0.00  0.00     0.028 C 
ATOM     10  C   LIG d   1       0.900  80.792 108.958  0.00  0.00     0.006 C 
ENDBRANCH   8   9
BRANCH   8  11
ATOM     11  C   LIG d   1       3.803  83.022 109.319  0.00  0.00     0.028 C 
ATOM     12  C   LIG d   1       4.289  82.162 108.142  0.00  0.00     0.006 C 
ENDBRANCH   8  11
ENDBRANCH   7   8
ENDBRANCH   1   7
BRANCH   6  13
ATOM     13  N   LIG d   1       2.526  85.200 112.156  0.00  0.00    -0.311 N 
ATOM     14  C   LIG d   1       2.904  86.255 111.436  0.00  0.00     0.210 C 
ATOM     15  C   LIG d   1       4.099  87.030 112.000  0.00  0.00     0.109 C 
ATOM     16  O   LIG d   1       2.342  86.642 110.400  0.00  0.00    -0.276 OA
ATOM     17  H   LIG d   1       3.018  84.978 113.000  0.00  0.00     0.149 HD
ENDBRANCH   6  13
BRANCH   5  18
ATOM     18  N   LIG d   1      -0.370  86.100 111.787  0.00  0.00     0.381 N 
ATOM     19  H   LIG d   1       0.285  86.401 111.093  0.00  0.00    -0.090 HD
ATOM     20  H   LIG d   1      -0.373  86.776 112.531  0.00  0.00    -0.090 HD
ATOM     21  H   LIG d   1      -1.280  86.030 111.388  0.00  0.00    -0.090 HD
ENDBRANCH   5  18
BRANCH   3  22
ATOM     22  C   LIG d   1      -1.726  81.587 112.640  0.00  0.00     0.382 C 
ATOM     23  O   LIG d   1      -2.882  81.784 112.192  0.00  0.00    -0.241 OA
ATOM     24  O   LIG d   1      -1.521  80.628 113.408  0.00  0.00    -0.241 OA
ENDBRANCH   3  22
TORSDOF 7
ENDMDL
MODEL 7
REMARK VINA RESULT:      -5.8      2.333      5.303
REMARK  7 active torsions:
REMARK  status: ('A' for Active; 'I' for Inactive)
REMARK    1  A    between atoms: C_2  and  C_3 
REMARK    2  A    between atoms: C_3  and  O_6 
REMARK    3  A    between atoms: C_3  and  C_4 
REMARK    4  A    between atoms: C_7  and  O_6 
REMARK    5  A    between atoms: C_9  and  C_10 
REMARK    6  A    between atoms: N_15  and  C_14 
REMARK    7  A    between atoms: N_20  and  C_19 
REMARK       I    between atoms: C_22  and  N_20 
ROOT
ATOM      1  C   LIG d   1       0.152  83.332 110.248  0.00  0.00     0.161 C 
ATOM      2  C   LIG d   1       0.752  84.600 110.170  0.00  0.00     0.016 C 
ATOM      3  C   LIG d   1       0.926  85.449 111.288  0.00  0.00     0.038 C 
ATOM      4  C   LIG d   1       0.645  85.021 112.594  0.00  0.00     0.028 C 
ATOM      5  C   LIG d   1      -0.430  83.941 112.660  0.00  0.00    -0.047 C 
ATOM      6  C   LIG d   1      -0.059  82.803 111.682  0.00  0.00     0.091 C 
ENDROOT
BRANCH   1   7
ATOM      7  O   LIG d   1       0.910  82.385 109.471  0.00  0.00    -0.368 OA
BRANCH   7   8
ATOM      8  C   LIG d   1       2.252  82.105 109.939  0.00  0.00     0.119 C 
BRANCH   8   9
ATOM      9  C   LIG d   1       3.212  82.322 108.753  0.00  0.00     0.028 C 
ATOM     10  C   LIG d   1       4.689  82.291 109.180  0.00  0.00     0.006 C 
ENDBRANCH   8   9
BRANCH   8  11
ATOM     11  C   LIG d   1       2.412  80.631 110.325  0.00  0.00     0.028 C 
ATOM     12  C   LIG d   1       1.388  79.719 109.631  0.00  0.00     0.006 C 
ENDBRANCH   8  11
ENDBRANCH   7   8
ENDBRANCH   1   7
BRANCH   6  13
ATOM     13  N   LIG d   1      -1.101  81.745 111.622  0.00  0.00    -0.311 N 
ATOM     14  C   LIG d   1      -1.049  80.623 112.338  0.00  0.00     0.210 C 
ATOM     15  C   LIG d   1      -2.215  79.657 112.111  0.00  0.00     0.109 C 
ATOM     16  O   LIG d   1      -0.163  80.352 113.163  0.00  0.00    -0.276 OA
ATOM     17  H   LIG d   1      -1.871  81.898 111.001  0.00  0.00     0.149 HD
ENDBRANCH   6  13
BRANCH   5  18
ATOM     18  N   LIG d   1      -0.524  83.491 114.062  0.00  0.00     0.381 N 
ATOM     19  H   LIG d   1      -0.770  84.262 114.650  0.00  0.00    -0.090 HD
ATOM     20  H   LIG d   1       0.374  83.146 114.353  0.00  0.00    -0.090 HD
ATOM     21  H   LIG d   1      -1.207  82.771 114.144  0.00  0.00    -0.090 HD
ENDBRANCH   5  18
BRANCH   3  22
ATOM     22  C   LIG d   1       1.348  86.756 111.100  0.00  0.00     0.382 C 
ATOM     23  O   LIG d   1       0.597  87.709 111.419  0.00  0.00    -0.241 OA
ATOM     24  O   LIG d   1       2.451  86.994 110.573  0.00  0.00    -0.241 OA
ENDBRANCH   3  22
TORSDOF 7
ENDMDL
MODEL 8
REMARK VINA RESULT:      -5.8      2.375      5.484
REMARK  7 active torsions:
REMARK  status: ('A' for Active; 'I' for Inactive)
REMARK    1  A    between atoms: C_2  and  C_3 
REMARK    2  A    between atoms: C_3  and  O_6 
REMARK    3  A    between atoms: C_3  and  C_4 
REMARK    4  A    between atoms: C_7  and  O_6 
REMARK    5  A    between atoms: C_9  and  C_10 
REMARK    6  A    between atoms: N_15  and  C_14 
REMARK    7  A    between atoms: N_20  and  C_19 
REMARK       I    between atoms: C_22  and  N_20 
ROOT
ATOM      1  C   LIG d   1       0.441  84.199 111.763  0.00  0.00     0.161 C 
ATOM      2  C   LIG d   1       1.088  85.400 112.100  0.00  0.00     0.016 C 
ATOM      3  C   LIG d   1       1.639  86.282 111.141  0.00  0.00     0.038 C 
ATOM      4  C   LIG d   1       1.446  86.095 109.765  0.00  0.00     0.028 C 
ATOM      5  C   LIG d   1       1.237  84.636 109.375  0.00  0.00    -0.047 C 
ATOM      6  C   LIG d   1       0.123  84.034 110.263  0.00  0.00     0.091 C 
ENDROOT
BRANCH   1   7
ATOM      7  O   LIG d   1      -0.759  84.055 112.549  0.00  0.00    -0.368 OA
BRANCH   7   8
ATOM      8  C   LIG d   1      -0.637  83.271 113.761  0.00  0.00     0.119 C 
BRANCH   8   9
ATOM      9  C   LIG d   1      -0.892  81.798 113.388  0.00  0.00     0.028 C 
ATOM     10  C   LIG d   1      -2.294  81.578 112.794  0.00  0.00     0.006 C 
ENDBRANCH   8   9
BRANCH   8  11
ATOM     11  C   LIG d   1      -1.732  83.631 114.769  0.00  0.00     0.028 C 
ATOM     12  C   LIG d   1      -1.215  83.689 116.216  0.00  0.00     0.006 C 
ENDBRANCH   8  11
ENDBRANCH   7   8
ENDBRANCH   1   7
BRANCH   6  13
ATOM     13  N   LIG d   1      -0.087  82.586 110.004  0.00  0.00    -0.311 N 
ATOM     14  C   LIG d   1       0.865  81.668 110.160  0.00  0.00     0.210 C 
ATOM     15  C   LIG d   1       0.443  80.235 109.820  0.00  0.00     0.109 C 
ATOM     16  O   LIG d   1       2.010  81.899 110.577  0.00  0.00    -0.276 OA
ATOM     17  H   LIG d   1      -0.996  82.306 109.692  0.00  0.00     0.149 HD
ENDBRANCH   6  13
BRANCH   5  18
ATOM     18  N   LIG d   1       0.911  84.601 107.936  0.00  0.00     0.381 N 
ATOM     19  H   LIG d   1       1.728  84.814 107.399  0.00  0.00    -0.090 HD
ATOM     20  H   LIG d   1       0.216  85.300 107.743  0.00  0.00    -0.090 HD
ATOM     21  H   LIG d   1       0.565  83.701 107.687  0.00  0.00    -0.090 HD
ENDBRANCH   5  18
BRANCH   3  22
ATOM     22  C   LIG d   1       2.428  87.344 111.558  0.00  0.00     0.382 C 
ATOM     23  O   LIG d   1       3.675  87.218 111.606  0.00  0.00    -0.241 OA
ATOM     24  O   LIG d   1       1.904  88.412 111.929  0.00  0.00    -0.241 OA
ENDBRANCH   3  22
TORSDOF 7
ENDMDL
MODEL 9
REMARK VINA RESULT:      -5.6      2.750      5.905
REMARK  7 active torsions:
REMARK  status: ('A' for Active; 'I' for Inactive)
REMARK    1  A    between atoms: C_2  and  C_3 
REMARK    2  A    between atoms: C_3  and  O_6 
REMARK    3  A    between atoms: C_3  and  C_4 
REMARK    4  A    between atoms: C_7  and  O_6 
REMARK    5  A    between atoms: C_9  and  C_10 
REMARK    6  A    between atoms: N_15  and  C_14 
REMARK    7  A    between atoms: N_20  and  C_19 
REMARK       I    between atoms: C_22  and  N_20 
ROOT
ATOM      1  C   LIG d   1       1.800  84.116 111.329  0.00  0.00     0.161 C 
ATOM      2  C   LIG d   1       2.404  85.377 111.199  0.00  0.00     0.016 C 
ATOM      3  C   LIG d   1       2.478  86.317 112.252  0.00  0.00     0.038 C 
ATOM      4  C   LIG d   1       2.083  85.998 113.560  0.00  0.00     0.028 C 
ATOM      5  C   LIG d   1       1.006  84.920 113.621  0.00  0.00    -0.047 C 
ATOM      6  C   LIG d   1       1.462  83.707 112.778  0.00  0.00     0.091 C 
ENDROOT
BRANCH   1   7
ATOM      7  O   LIG d   1       2.624  83.112 110.704  0.00  0.00    -0.368 OA
BRANCH   7   8
ATOM      8  C   LIG d   1       2.103  82.527 109.485  0.00  0.00     0.119 C 
BRANCH   8   9
ATOM      9  C   LIG d   1       1.765  81.054 109.785  0.00  0.00     0.028 C 
ATOM     10  C   LIG d   1       0.635  80.517 108.890  0.00  0.00     0.006 C 
ENDBRANCH   8   9
BRANCH   8  11
ATOM     11  C   LIG d   1       3.170  82.483 108.388  0.00  0.00     0.028 C 
ATOM     12  C   LIG d   1       4.566  82.134 108.928  0.00  0.00     0.006 C 
ENDBRANCH   8  11
ENDBRANCH   7   8
ENDBRANCH   1   7
BRANCH   6  13
ATOM     13  N   LIG d   1       0.429  82.640 112.716  0.00  0.00    -0.311 N 
ATOM     14  C   LIG d   1      -0.814  82.848 112.287  0.00  0.00     0.210 C 
ATOM     15  C   LIG d   1      -1.725  81.616 112.323  0.00  0.00     0.109 C 
ATOM     16  O   LIG d   1      -1.241  83.927 111.850  0.00  0.00    -0.276 OA
ATOM     17  H   LIG d   1       0.699  81.726 113.022  0.00  0.00     0.149 HD
ENDBRANCH   6  13
BRANCH   5  18
ATOM     18  N   LIG d   1       0.788  84.588 115.042  0.00  0.00     0.381 N 
ATOM     19  H   LIG d   1       1.132  85.329 115.619  0.00  0.00    -0.090 HD
ATOM     20  H   LIG d   1       1.301  83.753 115.262  0.00  0.00    -0.090 HD
ATOM     21  H   LIG d   1      -0.183  84.446 115.214  0.00  0.00    -0.090 HD
ENDBRANCH   5  18
BRANCH   3  22
ATOM     22  C   LIG d   1       2.915  87.607 111.992  0.00  0.00     0.382 C 
ATOM     23  O   LIG d   1       4.132  87.825 111.774  0.00  0.00    -0.241 OA
ATOM     24  O   LIG d   1       2.116  88.562 112.017  0.00  0.00    -0.241 OA
ENDBRANCH   3  22
TORSDOF 7
ENDMDL
