MODEL 1
REMARK VINA RESULT:      -6.0      0.000      0.000
REMARK  7 active torsions:
REMARK  status: ('A' for Active; 'I' for Inactive)
REMARK    1  A    between atoms: C_2  and  C_3 
REMARK    2  A    between atoms: C_3  and  O_6 
REMARK    3  A    between atoms: C_3  and  C_4 
REMARK    4  A    between atoms: C_7  and  O_6 
REMARK    5  A    between atoms: C_9  and  C_10 
REMARK    6  A    between atoms: N_15  and  C_14 
REMARK    7  A    between atoms: N_20  and  C_19 
REMARK       I    between atoms: C_22  and  N_20 
ROOT
ATOM      1  C   LIG d   1       0.282  83.012 112.092  0.00  0.00     0.161 C 
ATOM      2  C   LIG d   1      -0.939  82.546 112.609  0.00  0.00     0.016 C 
ATOM      3  C   LIG d   1      -1.476  81.274 112.308  0.00  0.00     0.038 C 
ATOM      4  C   LIG d   1      -0.751  80.315 111.585  0.00  0.00     0.028 C 
ATOM      5  C   LIG d   1       0.264  80.922 110.622  0.00  0.00    -0.047 C 
ATOM      6  C   LIG d   1       1.139  81.938 111.391  0.00  0.00     0.091 C 
ENDROOT
BRANCH   1   7
ATOM      7  O   LIG d   1       1.040  83.657 113.135  0.00  0.00    -0.368 OA
BRANCH   7   8
ATOM      8  C   LIG d   1       0.877  85.092 113.247  0.00  0.00     0.119 C 
BRANCH   8   9
ATOM      9  C   LIG d   1       2.213  85.742 112.839  0.00  0.00     0.028 C 
ATOM     10  C   LIG d   1       3.420  84.829 113.116  0.00  0.00     0.006 C 
ENDBRANCH   8   9
BRANCH   8  11
ATOM     11  C   LIG d   1       0.648  85.515 114.701  0.00  0.00     0.028 C 
ATOM     12  C   LIG d   1      -0.810  85.334 115.152  0.00  0.00     0.006 C 
ENDBRANCH   8  11
ENDBRANCH   7   8
ENDBRANCH   1   7
BRANCH   6  13
ATOM     13  N   LIG d   1       2.104  82.640 110.505  0.00  0.00    -0.311 N 
ATOM     14  C   LIG d   1       3.370  82.258 110.351  0.00  0.00     0.210 C 
ATOM     15  C   LIG d   1       4.199  83.133 109.405  0.00  0.00     0.109 C 
ATOM     16  O   LIG d   1       3.877  81.258 110.882  0.00  0.00    -0.276 OA
ATOM     17  H   LIG d   1       1.768  83.444 110.011  0.00  0.00     0.149 HD
ENDBRANCH   6  13
BRANCH   5  18
ATOM     18  N   LIG d   1       1.042  79.814 110.038  0.00  0.00     0.381 N 
ATOM     19  H   LIG d   1       0.819  79.718 109.068  0.00  0.00    -0.090 HD
ATOM     20  H   LIG d   1       0.792  78.960 110.505  0.00  0.00    -0.090 HD
ATOM     21  H   LIG d   1       2.017  79.987 110.146  0.00  0.00    -0.090 HD
ENDBRANCH   5  18
BRANCH   3  22
ATOM     22  C   LIG d   1      -2.770  80.964 112.699  0.00  0.00     0.382 C 
ATOM     23  O   LIG d   1      -3.669  81.838 112.640  0.00  0.00    -0.241 OA
ATOM     24  O   LIG d   1      -3.040  79.836 113.152  0.00  0.00    -0.241 OA
ENDBRANCH   3  22
TORSDOF 7
ENDMDL
MODEL 2
REMARK VINA RESULT:      -5.9      8.056     11.031
REMARK  7 active torsions:
REMARK  status: ('A' for Active; 'I' for Inactive)
REMARK    1  A    between atoms: C_2  and  C_3 
REMARK    2  A    between atoms: C_3  and  O_6 
REMARK    3  A    between atoms: C_3  and  C_4 
REMARK    4  A    between atoms: C_7  and  O_6 
REMARK    5  A    between atoms: C_9  and  C_10 
REMARK    6  A    between atoms: N_15  and  C_14 
REMARK    7  A    between atoms: N_20  and  C_19 
REMARK       I    between atoms: C_22  and  N_20 
ROOT
ATOM      1  C   LIG d   1      -5.660  75.838 116.593  0.00  0.00     0.161 C 
ATOM      2  C   LIG d   1      -6.291  74.638 116.227  0.00  0.00     0.016 C 
ATOM      3  C   LIG d   1      -7.661  74.376 116.462  0.00  0.00     0.038 C 
ATOM      4  C   LIG d   1      -8.532  75.363 116.947  0.00  0.00     0.028 C 
ATOM      5  C   LIG d   1      -7.836  76.420 117.799  0.00  0.00    -0.047 C 
ATOM      6  C   LIG d   1      -6.618  76.969 117.022  0.00  0.00     0.091 C 
ENDROOT
BRANCH   1   7
ATOM      7  O   LIG d   1      -4.803  76.286 115.524  0.00  0.00    -0.368 OA
BRANCH   7   8
ATOM      8  C   LIG d   1      -3.390  76.009 115.681  0.00  0.00     0.119 C 
BRANCH   8   9
ATOM      9  C   LIG d   1      -3.090  75.972 117.192  0.00  0.00     0.028 C 
ATOM     10  C   LIG d   1      -2.055  74.896 117.559  0.00  0.00     0.006 C 
ENDBRANCH   8   9
BRANCH   8  11
ATOM     11  C   LIG d   1      -2.534  77.151 115.126  0.00  0.00     0.028 C 
ATOM     12  C   LIG d   1      -2.696  78.457 115.919  0.00  0.00     0.006 C 
ENDBRANCH   8  11
ENDBRANCH   7   8
ENDBRANCH   1   7
BRANCH   6  13
ATOM     13  N   LIG d   1      -5.832  77.947 117.818  0.00  0.00    -0.311 N 
ATOM     14  C   LIG d   1      -6.103  79.251 117.852  0.00  0.00     0.210 C 
ATOM     15  C   LIG d   1      -5.156  80.086 118.720  0.00  0.00     0.109 C 
ATOM     16  O   LIG d   1      -7.057  79.790 117.272  0.00  0.00    -0.276 OA
ATOM     17  H   LIG d   1      -5.059  77.591 118.344  0.00  0.00     0.149 HD
ENDBRANCH   6  13
BRANCH   5  18
ATOM     18  N   LIG d   1      -8.832  77.459 118.122  0.00  0.00     0.381 N 
ATOM     19  H   LIG d   1      -9.386  77.166 118.902  0.00  0.00    -0.090 HD
ATOM     20  H   LIG d   1      -9.441  77.583 117.332  0.00  0.00    -0.090 HD
ATOM     21  H   LIG d   1      -8.373  78.317 118.335  0.00  0.00    -0.090 HD
ENDBRANCH   5  18
BRANCH   3  22
ATOM     22  C   LIG d   1      -8.163  73.102 116.249  0.00  0.00     0.382 C 
ATOM     23  O   LIG d   1      -7.414  72.199 115.805  0.00  0.00    -0.241 OA
ATOM     24  O   LIG d   1      -9.367  72.855 116.454  0.00  0.00    -0.241 OA
ENDBRANCH   3  22
TORSDOF 7
ENDMDL
MODEL 3
REMARK VINA RESULT:      -5.8      1.871      4.933
REMARK  7 active torsions:
REMARK  status: ('A' for Active; 'I' for Inactive)
REMARK    1  A    between atoms: C_2  and  C_3 
REMARK    2  A    between atoms: C_3  and  O_6 
REMARK    3  A    between atoms: C_3  and  C_4 
REMARK    4  A    between atoms: C_7  and  O_6 
REMARK    5  A    between atoms: C_9  and  C_10 
REMARK    6  A    between atoms: N_15  and  C_14 
REMARK    7  A    between atoms: N_20  and  C_19 
REMARK       I    between atoms: C_22  and  N_20 
ROOT
ATOM      1  C   LIG d   1       1.669  83.188 112.045  0.00  0.00     0.161 C 
ATOM      2  C   LIG d   1       2.762  83.005 111.182  0.00  0.00     0.016 C 
ATOM      3  C   LIG d   1       2.863  81.928 110.271  0.00  0.00     0.038 C 
ATOM      4  C   LIG d   1       1.800  81.040 110.054  0.00  0.00     0.028 C 
ATOM      5  C   LIG d   1       0.880  80.888 111.261  0.00  0.00    -0.047 C 
ATOM      6  C   LIG d   1       0.450  82.292 111.743  0.00  0.00     0.091 C 
ENDROOT
BRANCH   1   7
ATOM      7  O   LIG d   1       1.281  84.576 112.054  0.00  0.00    -0.368 OA
BRANCH   7   8
ATOM      8  C   LIG d   1       1.915  85.422 111.063  0.00  0.00     0.119 C 
BRANCH   8   9
ATOM      9  C   LIG d   1       2.362  86.713 111.775  0.00  0.00     0.028 C 
ATOM     10  C   LIG d   1       2.357  86.571 113.306  0.00  0.00     0.006 C 
ENDBRANCH   8   9
BRANCH   8  11
ATOM     11  C   LIG d   1       0.916  85.873 109.993  0.00  0.00     0.028 C 
ATOM     12  C   LIG d   1      -0.406  86.381 110.589  0.00  0.00     0.006 C 
ENDBRANCH   8  11
ENDBRANCH   7   8
ENDBRANCH   1   7
BRANCH   6  13
ATOM     13  N   LIG d   1      -0.384  82.238 112.973  0.00  0.00    -0.311 N 
ATOM     14  C   LIG d   1      -1.705  82.070 112.956  0.00  0.00     0.210 C 
ATOM     15  C   LIG d   1      -2.374  82.064 114.334  0.00  0.00     0.109 C 
ATOM     16  O   LIG d   1      -2.383  81.894 111.932  0.00  0.00    -0.276 OA
ATOM     17  H   LIG d   1       0.089  82.341 113.849  0.00  0.00     0.149 HD
ENDBRANCH   6  13
BRANCH   5  18
ATOM     18  N   LIG d   1      -0.258  80.043 110.851  0.00  0.00     0.381 N 
ATOM     19  H   LIG d   1      -0.804  79.799 111.652  0.00  0.00    -0.090 HD
ATOM     20  H   LIG d   1       0.097  79.197 110.440  0.00  0.00    -0.090 HD
ATOM     21  H   LIG d   1      -0.823  80.530 110.191  0.00  0.00    -0.090 HD
ENDBRANCH   5  18
BRANCH   3  22
ATOM     22  C   LIG d   1       4.054  81.709 109.595  0.00  0.00     0.382 C 
ATOM     23  O   LIG d   1       4.407  80.539 109.311  0.00  0.00    -0.241 OA
ATOM     24  O   LIG d   1       4.800  82.663 109.305  0.00  0.00    -0.241 OA
ENDBRANCH   3  22
TORSDOF 7
ENDMDL
MODEL 4
REMARK VINA RESULT:      -5.8      2.234      5.007
REMARK  7 active torsions:
REMARK  status: ('A' for Active; 'I' for Inactive)
REMARK    1  A    between atoms: C_2  and  C_3 
REMARK    2  A    between atoms: C_3  and  O_6 
REMARK    3  A    between atoms: C_3  and  C_4 
REMARK    4  A    between atoms: C_7  and  O_6 
REMARK    5  A    between atoms: C_9  and  C_10 
REMARK    6  A    between atoms: N_15  and  C_14 
REMARK    7  A    between atoms: N_20  and  C_19 
REMARK       I    between atoms: C_22  and  N_20 
ROOT
ATOM      1  C   LIG d   1      -0.247  83.799 112.860  0.00  0.00     0.161 C 
ATOM      2  C   LIG d   1       0.535  84.875 112.409  0.00  0.00     0.016 C 
ATOM      3  C   LIG d   1       1.142  84.914 111.132  0.00  0.00     0.038 C 
ATOM      4  C   LIG d   1       0.880  83.940 110.157  0.00  0.00     0.028 C 
ATOM      5  C   LIG d   1       0.503  82.583 110.742  0.00  0.00    -0.047 C 
ATOM      6  C   LIG d   1      -0.635  82.778 111.770  0.00  0.00     0.091 C 
ENDROOT
BRANCH   1   7
ATOM      7  O   LIG d   1      -1.427  84.296 113.523  0.00  0.00    -0.368 OA
BRANCH   7   8
ATOM      8  C   LIG d   1      -1.459  84.148 114.964  0.00  0.00     0.119 C 
BRANCH   8   9
ATOM      9  C   LIG d   1      -1.118  85.519 115.578  0.00  0.00     0.028 C 
ATOM     10  C   LIG d   1       0.285  85.547 116.207  0.00  0.00     0.006 C 
ENDBRANCH   8   9
BRANCH   8  11
ATOM     11  C   LIG d   1      -0.360  83.200 115.451  0.00  0.00     0.028 C 
ATOM     12  C   LIG d   1      -0.918  81.938 116.127  0.00  0.00     0.006 C 
ENDBRANCH   8  11
ENDBRANCH   7   8
ENDBRANCH   1   7
BRANCH   6  13
ATOM     13  N   LIG d   1      -1.007  81.511 112.451  0.00  0.00    -0.311 N 
ATOM     14  C   LIG d   1      -2.267  81.122 112.639  0.00  0.00     0.210 C 
ATOM     15  C   LIG d   1      -2.429  79.792 113.382  0.00  0.00     0.109 C 
ATOM     16  O   LIG d   1      -3.265  81.737 112.233  0.00  0.00    -0.276 OA
ATOM     17  H   LIG d   1      -0.258  80.936 112.785  0.00  0.00     0.149 HD
ENDBRANCH   6  13
BRANCH   5  18
ATOM     18  N   LIG d   1       0.124  81.704 109.620  0.00  0.00     0.381 N 
ATOM     19  H   LIG d   1      -0.467  80.968 109.951  0.00  0.00    -0.090 HD
ATOM     20  H   LIG d   1       0.956  81.292 109.234  0.00  0.00    -0.090 HD
ATOM     21  H   LIG d   1      -0.350  82.230 108.919  0.00  0.00    -0.090 HD
ENDBRANCH   5  18
BRANCH   3  22
ATOM     22  C   LIG d   1       2.053  85.916 110.835  0.00  0.00     0.382 C 
ATOM     23  O   LIG d   1       1.653  87.090 110.642  0.00  0.00    -0.241 OA
ATOM     24  O   LIG d   1       3.264  85.653 110.714  0.00  0.00    -0.241 OA
ENDBRANCH   3  22
TORSDOF 7
ENDMDL
MODEL 5
REMARK VINA RESULT:      -5.7      1.166      1.836
REMARK  7 active torsions:
REMARK  status: ('A' for Active; 'I' for Inactive)
REMARK    1  A    between atoms: C_2  and  C_3 
REMARK    2  A    between atoms: C_3  and  O_6 
REMARK    3  A    between atoms: C_3  and  C_4 
REMARK    4  A    between atoms: C_7  and  O_6 
REMARK    5  A    between atoms: C_9  and  C_10 
REMARK    6  A    between atoms: N_15  and  C_14 
REMARK    7  A    between atoms: N_20  and  C_19 
REMARK       I    between atoms: C_22  and  N_20 
ROOT
ATOM      1  C   LIG d   1       0.222  83.061 112.097  0.00  0.00     0.161 C 
ATOM      2  C   LIG d   1      -0.996  82.581 112.608  0.00  0.00     0.016 C 
ATOM      3  C   LIG d   1      -1.508  81.294 112.320  0.00  0.00     0.038 C 
ATOM      4  C   LIG d   1      -0.758  80.338 111.619  0.00  0.00     0.028 C 
ATOM      5  C   LIG d   1       0.257  80.949 110.659  0.00  0.00    -0.047 C 
ATOM      6  C   LIG d   1       1.106  81.991 111.422  0.00  0.00     0.091 C 
ENDROOT
BRANCH   1   7
ATOM      7  O   LIG d   1       0.957  83.733 113.139  0.00  0.00    -0.368 OA
BRANCH   7   8
ATOM      8  C   LIG d   1       0.454  83.562 114.487  0.00  0.00     0.119 C 
BRANCH   8   9
ATOM      9  C   LIG d   1       0.388  84.958 115.137  0.00  0.00     0.028 C 
ATOM     10  C   LIG d   1      -1.056  85.409 115.413  0.00  0.00     0.006 C 
ENDBRANCH   8   9
BRANCH   8  11
ATOM     11  C   LIG d   1       1.432  82.759 115.348  0.00  0.00     0.028 C 
ATOM     12  C   LIG d   1       1.005  81.293 115.526  0.00  0.00     0.006 C 
ENDBRANCH   8  11
ENDBRANCH   7   8
ENDBRANCH   1   7
BRANCH   6  13
ATOM     13  N   LIG d   1       2.067  82.698 110.535  0.00  0.00    -0.311 N 
ATOM     14  C   LIG d   1       3.329  82.306 110.363  0.00  0.00     0.210 C 
ATOM     15  C   LIG d   1       4.156  83.187 109.422  0.00  0.00     0.109 C 
ATOM     16  O   LIG d   1       3.832  81.295 110.875  0.00  0.00    -0.276 OA
ATOM     17  H   LIG d   1       1.733  83.511 110.056  0.00  0.00     0.149 HD
ENDBRANCH   6  13
BRANCH   5  18
ATOM     18  N   LIG d   1       1.061  79.846 110.099  0.00  0.00     0.381 N 
ATOM     19  H   LIG d   1       1.685  80.202 109.402  0.00  0.00    -0.090 HD
ATOM     20  H   LIG d   1       0.444  79.184 109.662  0.00  0.00    -0.090 HD
ATOM     21  H   LIG d   1       1.579  79.401 110.824  0.00  0.00    -0.090 HD
ENDBRANCH   5  18
BRANCH   3  22
ATOM     22  C   LIG d   1      -2.800  80.968 112.702  0.00  0.00     0.382 C 
ATOM     23  O   LIG d   1      -3.732  81.789 112.526  0.00  0.00    -0.241 OA
ATOM     24  O   LIG d   1      -3.038  79.880 113.260  0.00  0.00    -0.241 OA
ENDBRANCH   3  22
TORSDOF 7
ENDMDL
MODEL 6
REMARK VINA RESULT:      -5.6      2.521      5.748
REMARK  7 active torsions:
REMARK  status: ('A' for Active; 'I' for Inactive)
REMARK    1  A    between atoms: C_2  and  C_3 
REMARK    2  A    between atoms: C_3  and  O_6 
REMARK    3  A    between atoms: C_3  and  C_4 
REMARK    4  A    between atoms: C_7  and  O_6 
REMARK    5  A    between atoms: C_9  and  C_10 
REMARK    6  A    between atoms: N_15  and  C_14 
REMARK    7  A    between atoms: N_20  and  C_19 
REMARK       I    between atoms: C_22  and  N_20 
ROOT
ATOM      1  C   LIG d   1       0.389  84.135 110.719  0.00  0.00     0.161 C 
ATOM      2  C   LIG d   1       1.174  85.299 110.656  0.00  0.00     0.016 C 
ATOM      3  C   LIG d   1       1.614  86.003 111.800  0.00  0.00     0.038 C 
ATOM      4  C   LIG d   1       1.424  85.503 113.097  0.00  0.00     0.028 C 
ATOM      5  C   LIG d   1       0.203  84.599 113.225  0.00  0.00    -0.047 C 
ATOM      6  C   LIG d   1       0.266  83.514 112.126  0.00  0.00     0.091 C 
ENDROOT
BRANCH   1   7
ATOM      7  O   LIG d   1       0.886  83.159 109.782  0.00  0.00    -0.368 OA
BRANCH   7   8
ATOM      8  C   LIG d   1       2.063  82.423 110.193  0.00  0.00     0.119 C 
BRANCH   8   9
ATOM      9  C   LIG d   1       3.272  83.033 109.457  0.00  0.00     0.028 C 
ATOM     10  C   LIG d   1       4.354  83.540 110.425  0.00  0.00     0.006 C 
ENDBRANCH   8   9
BRANCH   8  11
ATOM     11  C   LIG d   1       1.999  80.965 109.728  0.00  0.00     0.028 C 
ATOM     12  C   LIG d   1       0.585  80.536 109.306  0.00  0.00     0.006 C 
ENDBRANCH   8  11
ENDBRANCH   7   8
ENDBRANCH   1   7
BRANCH   6  13
ATOM     13  N   LIG d   1      -0.934  82.636 112.126  0.00  0.00    -0.311 N 
ATOM     14  C   LIG d   1      -0.907  81.357 112.494  0.00  0.00     0.210 C 
ATOM     15  C   LIG d   1      -2.251  80.628 112.401  0.00  0.00     0.109 C 
ATOM     16  O   LIG d   1       0.097  80.765 112.920  0.00  0.00    -0.276 OA
ATOM     17  H   LIG d   1      -1.798  83.044 111.825  0.00  0.00     0.149 HD
ENDBRANCH   6  13
BRANCH   5  18
ATOM     18  N   LIG d   1       0.204  84.040 114.590  0.00  0.00     0.381 N 
ATOM     19  H   LIG d   1       0.325  83.047 114.550  0.00  0.00    -0.090 HD
ATOM     20  H   LIG d   1      -0.684  84.232 115.020  0.00  0.00    -0.090 HD
ATOM     21  H   LIG d   1       0.937  84.449 115.126  0.00  0.00    -0.090 HD
ENDBRANCH   5  18
BRANCH   3  22
ATOM     22  C   LIG d   1       2.218  87.243 111.654  0.00  0.00     0.382 C 
ATOM     23  O   LIG d   1       1.514  88.281 111.603  0.00  0.00    -0.241 OA
ATOM     24  O   LIG d   1       3.454  87.333 111.528  0.00  0.00    -0.241 OA
ENDBRANCH   3  22
TORSDOF 7
ENDMDL
MODEL 7
REMARK VINA RESULT:      -5.5      3.612      7.189
REMARK  7 active torsions:
REMARK  status: ('A' for Active; 'I' for Inactive)
REMARK    1  A    between atoms: C_2  and  C_3 
REMARK    2  A    between atoms: C_3  and  O_6 
REMARK    3  A    between atoms: C_3  and  C_4 
REMARK    4  A    between atoms: C_7  and  O_6 
REMARK    5  A    between atoms: C_9  and  C_10 
REMARK    6  A    between atoms: N_15  and  C_14 
REMARK    7  A    between atoms: N_20  and  C_19 
REMARK       I    between atoms: C_22  and  N_20 
ROOT
ATOM      1  C   LIG d   1       1.858  86.003 112.590  0.00  0.00     0.161 C 
ATOM      2  C   LIG d   1       2.900  86.910 112.334  0.00  0.00     0.016 C 
ATOM      3  C   LIG d   1       3.589  87.611 113.350  0.00  0.00     0.038 C 
ATOM      4  C   LIG d   1       3.381  87.338 114.710  0.00  0.00     0.028 C 
ATOM      5  C   LIG d   1       1.988  86.800 115.015  0.00  0.00    -0.047 C 
ATOM      6  C   LIG d   1       1.693  85.610 114.073  0.00  0.00     0.091 C 
ENDROOT
BRANCH   1   7
ATOM      7  O   LIG d   1       2.022  84.826 111.775  0.00  0.00    -0.368 OA
BRANCH   7   8
ATOM      8  C   LIG d   1       2.427  85.053 110.402  0.00  0.00     0.119 C 
BRANCH   8   9
ATOM      9  C   LIG d   1       1.314  84.499 109.493  0.00  0.00     0.028 C 
ATOM     10  C   LIG d   1       0.159  85.498 109.305  0.00  0.00     0.006 C 
ENDBRANCH   8   9
BRANCH   8  11
ATOM     11  C   LIG d   1       3.679  84.244 110.050  0.00  0.00     0.028 C 
ATOM     12  C   LIG d   1       3.485  82.732 110.246  0.00  0.00     0.006 C 
ENDBRANCH   8  11
ENDBRANCH   7   8
ENDBRANCH   1   7
BRANCH   6  13
ATOM     13  N   LIG d   1       0.316  85.077 114.247  0.00  0.00    -0.311 N 
ATOM     14  C   LIG d   1       0.018  84.070 115.066  0.00  0.00     0.210 C 
ATOM     15  C   LIG d   1      -1.459  83.664 115.080  0.00  0.00     0.109 C 
ATOM     16  O   LIG d   1       0.831  83.496 115.806  0.00  0.00    -0.276 OA
ATOM     17  H   LIG d   1      -0.410  85.505 113.707  0.00  0.00     0.149 HD
ENDBRANCH   6  13
BRANCH   5  18
ATOM     18  N   LIG d   1       1.955  86.429 116.442  0.00  0.00     0.381 N 
ATOM     19  H   LIG d   1       2.500  87.079 116.973  0.00  0.00    -0.090 HD
ATOM     20  H   LIG d   1       2.359  85.516 116.550  0.00  0.00    -0.090 HD
ATOM     21  H   LIG d   1       1.015  86.426 116.772  0.00  0.00    -0.090 HD
ENDBRANCH   5  18
BRANCH   3  22
ATOM     22  C   LIG d   1       4.469  88.627 113.009  0.00  0.00     0.382 C 
ATOM     23  O   LIG d   1       4.066  89.814 112.957  0.00  0.00    -0.241 OA
ATOM     24  O   LIG d   1       5.649  88.366 112.709  0.00  0.00    -0.241 OA
ENDBRANCH   3  22
TORSDOF 7
ENDMDL
MODEL 8
REMARK VINA RESULT:      -5.4      1.878      4.869
REMARK  7 active torsions:
REMARK  status: ('A' for Active; 'I' for Inactive)
REMARK    1  A    between atoms: C_2  and  C_3 
REMARK    2  A    between atoms: C_3  and  O_6 
REMARK    3  A    between atoms: C_3  and  C_4 
REMARK    4  A    between atoms: C_7  and  O_6 
REMARK    5  A    between atoms: C_9  and  C_10 
REMARK    6  A    between atoms: N_15  and  C_14 
REMARK    7  A    between atoms: N_20  and  C_19 
REMARK       I    between atoms: C_22  and  N_20 
ROOT
ATOM      1  C   LIG d   1       1.309  81.932 112.610  0.00  0.00     0.161 C 
ATOM      2  C   LIG d   1       2.233  82.788 111.988  0.00  0.00     0.016 C 
ATOM      3  C   LIG d   1       2.392  82.876 110.586  0.00  0.00     0.038 C 
ATOM      4  C   LIG d   1       1.525  82.220 109.699  0.00  0.00     0.028 C 
ATOM      5  C   LIG d   1       0.905  80.956 110.283  0.00  0.00    -0.047 C 
ATOM      6  C   LIG d   1       0.278  81.292 111.656  0.00  0.00     0.091 C 
ENDROOT
BRANCH   1   7
ATOM      7  O   LIG d   1       0.637  82.631 113.677  0.00  0.00    -0.368 OA
BRANCH   7   8
ATOM      8  C   LIG d   1      -0.618  83.268 113.331  0.00  0.00     0.119 C 
BRANCH   8   9
ATOM      9  C   LIG d   1      -0.382  84.791 113.342  0.00  0.00     0.028 C 
ATOM     10  C   LIG d   1      -0.438  85.403 111.932  0.00  0.00     0.006 C 
ENDBRANCH   8   9
BRANCH   8  11
ATOM     11  C   LIG d   1      -1.684  83.015 114.401  0.00  0.00     0.028 C 
ATOM     12  C   LIG d   1      -1.175  82.137 115.554  0.00  0.00     0.006 C 
ENDBRANCH   8  11
ENDBRANCH   7   8
ENDBRANCH   1   7
BRANCH   6  13
ATOM     13  N   LIG d   1      -0.277  80.092 112.335  0.00  0.00    -0.311 N 
ATOM     14  C   LIG d   1      -1.582  79.849 112.443  0.00  0.00     0.210 C 
ATOM     15  C   LIG d   1      -1.941  78.565 113.198  0.00  0.00     0.109 C 
ATOM     16  O   LIG d   1      -2.476  80.558 111.956  0.00  0.00    -0.276 OA
ATOM     17  H   LIG d   1       0.379  79.447 112.731  0.00  0.00     0.149 HD
ENDBRANCH   6  13
BRANCH   5  18
ATOM     18  N   LIG d   1      -0.079  80.450 109.307  0.00  0.00     0.381 N 
ATOM     19  H   LIG d   1       0.396  80.076 108.510  0.00  0.00    -0.090 HD
ATOM     20  H   LIG d   1      -0.656  81.214 109.001  0.00  0.00    -0.090 HD
ATOM     21  H   LIG d   1      -0.645  79.745 109.727  0.00  0.00    -0.090 HD
ENDBRANCH   5  18
BRANCH   3  22
ATOM     22  C   LIG d   1       3.453  83.597 110.059  0.00  0.00     0.382 C 
ATOM     23  O   LIG d   1       4.322  83.015 109.365  0.00  0.00    -0.241 OA
ATOM     24  O   LIG d   1       3.575  84.812 110.304  0.00  0.00    -0.241 OA
ENDBRANCH   3  22
TORSDOF 7
ENDMDL
MODEL 9
REMARK VINA RESULT:      -5.4      2.915      4.710
REMARK  7 active torsions:
REMARK  status: ('A' for Active; 'I' for Inactive)
REMARK    1  A    between atoms: C_2  and  C_3 
REMARK    2  A    between atoms: C_3  and  O_6 
REMARK    3  A    between atoms: C_3  and  C_4 
REMARK    4  A    between atoms: C_7  and  O_6 
REMARK    5  A    between atoms: C_9  and  C_10 
REMARK    6  A    between atoms: N_15  and  C_14 
REMARK    7  A    between atoms: N_20  and  C_19 
REMARK       I    between atoms: C_22  and  N_20 
ROOT
ATOM      1  C   LIG d   1       1.475  84.431 113.196  0.00  0.00     0.161 C 
ATOM      2  C   LIG d   1       0.498  83.479 112.859  0.00  0.00     0.016 C 
ATOM      3  C   LIG d   1      -0.792  83.451 113.437  0.00  0.00     0.038 C 
ATOM      4  C   LIG d   1      -1.247  84.471 114.285  0.00  0.00     0.028 C 
ATOM      5  C   LIG d   1      -0.126  85.174 115.043  0.00  0.00    -0.047 C 
ATOM      6  C   LIG d   1       0.959  85.618 114.036  0.00  0.00     0.091 C 
ENDROOT
BRANCH   1   7
ATOM      7  O   LIG d   1       2.124  84.908 112.000  0.00  0.00    -0.368 OA
BRANCH   7   8
ATOM      8  C   LIG d   1       1.344  84.842 110.782  0.00  0.00     0.119 C 
BRANCH   8   9
ATOM      9  C   LIG d   1       2.282  84.361 109.657  0.00  0.00     0.028 C 
ATOM     10  C   LIG d   1       3.724  84.147 110.147  0.00  0.00     0.006 C 
ENDBRANCH   8   9
BRANCH   8  11
ATOM     11  C   LIG d   1       0.869  86.232 110.347  0.00  0.00     0.028 C 
ATOM     12  C   LIG d   1      -0.634  86.449 110.584  0.00  0.00     0.006 C 
ENDBRANCH   8  11
ENDBRANCH   7   8
ENDBRANCH   1   7
BRANCH   6  13
ATOM     13  N   LIG d   1       2.132  86.239 114.704  0.00  0.00    -0.311 N 
ATOM     14  C   LIG d   1       2.688  87.380 114.299  0.00  0.00     0.210 C 
ATOM     15  C   LIG d   1       3.901  87.835 115.116  0.00  0.00     0.109 C 
ATOM     16  O   LIG d   1       2.271  88.075 113.360  0.00  0.00    -0.276 OA
ATOM     17  H   LIG d   1       2.515  85.758 115.495  0.00  0.00     0.149 HD
ENDBRANCH   6  13
BRANCH   5  18
ATOM     18  N   LIG d   1      -0.726  86.301 115.781  0.00  0.00     0.381 N 
ATOM     19  H   LIG d   1      -1.088  85.979 116.657  0.00  0.00    -0.090 HD
ATOM     20  H   LIG d   1      -1.488  86.673 115.243  0.00  0.00    -0.090 HD
ATOM     21  H   LIG d   1      -0.043  87.009 115.937  0.00  0.00    -0.090 HD
ENDBRANCH   5  18
BRANCH   3  22
ATOM     22  C   LIG d   1      -1.628  82.370 113.198  0.00  0.00     0.382 C 
ATOM     23  O   LIG d   1      -2.057  82.154 112.039  0.00  0.00    -0.241 OA
ATOM     24  O   LIG d   1      -1.994  81.636 114.135  0.00  0.00    -0.241 OA
ENDBRANCH   3  22
TORSDOF 7
ENDMDL
