MODEL 1
REMARK VINA RESULT:      -6.4      0.000      0.000
REMARK  7 active torsions:
REMARK  status: ('A' for Active; 'I' for Inactive)
REMARK    1  A    between atoms: C_2  and  C_3 
REMARK    2  A    between atoms: C_3  and  O_6 
REMARK    3  A    between atoms: C_3  and  C_4 
REMARK    4  A    between atoms: C_7  and  O_6 
REMARK    5  A    between atoms: C_9  and  C_10 
REMARK    6  A    between atoms: N_15  and  C_14 
REMARK    7  A    between atoms: N_20  and  C_19 
REMARK       I    between atoms: C_22  and  N_20 
ROOT
ATOM      1  C   LIG d   1       2.531  83.448 110.164  0.00  0.00     0.161 C 
ATOM      2  C   LIG d   1       2.957  84.700 110.639  0.00  0.00     0.016 C 
ATOM      3  C   LIG d   1       2.068  85.718 111.055  0.00  0.00     0.038 C 
ATOM      4  C   LIG d   1       0.687  85.496 111.167  0.00  0.00     0.028 C 
ATOM      5  C   LIG d   1       0.168  84.419 110.221  0.00  0.00    -0.047 C 
ATOM      6  C   LIG d   1       1.034  83.148 110.384  0.00  0.00     0.091 C 
ENDROOT
BRANCH   1   7
ATOM      7  O   LIG d   1       3.341  82.405 110.742  0.00  0.00    -0.368 OA
BRANCH   7   8
ATOM      8  C   LIG d   1       4.752  82.701 110.889  0.00  0.00     0.119 C 
BRANCH   8   9
ATOM      9  C   LIG d   1       5.529  81.696 110.018  0.00  0.00     0.028 C 
ATOM     10  C   LIG d   1       4.617  80.614 109.415  0.00  0.00     0.006 C 
ENDBRANCH   8   9
BRANCH   8  11
ATOM     11  C   LIG d   1       5.227  82.449 112.323  0.00  0.00     0.028 C 
ATOM     12  C   LIG d   1       4.278  81.534 113.113  0.00  0.00     0.006 C 
ENDBRANCH   8  11
ENDBRANCH   7   8
ENDBRANCH   1   7
BRANCH   6  13
ATOM     13  N   LIG d   1       0.646  82.073 109.434  0.00  0.00    -0.311 N 
ATOM     14  C   LIG d   1       0.415  80.815 109.806  0.00  0.00     0.210 C 
ATOM     15  C   LIG d   1       0.048  79.860 108.666  0.00  0.00     0.109 C 
ATOM     16  O   LIG d   1       0.447  80.406 110.977  0.00  0.00    -0.276 OA
ATOM     17  H   LIG d   1       0.566  82.324 108.469  0.00  0.00     0.149 HD
ENDBRANCH   6  13
BRANCH   5  18
ATOM     18  N   LIG d   1      -1.255  84.194 110.540  0.00  0.00     0.381 N 
ATOM     19  H   LIG d   1      -1.731  85.071 110.599  0.00  0.00    -0.090 HD
ATOM     20  H   LIG d   1      -1.320  83.738 111.433  0.00  0.00    -0.090 HD
ATOM     21  H   LIG d   1      -1.676  83.626 109.838  0.00  0.00    -0.090 HD
ENDBRANCH   5  18
BRANCH   3  22
ATOM     22  C   LIG d   1       2.555  86.987 111.326  0.00  0.00     0.382 C 
ATOM     23  O   LIG d   1       1.762  87.914 111.620  0.00  0.00    -0.241 OA
ATOM     24  O   LIG d   1       3.774  87.228 111.237  0.00  0.00    -0.241 OA
ENDBRANCH   3  22
TORSDOF 7
ENDMDL
MODEL 2
REMARK VINA RESULT:      -6.3      2.623      5.171
REMARK  7 active torsions:
REMARK  status: ('A' for Active; 'I' for Inactive)
REMARK    1  A    between atoms: C_2  and  C_3 
REMARK    2  A    between atoms: C_3  and  O_6 
REMARK    3  A    between atoms: C_3  and  C_4 
REMARK    4  A    between atoms: C_7  and  O_6 
REMARK    5  A    between atoms: C_9  and  C_10 
REMARK    6  A    between atoms: N_15  and  C_14 
REMARK    7  A    between atoms: N_20  and  C_19 
REMARK       I    between atoms: C_22  and  N_20 
ROOT
ATOM      1  C   LIG d   1       1.146  83.035 111.153  0.00  0.00     0.161 C 
ATOM      2  C   LIG d   1      -0.004  82.249 111.335  0.00  0.00     0.016 C 
ATOM      3  C   LIG d   1      -1.043  82.586 112.232  0.00  0.00     0.038 C 
ATOM      4  C   LIG d   1      -1.074  83.819 112.902  0.00  0.00     0.028 C 
ATOM      5  C   LIG d   1       0.310  84.417 113.133  0.00  0.00    -0.047 C 
ATOM      6  C   LIG d   1       1.078  84.438 111.792  0.00  0.00     0.091 C 
ENDROOT
BRANCH   1   7
ATOM      7  O   LIG d   1       1.449  83.139 109.747  0.00  0.00    -0.368 OA
BRANCH   7   8
ATOM      8  C   LIG d   1       2.398  82.175 109.227  0.00  0.00     0.119 C 
BRANCH   8   9
ATOM      9  C   LIG d   1       3.782  82.532 109.802  0.00  0.00     0.028 C 
ATOM     10  C   LIG d   1       4.844  82.714 108.705  0.00  0.00     0.006 C 
ENDBRANCH   8   9
BRANCH   8  11
ATOM     11  C   LIG d   1       2.545  82.302 107.708  0.00  0.00     0.028 C 
ATOM     12  C   LIG d   1       1.476  83.211 107.080  0.00  0.00     0.006 C 
ENDBRANCH   8  11
ENDBRANCH   7   8
ENDBRANCH   1   7
BRANCH   6  13
ATOM     13  N   LIG d   1       2.472  84.931 111.944  0.00  0.00    -0.311 N 
ATOM     14  C   LIG d   1       2.968  85.954 111.250  0.00  0.00     0.210 C 
ATOM     15  C   LIG d   1       4.434  86.286 111.546  0.00  0.00     0.109 C 
ATOM     16  O   LIG d   1       2.324  86.638 110.441  0.00  0.00    -0.276 OA
ATOM     17  H   LIG d   1       3.055  84.453 112.603  0.00  0.00     0.149 HD
ENDBRANCH   6  13
BRANCH   5  18
ATOM     18  N   LIG d   1       0.124  85.760 113.714  0.00  0.00     0.381 N 
ATOM     19  H   LIG d   1       0.576  85.809 114.605  0.00  0.00    -0.090 HD
ATOM     20  H   LIG d   1      -0.859  85.922 113.849  0.00  0.00    -0.090 HD
ATOM     21  H   LIG d   1       0.501  86.451 113.103  0.00  0.00    -0.090 HD
ENDBRANCH   5  18
BRANCH   3  22
ATOM     22  C   LIG d   1      -2.047  81.668 112.498  0.00  0.00     0.382 C 
ATOM     23  O   LIG d   1      -1.890  80.461 112.193  0.00  0.00    -0.241 OA
ATOM     24  O   LIG d   1      -3.126  82.038 112.998  0.00  0.00    -0.241 OA
ENDBRANCH   3  22
TORSDOF 7
ENDMDL
MODEL 3
REMARK VINA RESULT:      -6.2      2.534      5.519
REMARK  7 active torsions:
REMARK  status: ('A' for Active; 'I' for Inactive)
REMARK    1  A    between atoms: C_2  and  C_3 
REMARK    2  A    between atoms: C_3  and  O_6 
REMARK    3  A    between atoms: C_3  and  C_4 
REMARK    4  A    between atoms: C_7  and  O_6 
REMARK    5  A    between atoms: C_9  and  C_10 
REMARK    6  A    between atoms: N_15  and  C_14 
REMARK    7  A    between atoms: N_20  and  C_19 
REMARK       I    between atoms: C_22  and  N_20 
ROOT
ATOM      1  C   LIG d   1       0.041  82.696 111.326  0.00  0.00     0.161 C 
ATOM      2  C   LIG d   1      -1.075  82.372 112.115  0.00  0.00     0.016 C 
ATOM      3  C   LIG d   1      -1.528  81.048 112.316  0.00  0.00     0.038 C 
ATOM      4  C   LIG d   1      -0.801  79.938 111.861  0.00  0.00     0.028 C 
ATOM      5  C   LIG d   1       0.054  80.236 110.633  0.00  0.00    -0.047 C 
ATOM      6  C   LIG d   1       0.912  81.491 110.912  0.00  0.00     0.091 C 
ENDROOT
BRANCH   1   7
ATOM      7  O   LIG d   1       0.843  83.687 111.997  0.00  0.00    -0.368 OA
BRANCH   7   8
ATOM      8  C   LIG d   1       0.897  84.993 111.373  0.00  0.00     0.119 C 
BRANCH   8   9
ATOM      9  C   LIG d   1      -0.082  84.978 110.183  0.00  0.00     0.028 C 
ATOM     10  C   LIG d   1      -1.204  86.020 110.332  0.00  0.00     0.006 C 
ENDBRANCH   8   9
BRANCH   8  11
ATOM     11  C   LIG d   1       2.275  85.262 110.761  0.00  0.00     0.028 C 
ATOM     12  C   LIG d   1       3.421  84.651 111.583  0.00  0.00     0.006 C 
ENDBRANCH   8  11
ENDBRANCH   7   8
ENDBRANCH   1   7
BRANCH   6  13
ATOM     13  N   LIG d   1       1.716  81.902 109.732  0.00  0.00    -0.311 N 
ATOM     14  C   LIG d   1       2.994  81.568 109.563  0.00  0.00     0.210 C 
ATOM     15  C   LIG d   1       3.642  82.112 108.286  0.00  0.00     0.109 C 
ATOM     16  O   LIG d   1       3.644  80.845 110.334  0.00  0.00    -0.276 OA
ATOM     17  H   LIG d   1       1.258  82.464 109.041  0.00  0.00     0.149 HD
ENDBRANCH   6  13
BRANCH   5  18
ATOM     18  N   LIG d   1       0.861  79.035 110.350  0.00  0.00     0.381 N 
ATOM     19  H   LIG d   1       1.834  79.256 110.421  0.00  0.00    -0.090 HD
ATOM     20  H   LIG d   1       0.675  78.732 109.410  0.00  0.00    -0.090 HD
ATOM     21  H   LIG d   1       0.631  78.310 110.993  0.00  0.00    -0.090 HD
ENDBRANCH   5  18
BRANCH   3  22
ATOM     22  C   LIG d   1      -2.743  80.825 112.946  0.00  0.00     0.382 C 
ATOM     23  O   LIG d   1      -2.865  79.874 113.755  0.00  0.00    -0.241 OA
ATOM     24  O   LIG d   1      -3.731  81.536 112.681  0.00  0.00    -0.241 OA
ENDBRANCH   3  22
TORSDOF 7
ENDMDL
MODEL 4
REMARK VINA RESULT:      -6.1      1.930      2.631
REMARK  7 active torsions:
REMARK  status: ('A' for Active; 'I' for Inactive)
REMARK    1  A    between atoms: C_2  and  C_3 
REMARK    2  A    between atoms: C_3  and  O_6 
REMARK    3  A    between atoms: C_3  and  C_4 
REMARK    4  A    between atoms: C_7  and  O_6 
REMARK    5  A    between atoms: C_9  and  C_10 
REMARK    6  A    between atoms: N_15  and  C_14 
REMARK    7  A    between atoms: N_20  and  C_19 
REMARK       I    between atoms: C_22  and  N_20 
ROOT
ATOM      1  C   LIG d   1       2.272  83.747 110.579  0.00  0.00     0.161 C 
ATOM      2  C   LIG d   1       2.838  85.032 110.651  0.00  0.00     0.016 C 
ATOM      3  C   LIG d   1       2.594  85.931 111.714  0.00  0.00     0.038 C 
ATOM      4  C   LIG d   1       1.884  85.548 112.861  0.00  0.00     0.028 C 
ATOM      5  C   LIG d   1       0.874  84.435 112.605  0.00  0.00    -0.047 C 
ATOM      6  C   LIG d   1       1.584  83.271 111.876  0.00  0.00     0.091 C 
ENDROOT
BRANCH   1   7
ATOM      7  O   LIG d   1       3.272  82.796 110.164  0.00  0.00    -0.368 OA
BRANCH   7   8
ATOM      8  C   LIG d   1       3.449  82.641 108.734  0.00  0.00     0.119 C 
BRANCH   8   9
ATOM      9  C   LIG d   1       2.096  82.198 108.146  0.00  0.00     0.028 C 
ATOM     10  C   LIG d   1       1.632  83.104 106.993  0.00  0.00     0.006 C 
ENDBRANCH   8   9
BRANCH   8  11
ATOM     11  C   LIG d   1       4.422  81.502 108.414  0.00  0.00     0.028 C 
ATOM     12  C   LIG d   1       5.112  80.938 109.666  0.00  0.00     0.006 C 
ENDBRANCH   8  11
ENDBRANCH   7   8
ENDBRANCH   1   7
BRANCH   6  13
ATOM     13  N   LIG d   1       0.649  82.175 111.512  0.00  0.00    -0.311 N 
ATOM     14  C   LIG d   1       0.407  81.127 112.297  0.00  0.00     0.210 C 
ATOM     15  C   LIG d   1      -0.576  80.102 111.722  0.00  0.00     0.109 C 
ATOM     16  O   LIG d   1       0.887  80.965 113.429  0.00  0.00    -0.276 OA
ATOM     17  H   LIG d   1       0.191  82.242 110.624  0.00  0.00     0.149 HD
ENDBRANCH   6  13
BRANCH   5  18
ATOM     18  N   LIG d   1       0.305  84.040 113.907  0.00  0.00     0.381 N 
ATOM     19  H   LIG d   1       0.863  83.316 114.315  0.00  0.00    -0.090 HD
ATOM     20  H   LIG d   1      -0.621  83.679 113.762  0.00  0.00    -0.090 HD
ATOM     21  H   LIG d   1       0.271  84.827 114.517  0.00  0.00    -0.090 HD
ENDBRANCH   5  18
BRANCH   3  22
ATOM     22  C   LIG d   1       3.030  87.244 111.617  0.00  0.00     0.382 C 
ATOM     23  O   LIG d   1       4.255  87.490 111.503  0.00  0.00    -0.241 OA
ATOM     24  O   LIG d   1       2.219  88.186 111.687  0.00  0.00    -0.241 OA
ENDBRANCH   3  22
TORSDOF 7
ENDMDL
MODEL 5
REMARK VINA RESULT:      -6.0      1.977      3.498
REMARK  7 active torsions:
REMARK  status: ('A' for Active; 'I' for Inactive)
REMARK    1  A    between atoms: C_2  and  C_3 
REMARK    2  A    between atoms: C_3  and  O_6 
REMARK    3  A    between atoms: C_3  and  C_4 
REMARK    4  A    between atoms: C_7  and  O_6 
REMARK    5  A    between atoms: C_9  and  C_10 
REMARK    6  A    between atoms: N_15  and  C_14 
REMARK    7  A    between atoms: N_20  and  C_19 
REMARK       I    between atoms: C_22  and  N_20 
ROOT
ATOM      1  C   LIG d   1       2.213  84.895 110.570  0.00  0.00     0.161 C 
ATOM      2  C   LIG d   1       1.170  85.663 111.114  0.00  0.00     0.016 C 
ATOM      3  C   LIG d   1      -0.145  85.174 111.294  0.00  0.00     0.038 C 
ATOM      4  C   LIG d   1      -0.470  83.826 111.081  0.00  0.00     0.028 C 
ATOM      5  C   LIG d   1       0.427  83.142 110.055  0.00  0.00    -0.047 C 
ATOM      6  C   LIG d   1       1.905  83.389 110.436  0.00  0.00     0.091 C 
ENDROOT
BRANCH   1   7
ATOM      7  O   LIG d   1       3.417  85.094 111.337  0.00  0.00    -0.368 OA
BRANCH   7   8
ATOM      8  C   LIG d   1       3.247  85.205 112.772  0.00  0.00     0.119 C 
BRANCH   8   9
ATOM      9  C   LIG d   1       4.045  86.439 113.238  0.00  0.00     0.028 C 
ATOM     10  C   LIG d   1       4.736  87.165 112.072  0.00  0.00     0.006 C 
ENDBRANCH   8   9
BRANCH   8  11
ATOM     11  C   LIG d   1       3.878  84.016 113.502  0.00  0.00     0.028 C 
ATOM     12  C   LIG d   1       4.795  83.179 112.596  0.00  0.00     0.006 C 
ENDBRANCH   8  11
ENDBRANCH   7   8
ENDBRANCH   1   7
BRANCH   6  13
ATOM     13  N   LIG d   1       2.849  82.824 109.437  0.00  0.00    -0.311 N 
ATOM     14  C   LIG d   1       3.393  81.613 109.546  0.00  0.00     0.210 C 
ATOM     15  C   LIG d   1       4.356  81.234 108.417  0.00  0.00     0.109 C 
ATOM     16  O   LIG d   1       3.144  80.805 110.453  0.00  0.00    -0.276 OA
ATOM     17  H   LIG d   1       3.082  83.401 108.652  0.00  0.00     0.149 HD
ENDBRANCH   6  13
BRANCH   5  18
ATOM     18  N   LIG d   1       0.068  81.711 110.033  0.00  0.00     0.381 N 
ATOM     19  H   LIG d   1       0.763  81.180 110.517  0.00  0.00    -0.090 HD
ATOM     20  H   LIG d   1       0.038  81.398 109.079  0.00  0.00    -0.090 HD
ATOM     21  H   LIG d   1      -0.821  81.576 110.462  0.00  0.00    -0.090 HD
ENDBRANCH   5  18
BRANCH   3  22
ATOM     22  C   LIG d   1      -1.160  86.048 111.654  0.00  0.00     0.382 C 
ATOM     23  O   LIG d   1      -1.593  86.055 112.831  0.00  0.00    -0.241 OA
ATOM     24  O   LIG d   1      -1.678  86.798 110.805  0.00  0.00    -0.241 OA
ENDBRANCH   3  22
TORSDOF 7
ENDMDL
MODEL 6
REMARK VINA RESULT:      -5.9      2.151      2.793
REMARK  7 active torsions:
REMARK  status: ('A' for Active; 'I' for Inactive)
REMARK    1  A    between atoms: C_2  and  C_3 
REMARK    2  A    between atoms: C_3  and  O_6 
REMARK    3  A    between atoms: C_3  and  C_4 
REMARK    4  A    between atoms: C_7  and  O_6 
REMARK    5  A    between atoms: C_9  and  C_10 
REMARK    6  A    between atoms: N_15  and  C_14 
REMARK    7  A    between atoms: N_20  and  C_19 
REMARK       I    between atoms: C_22  and  N_20 
ROOT
ATOM      1  C   LIG d   1       0.802  82.989 110.164  0.00  0.00     0.161 C 
ATOM      2  C   LIG d   1       0.833  84.379 110.370  0.00  0.00     0.016 C 
ATOM      3  C   LIG d   1       0.031  85.041 111.328  0.00  0.00     0.038 C 
ATOM      4  C   LIG d   1      -0.751  84.337 112.255  0.00  0.00     0.028 C 
ATOM      5  C   LIG d   1      -1.199  82.968 111.753  0.00  0.00    -0.047 C 
ATOM      6  C   LIG d   1       0.037  82.193 111.241  0.00  0.00     0.091 C 
ENDROOT
BRANCH   1   7
ATOM      7  O   LIG d   1       2.145  82.485 110.028  0.00  0.00    -0.368 OA
BRANCH   7   8
ATOM      8  C   LIG d   1       2.925  83.034 108.937  0.00  0.00     0.119 C 
BRANCH   8   9
ATOM      9  C   LIG d   1       2.451  82.349 107.640  0.00  0.00     0.028 C 
ATOM     10  C   LIG d   1       1.591  83.278 106.766  0.00  0.00     0.006 C 
ENDBRANCH   8   9
BRANCH   8  11
ATOM     11  C   LIG d   1       4.406  82.668 109.071  0.00  0.00     0.028 C 
ATOM     12  C   LIG d   1       4.673  81.172 108.847  0.00  0.00     0.006 C 
ENDBRANCH   8  11
ENDBRANCH   7   8
ENDBRANCH   1   7
BRANCH   6  13
ATOM     13  N   LIG d   1      -0.324  80.875 110.655  0.00  0.00    -0.311 N 
ATOM     14  C   LIG d   1      -0.540  79.782 111.385  0.00  0.00     0.210 C 
ATOM     15  C   LIG d   1      -0.880  78.524 110.580  0.00  0.00     0.109 C 
ATOM     16  O   LIG d   1      -0.514  79.743 112.624  0.00  0.00    -0.276 OA
ATOM     17  H   LIG d   1      -0.397  80.825 109.658  0.00  0.00     0.149 HD
ENDBRANCH   6  13
BRANCH   5  18
ATOM     18  N   LIG d   1      -1.887  82.288 112.867  0.00  0.00     0.381 N 
ATOM     19  H   LIG d   1      -2.746  81.891 112.542  0.00  0.00    -0.090 HD
ATOM     20  H   LIG d   1      -2.102  82.965 113.578  0.00  0.00    -0.090 HD
ATOM     21  H   LIG d   1      -1.304  81.574 113.243  0.00  0.00    -0.090 HD
ENDBRANCH   5  18
BRANCH   3  22
ATOM     22  C   LIG d   1      -0.023  86.427 111.339  0.00  0.00     0.382 C 
ATOM     23  O   LIG d   1      -1.120  87.012 111.172  0.00  0.00    -0.241 OA
ATOM     24  O   LIG d   1       1.018  87.099 111.468  0.00  0.00    -0.241 OA
ENDBRANCH   3  22
TORSDOF 7
ENDMDL
MODEL 7
REMARK VINA RESULT:      -5.8      2.045      3.035
REMARK  7 active torsions:
REMARK  status: ('A' for Active; 'I' for Inactive)
REMARK    1  A    between atoms: C_2  and  C_3 
REMARK    2  A    between atoms: C_3  and  O_6 
REMARK    3  A    between atoms: C_3  and  C_4 
REMARK    4  A    between atoms: C_7  and  O_6 
REMARK    5  A    between atoms: C_9  and  C_10 
REMARK    6  A    between atoms: N_15  and  C_14 
REMARK    7  A    between atoms: N_20  and  C_19 
REMARK       I    between atoms: C_22  and  N_20 
ROOT
ATOM      1  C   LIG d   1       1.399  82.965 110.156  0.00  0.00     0.161 C 
ATOM      2  C   LIG d   1       0.713  84.180 110.317  0.00  0.00     0.016 C 
ATOM      3  C   LIG d   1      -0.318  84.372 111.266  0.00  0.00     0.038 C 
ATOM      4  C   LIG d   1      -0.631  83.400 112.227  0.00  0.00     0.028 C 
ATOM      5  C   LIG d   1      -0.312  81.978 111.777  0.00  0.00    -0.047 C 
ATOM      6  C   LIG d   1       1.148  81.928 111.271  0.00  0.00     0.091 C 
ENDROOT
BRANCH   1   7
ATOM      7  O   LIG d   1       2.812  83.217 110.015  0.00  0.00    -0.368 OA
BRANCH   7   8
ATOM      8  C   LIG d   1       3.456  83.877 111.132  0.00  0.00     0.119 C 
BRANCH   8   9
ATOM      9  C   LIG d   1       4.162  85.132 110.583  0.00  0.00     0.028 C 
ATOM     10  C   LIG d   1       3.862  86.387 111.420  0.00  0.00     0.006 C 
ENDBRANCH   8   9
BRANCH   8  11
ATOM     11  C   LIG d   1       4.572  83.011 111.723  0.00  0.00     0.028 C 
ATOM     12  C   LIG d   1       5.021  81.889 110.774  0.00  0.00     0.006 C 
ENDBRANCH   8  11
ENDBRANCH   7   8
ENDBRANCH   1   7
BRANCH   6  13
ATOM     13  N   LIG d   1       1.516  80.592 110.733  0.00  0.00    -0.311 N 
ATOM     14  C   LIG d   1       0.831  79.975 109.771  0.00  0.00     0.210 C 
ATOM     15  C   LIG d   1       1.369  78.596 109.377  0.00  0.00     0.109 C 
ATOM     16  O   LIG d   1      -0.151  80.453 109.184  0.00  0.00    -0.276 OA
ATOM     17  H   LIG d   1       2.318  80.145 111.131  0.00  0.00     0.149 HD
ENDBRANCH   6  13
BRANCH   5  18
ATOM     18  N   LIG d   1      -0.557  81.082 112.923  0.00  0.00     0.381 N 
ATOM     19  H   LIG d   1      -0.546  81.609 113.773  0.00  0.00    -0.090 HD
ATOM     20  H   LIG d   1       0.179  80.399 112.965  0.00  0.00    -0.090 HD
ATOM     21  H   LIG d   1      -1.437  80.626 112.817  0.00  0.00    -0.090 HD
ENDBRANCH   5  18
BRANCH   3  22
ATOM     22  C   LIG d   1      -1.075  85.533 111.233  0.00  0.00     0.382 C 
ATOM     23  O   LIG d   1      -1.469  86.055 112.304  0.00  0.00    -0.241 OA
ATOM     24  O   LIG d   1      -1.406  86.041 110.145  0.00  0.00    -0.241 OA
ENDBRANCH   3  22
TORSDOF 7
ENDMDL
MODEL 8
REMARK VINA RESULT:      -5.8      2.883      4.927
REMARK  7 active torsions:
REMARK  status: ('A' for Active; 'I' for Inactive)
REMARK    1  A    between atoms: C_2  and  C_3 
REMARK    2  A    between atoms: C_3  and  O_6 
REMARK    3  A    between atoms: C_3  and  C_4 
REMARK    4  A    between atoms: C_7  and  O_6 
REMARK    5  A    between atoms: C_9  and  C_10 
REMARK    6  A    between atoms: N_15  and  C_14 
REMARK    7  A    between atoms: N_20  and  C_19 
REMARK       I    between atoms: C_22  and  N_20 
ROOT
ATOM      1  C   LIG d   1       1.804  81.252 111.341  0.00  0.00     0.161 C 
ATOM      2  C   LIG d   1       2.952  81.882 110.834  0.00  0.00     0.016 C 
ATOM      3  C   LIG d   1       3.550  81.535 109.601  0.00  0.00     0.038 C 
ATOM      4  C   LIG d   1       2.948  80.631 108.713  0.00  0.00     0.028 C 
ATOM      5  C   LIG d   1       2.060  79.603 109.406  0.00  0.00    -0.047 C 
ATOM      6  C   LIG d   1       1.069  80.340 110.335  0.00  0.00     0.091 C 
ENDROOT
BRANCH   1   7
ATOM      7  O   LIG d   1       0.900  82.240 111.874  0.00  0.00    -0.368 OA
BRANCH   7   8
ATOM      8  C   LIG d   1       1.157  83.613 111.490  0.00  0.00     0.119 C 
BRANCH   8   9
ATOM      9  C   LIG d   1       0.777  84.507 112.685  0.00  0.00     0.028 C 
ATOM     10  C   LIG d   1      -0.734  84.495 112.970  0.00  0.00     0.006 C 
ENDBRANCH   8   9
BRANCH   8  11
ATOM     11  C   LIG d   1       0.238  84.052 110.346  0.00  0.00     0.028 C 
ATOM     12  C   LIG d   1       1.012  84.621 109.146  0.00  0.00     0.006 C 
ENDBRANCH   8  11
ENDBRANCH   7   8
ENDBRANCH   1   7
BRANCH   6  13
ATOM     13  N   LIG d   1       0.219  79.404 111.115  0.00  0.00    -0.311 N 
ATOM     14  C   LIG d   1      -0.892  78.848 110.633  0.00  0.00     0.210 C 
ATOM     15  C   LIG d   1      -1.630  77.927 111.611  0.00  0.00     0.109 C 
ATOM     16  O   LIG d   1      -1.318  79.004 109.479  0.00  0.00    -0.276 OA
ATOM     17  H   LIG d   1       0.508  79.197 112.051  0.00  0.00     0.149 HD
ENDBRANCH   6  13
BRANCH   5  18
ATOM     18  N   LIG d   1       1.389  78.814 108.355  0.00  0.00     0.381 N 
ATOM     19  H   LIG d   1       0.409  78.757 108.548  0.00  0.00    -0.090 HD
ATOM     20  H   LIG d   1       1.765  77.882 108.358  0.00  0.00    -0.090 HD
ATOM     21  H   LIG d   1       1.535  79.236 107.465  0.00  0.00    -0.090 HD
ENDBRANCH   5  18
BRANCH   3  22
ATOM     22  C   LIG d   1       4.786  82.066 109.262  0.00  0.00     0.382 C 
ATOM     23  O   LIG d   1       4.918  82.716 108.198  0.00  0.00    -0.241 OA
ATOM     24  O   LIG d   1       5.779  81.864 109.986  0.00  0.00    -0.241 OA
ENDBRANCH   3  22
TORSDOF 7
ENDMDL
MODEL 9
REMARK VINA RESULT:      -5.7      2.070      2.988
REMARK  7 active torsions:
REMARK  status: ('A' for Active; 'I' for Inactive)
REMARK    1  A    between atoms: C_2  and  C_3 
REMARK    2  A    between atoms: C_3  and  O_6 
REMARK    3  A    between atoms: C_3  and  C_4 
REMARK    4  A    between atoms: C_7  and  O_6 
REMARK    5  A    between atoms: C_9  and  C_10 
REMARK    6  A    between atoms: N_15  and  C_14 
REMARK    7  A    between atoms: N_20  and  C_19 
REMARK       I    between atoms: C_22  and  N_20 
ROOT
ATOM      1  C   LIG d   1       0.822  83.056 110.160  0.00  0.00     0.161 C 
ATOM      2  C   LIG d   1       1.749  84.100 110.001  0.00  0.00     0.016 C 
ATOM      3  C   LIG d   1       2.359  84.771 111.085  0.00  0.00     0.038 C 
ATOM      4  C   LIG d   1       2.197  84.339 112.410  0.00  0.00     0.028 C 
ATOM      5  C   LIG d   1       0.879  83.613 112.653  0.00  0.00    -0.047 C 
ATOM      6  C   LIG d   1       0.717  82.498 111.595  0.00  0.00     0.091 C 
ENDROOT
BRANCH   1   7
ATOM      7  O   LIG d   1       1.116  81.995 109.230  0.00  0.00    -0.368 OA
BRANCH   7   8
ATOM      8  C   LIG d   1       2.092  81.017 109.666  0.00  0.00     0.119 C 
BRANCH   8   9
ATOM      9  C   LIG d   1       3.333  81.167 108.765  0.00  0.00     0.028 C 
ATOM     10  C   LIG d   1       4.646  80.938 109.531  0.00  0.00     0.006 C 
ENDBRANCH   8   9
BRANCH   8  11
ATOM     11  C   LIG d   1       1.592  79.589 109.433  0.00  0.00     0.028 C 
ATOM     12  C   LIG d   1       0.127  79.538 108.969  0.00  0.00     0.006 C 
ENDBRANCH   8  11
ENDBRANCH   7   8
ENDBRANCH   1   7
BRANCH   6  13
ATOM     13  N   LIG d   1      -0.586  81.792 111.709  0.00  0.00    -0.311 N 
ATOM     14  C   LIG d   1      -0.774  80.719 112.474  0.00  0.00     0.210 C 
ATOM     15  C   LIG d   1      -2.189  80.134 112.432  0.00  0.00     0.109 C 
ATOM     16  O   LIG d   1       0.088  80.215 113.210  0.00  0.00    -0.276 OA
ATOM     17  H   LIG d   1      -1.349  82.153 111.170  0.00  0.00     0.149 HD
ENDBRANCH   6  13
BRANCH   5  18
ATOM     18  N   LIG d   1       0.902  83.098 114.036  0.00  0.00     0.381 N 
ATOM     19  H   LIG d   1       1.446  82.260 114.076  0.00  0.00    -0.090 HD
ATOM     20  H   LIG d   1      -0.038  82.878 114.316  0.00  0.00    -0.090 HD
ATOM     21  H   LIG d   1       1.287  83.783 114.648  0.00  0.00    -0.090 HD
ENDBRANCH   5  18
BRANCH   3  22
ATOM     22  C   LIG d   1       3.111  85.912 110.852  0.00  0.00     0.382 C 
ATOM     23  O   LIG d   1       2.538  87.010 110.651  0.00  0.00    -0.241 OA
ATOM     24  O   LIG d   1       4.354  85.849 110.796  0.00  0.00    -0.241 OA
ENDBRANCH   3  22
TORSDOF 7
ENDMDL
