MODEL 1
REMARK VINA RESULT:      -6.3      0.000      0.000
REMARK  7 active torsions:
REMARK  status: ('A' for Active; 'I' for Inactive)
REMARK    1  A    between atoms: C_2  and  C_3 
REMARK    2  A    between atoms: C_3  and  O_6 
REMARK    3  A    between atoms: C_3  and  C_4 
REMARK    4  A    between atoms: C_7  and  O_6 
REMARK    5  A    between atoms: C_9  and  C_10 
REMARK    6  A    between atoms: N_15  and  C_14 
REMARK    7  A    between atoms: N_20  and  C_19 
REMARK       I    between atoms: C_22  and  N_20 
ROOT
ATOM      1  C   LIG d   1       1.188  83.475 110.460  0.00  0.00     0.161 C 
ATOM      2  C   LIG d   1       1.872  84.701 110.401  0.00  0.00     0.016 C 
ATOM      3  C   LIG d   1       2.472  85.312 111.526  0.00  0.00     0.038 C 
ATOM      4  C   LIG d   1       2.560  84.659 112.765  0.00  0.00     0.028 C 
ATOM      5  C   LIG d   1       1.445  83.645 112.996  0.00  0.00    -0.047 C 
ATOM      6  C   LIG d   1       1.370  82.696 111.779  0.00  0.00     0.091 C 
ENDROOT
BRANCH   1   7
ATOM      7  O   LIG d   1       1.563  82.653 109.336  0.00  0.00    -0.368 OA
BRANCH   7   8
ATOM      8  C   LIG d   1       2.698  81.775 109.539  0.00  0.00     0.119 C 
BRANCH   8   9
ATOM      9  C   LIG d   1       3.785  82.184 108.527  0.00  0.00     0.028 C 
ATOM     10  C   LIG d   1       5.055  82.716 109.212  0.00  0.00     0.006 C 
ENDBRANCH   8   9
BRANCH   8  11
ATOM     11  C   LIG d   1       2.348  80.324 109.195  0.00  0.00     0.028 C 
ATOM     12  C   LIG d   1       0.886  80.152 108.755  0.00  0.00     0.006 C 
ENDBRANCH   8  11
ENDBRANCH   7   8
ENDBRANCH   1   7
BRANCH   6  13
ATOM     13  N   LIG d   1       0.250  81.725 111.885  0.00  0.00    -0.311 N 
ATOM     14  C   LIG d   1       0.395  80.486 112.353  0.00  0.00     0.210 C 
ATOM     15  C   LIG d   1      -0.884  79.643 112.359  0.00  0.00     0.109 C 
ATOM     16  O   LIG d   1       1.455  80.016 112.793  0.00  0.00    -0.276 OA
ATOM     17  H   LIG d   1      -0.652  82.034 111.579  0.00  0.00     0.149 HD
ENDBRANCH   6  13
BRANCH   5  18
ATOM     18  N   LIG d   1       1.736  82.943 114.260  0.00  0.00     0.381 N 
ATOM     19  H   LIG d   1       0.942  82.401 114.537  0.00  0.00    -0.090 HD
ATOM     20  H   LIG d   1       1.917  83.624 114.976  0.00  0.00    -0.090 HD
ATOM     21  H   LIG d   1       2.529  82.351 114.147  0.00  0.00    -0.090 HD
ENDBRANCH   5  18
BRANCH   3  22
ATOM     22  C   LIG d   1       2.958  86.607 111.428  0.00  0.00     0.382 C 
ATOM     23  O   LIG d   1       4.182  86.831 111.587  0.00  0.00    -0.241 OA
ATOM     24  O   LIG d   1       2.181  87.559 111.226  0.00  0.00    -0.241 OA
ENDBRANCH   3  22
TORSDOF 7
ENDMDL
MODEL 2
REMARK VINA RESULT:      -6.1      2.398      5.710
REMARK  7 active torsions:
REMARK  status: ('A' for Active; 'I' for Inactive)
REMARK    1  A    between atoms: C_2  and  C_3 
REMARK    2  A    between atoms: C_3  and  O_6 
REMARK    3  A    between atoms: C_3  and  C_4 
REMARK    4  A    between atoms: C_7  and  O_6 
REMARK    5  A    between atoms: C_9  and  C_10 
REMARK    6  A    between atoms: N_15  and  C_14 
REMARK    7  A    between atoms: N_20  and  C_19 
REMARK       I    between atoms: C_22  and  N_20 
ROOT
ATOM      1  C   LIG d   1       0.473  82.459 111.323  0.00  0.00     0.161 C 
ATOM      2  C   LIG d   1      -0.727  82.079 111.948  0.00  0.00     0.016 C 
ATOM      3  C   LIG d   1      -1.283  80.784 111.842  0.00  0.00     0.038 C 
ATOM      4  C   LIG d   1      -0.594  79.729 111.224  0.00  0.00     0.028 C 
ATOM      5  C   LIG d   1       0.382  80.192 110.148  0.00  0.00    -0.047 C 
ATOM      6  C   LIG d   1       1.294  81.292 110.737  0.00  0.00     0.091 C 
ENDROOT
BRANCH   1   7
ATOM      7  O   LIG d   1       1.278  83.228 112.238  0.00  0.00    -0.368 OA
BRANCH   7   8
ATOM      8  C   LIG d   1       1.531  84.604 111.862  0.00  0.00     0.119 C 
BRANCH   8   9
ATOM      9  C   LIG d   1       0.708  84.896 110.593  0.00  0.00     0.028 C 
ATOM     10  C   LIG d   1      -0.224  86.108 110.764  0.00  0.00     0.006 C 
ENDBRANCH   8   9
BRANCH   8  11
ATOM     11  C   LIG d   1       2.993  84.810 111.454  0.00  0.00     0.028 C 
ATOM     12  C   LIG d   1       3.452  86.270 111.598  0.00  0.00     0.006 C 
ENDBRANCH   8  11
ENDBRANCH   7   8
ENDBRANCH   1   7
BRANCH   6  13
ATOM     13  N   LIG d   1       2.224  81.859 109.726  0.00  0.00    -0.311 N 
ATOM     14  C   LIG d   1       3.494  81.477 109.601  0.00  0.00     0.210 C 
ATOM     15  C   LIG d   1       4.283  82.204 108.508  0.00  0.00     0.109 C 
ATOM     16  O   LIG d   1       4.032  80.583 110.271  0.00  0.00    -0.276 OA
ATOM     17  H   LIG d   1       1.861  82.569 109.120  0.00  0.00     0.149 HD
ENDBRANCH   6  13
BRANCH   5  18
ATOM     18  N   LIG d   1       1.129  79.007 109.685  0.00  0.00     0.381 N 
ATOM     19  H   LIG d   1       2.015  79.289 109.315  0.00  0.00    -0.090 HD
ATOM     20  H   LIG d   1       0.608  78.561 108.950  0.00  0.00    -0.090 HD
ATOM     21  H   LIG d   1       1.262  78.372 110.440  0.00  0.00    -0.090 HD
ENDBRANCH   5  18
BRANCH   3  22
ATOM     22  C   LIG d   1      -2.561  80.543 112.324  0.00  0.00     0.382 C 
ATOM     23  O   LIG d   1      -3.408  81.468 112.345  0.00  0.00    -0.241 OA
ATOM     24  O   LIG d   1      -2.864  79.424 112.780  0.00  0.00    -0.241 OA
ENDBRANCH   3  22
TORSDOF 7
ENDMDL
MODEL 3
REMARK VINA RESULT:      -6.1      2.444      4.571
REMARK  7 active torsions:
REMARK  status: ('A' for Active; 'I' for Inactive)
REMARK    1  A    between atoms: C_2  and  C_3 
REMARK    2  A    between atoms: C_3  and  O_6 
REMARK    3  A    between atoms: C_3  and  C_4 
REMARK    4  A    between atoms: C_7  and  O_6 
REMARK    5  A    between atoms: C_9  and  C_10 
REMARK    6  A    between atoms: N_15  and  C_14 
REMARK    7  A    between atoms: N_20  and  C_19 
REMARK       I    between atoms: C_22  and  N_20 
ROOT
ATOM      1  C   LIG d   1       1.285  81.606 111.679  0.00  0.00     0.161 C 
ATOM      2  C   LIG d   1       2.426  82.113 111.034  0.00  0.00     0.016 C 
ATOM      3  C   LIG d   1       2.679  81.944 109.654  0.00  0.00     0.038 C 
ATOM      4  C   LIG d   1       1.727  81.383 108.789  0.00  0.00     0.028 C 
ATOM      5  C   LIG d   1       0.782  80.406 109.480  0.00  0.00    -0.047 C 
ATOM      6  C   LIG d   1       0.183  81.088 110.731  0.00  0.00     0.091 C 
ENDROOT
BRANCH   1   7
ATOM      7  O   LIG d   1       0.749  82.600 112.575  0.00  0.00    -0.368 OA
BRANCH   7   8
ATOM      8  C   LIG d   1       1.077  83.977 112.270  0.00  0.00     0.119 C 
BRANCH   8   9
ATOM      9  C   LIG d   1       1.409  84.680 113.600  0.00  0.00     0.028 C 
ATOM     10  C   LIG d   1       0.960  86.151 113.615  0.00  0.00     0.006 C 
ENDBRANCH   8   9
BRANCH   8  11
ATOM     11  C   LIG d   1      -0.135  84.727 111.707  0.00  0.00     0.028 C 
ATOM     12  C   LIG d   1      -0.025  84.988 110.196  0.00  0.00     0.006 C 
ENDBRANCH   8  11
ENDBRANCH   7   8
ENDBRANCH   1   7
BRANCH   6  13
ATOM     13  N   LIG d   1      -0.689  80.173 111.513  0.00  0.00    -0.311 N 
ATOM     14  C   LIG d   1      -1.813  80.565 112.112  0.00  0.00     0.210 C 
ATOM     15  C   LIG d   1      -2.551  79.466 112.883  0.00  0.00     0.109 C 
ATOM     16  O   LIG d   1      -2.285  81.710 112.051  0.00  0.00    -0.276 OA
ATOM     17  H   LIG d   1      -0.397  79.218 111.588  0.00  0.00     0.149 HD
ENDBRANCH   6  13
BRANCH   5  18
ATOM     18  N   LIG d   1      -0.241  80.004 108.496  0.00  0.00     0.381 N 
ATOM     19  H   LIG d   1      -0.481  80.784 107.918  0.00  0.00    -0.090 HD
ATOM     20  H   LIG d   1      -1.067  79.709 108.987  0.00  0.00    -0.090 HD
ATOM     21  H   LIG d   1       0.103  79.257 107.933  0.00  0.00    -0.090 HD
ENDBRANCH   5  18
BRANCH   3  22
ATOM     22  C   LIG d   1       3.912  82.302 109.132  0.00  0.00     0.382 C 
ATOM     23  O   LIG d   1       4.342  81.740 108.096  0.00  0.00    -0.241 OA
ATOM     24  O   LIG d   1       4.620  83.149 109.709  0.00  0.00    -0.241 OA
ENDBRANCH   3  22
TORSDOF 7
ENDMDL
MODEL 4
REMARK VINA RESULT:      -5.9      2.110      4.899
REMARK  7 active torsions:
REMARK  status: ('A' for Active; 'I' for Inactive)
REMARK    1  A    between atoms: C_2  and  C_3 
REMARK    2  A    between atoms: C_3  and  O_6 
REMARK    3  A    between atoms: C_3  and  C_4 
REMARK    4  A    between atoms: C_7  and  O_6 
REMARK    5  A    between atoms: C_9  and  C_10 
REMARK    6  A    between atoms: N_15  and  C_14 
REMARK    7  A    between atoms: N_20  and  C_19 
REMARK       I    between atoms: C_22  and  N_20 
ROOT
ATOM      1  C   LIG d   1       2.462  83.204 111.720  0.00  0.00     0.161 C 
ATOM      2  C   LIG d   1       1.449  82.242 111.575  0.00  0.00     0.016 C 
ATOM      3  C   LIG d   1       0.070  82.548 111.637  0.00  0.00     0.038 C 
ATOM      4  C   LIG d   1      -0.394  83.870 111.699  0.00  0.00     0.028 C 
ATOM      5  C   LIG d   1       0.594  84.829 112.355  0.00  0.00    -0.047 C 
ATOM      6  C   LIG d   1       1.974  84.668 111.677  0.00  0.00     0.091 C 
ENDROOT
BRANCH   1   7
ATOM      7  O   LIG d   1       3.486  82.988 110.730  0.00  0.00    -0.368 OA
BRANCH   7   8
ATOM      8  C   LIG d   1       3.164  82.053 109.672  0.00  0.00     0.119 C 
BRANCH   8   9
ATOM      9  C   LIG d   1       4.349  81.077 109.539  0.00  0.00     0.028 C 
ATOM     10  C   LIG d   1       3.930  79.612 109.751  0.00  0.00     0.006 C 
ENDBRANCH   8   9
BRANCH   8  11
ATOM     11  C   LIG d   1       3.064  82.757 108.316  0.00  0.00     0.028 C 
ATOM     12  C   LIG d   1       1.699  83.427 108.090  0.00  0.00     0.006 C 
ENDBRANCH   8  11
ENDBRANCH   7   8
ENDBRANCH   1   7
BRANCH   6  13
ATOM     13  N   LIG d   1       3.020  85.509 112.315  0.00  0.00    -0.311 N 
ATOM     14  C   LIG d   1       3.226  86.787 112.001  0.00  0.00     0.210 C 
ATOM     15  C   LIG d   1       4.368  87.465 112.763  0.00  0.00     0.109 C 
ATOM     16  O   LIG d   1       2.549  87.432 111.186  0.00  0.00    -0.276 OA
ATOM     17  H   LIG d   1       3.595  85.074 113.009  0.00  0.00     0.149 HD
ENDBRANCH   6  13
BRANCH   5  18
ATOM     18  N   LIG d   1       0.044  86.191 112.229  0.00  0.00     0.381 N 
ATOM     19  H   LIG d   1      -0.890  86.148 111.873  0.00  0.00    -0.090 HD
ATOM     20  H   LIG d   1       0.606  86.710 111.578  0.00  0.00    -0.090 HD
ATOM     21  H   LIG d   1       0.048  86.644 113.117  0.00  0.00    -0.090 HD
ENDBRANCH   5  18
BRANCH   3  22
ATOM     22  C   LIG d   1      -0.861  81.521 111.678  0.00  0.00     0.382 C 
ATOM     23  O   LIG d   1      -2.010  81.734 112.135  0.00  0.00    -0.241 OA
ATOM     24  O   LIG d   1      -0.552  80.373 111.305  0.00  0.00    -0.241 OA
ENDBRANCH   3  22
TORSDOF 7
ENDMDL
MODEL 5
REMARK VINA RESULT:      -5.4      2.236      5.593
REMARK  7 active torsions:
REMARK  status: ('A' for Active; 'I' for Inactive)
REMARK    1  A    between atoms: C_2  and  C_3 
REMARK    2  A    between atoms: C_3  and  O_6 
REMARK    3  A    between atoms: C_3  and  C_4 
REMARK    4  A    between atoms: C_7  and  O_6 
REMARK    5  A    between atoms: C_9  and  C_10 
REMARK    6  A    between atoms: N_15  and  C_14 
REMARK    7  A    between atoms: N_20  and  C_19 
REMARK       I    between atoms: C_22  and  N_20 
ROOT
ATOM      1  C   LIG d   1       2.926  84.087 111.443  0.00  0.00     0.161 C 
ATOM      2  C   LIG d   1       3.795  83.204 110.781  0.00  0.00     0.016 C 
ATOM      3  C   LIG d   1       3.350  82.126 109.982  0.00  0.00     0.038 C 
ATOM      4  C   LIG d   1       1.995  81.949 109.665  0.00  0.00     0.028 C 
ATOM      5  C   LIG d   1       1.048  82.513 110.718  0.00  0.00    -0.047 C 
ATOM      6  C   LIG d   1       1.446  83.976 111.019  0.00  0.00     0.091 C 
ENDROOT
BRANCH   1   7
ATOM      7  O   LIG d   1       3.392  85.442 111.285  0.00  0.00    -0.368 OA
BRANCH   7   8
ATOM      8  C   LIG d   1       4.118  86.001 112.407  0.00  0.00     0.119 C 
BRANCH   8   9
ATOM      9  C   LIG d   1       3.660  85.252 113.674  0.00  0.00     0.028 C 
ATOM     10  C   LIG d   1       2.793  86.130 114.592  0.00  0.00     0.006 C 
ENDBRANCH   8   9
BRANCH   8  11
ATOM     11  C   LIG d   1       3.739  87.466 112.642  0.00  0.00     0.028 C 
ATOM     12  C   LIG d   1       4.929  88.322 113.104  0.00  0.00     0.006 C 
ENDBRANCH   8  11
ENDBRANCH   7   8
ENDBRANCH   1   7
BRANCH   6  13
ATOM     13  N   LIG d   1       0.622  84.576 112.100  0.00  0.00    -0.311 N 
ATOM     14  C   LIG d   1       0.098  85.799 112.029  0.00  0.00     0.210 C 
ATOM     15  C   LIG d   1      -0.702  86.232 113.262  0.00  0.00     0.109 C 
ATOM     16  O   LIG d   1       0.192  86.553 111.049  0.00  0.00    -0.276 OA
ATOM     17  H   LIG d   1       0.469  84.021 112.919  0.00  0.00     0.149 HD
ENDBRANCH   6  13
BRANCH   5  18
ATOM     18  N   LIG d   1      -0.326  82.383 110.196  0.00  0.00     0.381 N 
ATOM     19  H   LIG d   1      -0.651  83.273 109.875  0.00  0.00    -0.090 HD
ATOM     20  H   LIG d   1      -0.928  82.077 110.940  0.00  0.00    -0.090 HD
ATOM     21  H   LIG d   1      -0.347  81.724 109.450  0.00  0.00    -0.090 HD
ENDBRANCH   5  18
BRANCH   3  22
ATOM     22  C   LIG d   1       4.263  81.189 109.522  0.00  0.00     0.382 C 
ATOM     23  O   LIG d   1       5.203  81.544 108.771  0.00  0.00    -0.241 OA
ATOM     24  O   LIG d   1       4.133  79.985 109.814  0.00  0.00    -0.241 OA
ENDBRANCH   3  22
TORSDOF 7
ENDMDL
MODEL 6
REMARK VINA RESULT:      -5.3      2.753      5.682
REMARK  7 active torsions:
REMARK  status: ('A' for Active; 'I' for Inactive)
REMARK    1  A    between atoms: C_2  and  C_3 
REMARK    2  A    between atoms: C_3  and  O_6 
REMARK    3  A    between atoms: C_3  and  C_4 
REMARK    4  A    between atoms: C_7  and  O_6 
REMARK    5  A    between atoms: C_9  and  C_10 
REMARK    6  A    between atoms: N_15  and  C_14 
REMARK    7  A    between atoms: N_20  and  C_19 
REMARK       I    between atoms: C_22  and  N_20 
ROOT
ATOM      1  C   LIG d   1       2.523  82.921 110.810  0.00  0.00     0.161 C 
ATOM      2  C   LIG d   1       2.929  81.588 110.628  0.00  0.00     0.016 C 
ATOM      3  C   LIG d   1       2.946  80.945 109.369  0.00  0.00     0.038 C 
ATOM      4  C   LIG d   1       2.701  81.642 108.177  0.00  0.00     0.028 C 
ATOM      5  C   LIG d   1       1.799  82.857 108.360  0.00  0.00    -0.047 C 
ATOM      6  C   LIG d   1       2.359  83.730 109.506  0.00  0.00     0.091 C 
ENDROOT
BRANCH   1   7
ATOM      7  O   LIG d   1       3.433  83.591 111.704  0.00  0.00    -0.368 OA
BRANCH   7   8
ATOM      8  C   LIG d   1       2.846  84.574 112.592  0.00  0.00     0.119 C 
BRANCH   8   9
ATOM      9  C   LIG d   1       3.825  85.761 112.681  0.00  0.00     0.028 C 
ATOM     10  C   LIG d   1       3.216  87.065 112.138  0.00  0.00     0.006 C 
ENDBRANCH   8   9
BRANCH   8  11
ATOM     11  C   LIG d   1       2.732  84.035 114.022  0.00  0.00     0.028 C 
ATOM     12  C   LIG d   1       3.914  84.452 114.912  0.00  0.00     0.006 C 
ENDBRANCH   8  11
ENDBRANCH   7   8
ENDBRANCH   1   7
BRANCH   6  13
ATOM     13  N   LIG d   1       1.489  84.897 109.807  0.00  0.00    -0.311 N 
ATOM     14  C   LIG d   1       0.238  84.783 110.250  0.00  0.00     0.210 C 
ATOM     15  C   LIG d   1      -0.490  86.112 110.479  0.00  0.00     0.109 C 
ATOM     16  O   LIG d   1      -0.327  83.709 110.506  0.00  0.00    -0.276 OA
ATOM     17  H   LIG d   1       1.878  85.807 109.658  0.00  0.00     0.149 HD
ENDBRANCH   6  13
BRANCH   5  18
ATOM     18  N   LIG d   1       1.739  83.567 107.068  0.00  0.00     0.381 N 
ATOM     19  H   LIG d   1       1.084  83.115 106.463  0.00  0.00    -0.090 HD
ATOM     20  H   LIG d   1       2.646  83.531 106.636  0.00  0.00    -0.090 HD
ATOM     21  H   LIG d   1       1.470  84.515 107.212  0.00  0.00    -0.090 HD
ENDBRANCH   5  18
BRANCH   3  22
ATOM     22  C   LIG d   1       3.172  79.578 109.299  0.00  0.00     0.382 C 
ATOM     23  O   LIG d   1       4.206  79.087 109.813  0.00  0.00    -0.241 OA
ATOM     24  O   LIG d   1       2.378  78.837 108.690  0.00  0.00    -0.241 OA
ENDBRANCH   3  22
TORSDOF 7
ENDMDL
MODEL 7
REMARK VINA RESULT:      -5.3      1.341      2.189
REMARK  7 active torsions:
REMARK  status: ('A' for Active; 'I' for Inactive)
REMARK    1  A    between atoms: C_2  and  C_3 
REMARK    2  A    between atoms: C_3  and  O_6 
REMARK    3  A    between atoms: C_3  and  C_4 
REMARK    4  A    between atoms: C_7  and  O_6 
REMARK    5  A    between atoms: C_9  and  C_10 
REMARK    6  A    between atoms: N_15  and  C_14 
REMARK    7  A    between atoms: N_20  and  C_19 
REMARK       I    between atoms: C_22  and  N_20 
ROOT
ATOM      1  C   LIG d   1       2.237  83.577 111.151  0.00  0.00     0.161 C 
ATOM      2  C   LIG d   1       2.816  84.853 111.046  0.00  0.00     0.016 C 
ATOM      3  C   LIG d   1       2.935  85.746 112.136  0.00  0.00     0.038 C 
ATOM      4  C   LIG d   1       2.617  85.361 113.447  0.00  0.00     0.028 C 
ATOM      5  C   LIG d   1       1.561  84.263 113.518  0.00  0.00    -0.047 C 
ATOM      6  C   LIG d   1       1.987  83.098 112.596  0.00  0.00     0.091 C 
ENDROOT
BRANCH   1   7
ATOM      7  O   LIG d   1       3.039  82.616 110.436  0.00  0.00    -0.368 OA
BRANCH   7   8
ATOM      8  C   LIG d   1       2.682  82.393 109.050  0.00  0.00     0.119 C 
BRANCH   8   9
ATOM      9  C   LIG d   1       1.734  81.179 109.006  0.00  0.00     0.028 C 
ATOM     10  C   LIG d   1       2.488  79.842 109.088  0.00  0.00     0.006 C 
ENDBRANCH   8   9
BRANCH   8  11
ATOM     11  C   LIG d   1       3.902  81.985 108.219  0.00  0.00     0.028 C 
ATOM     12  C   LIG d   1       5.218  82.552 108.774  0.00  0.00     0.006 C 
ENDBRANCH   8  11
ENDBRANCH   7   8
ENDBRANCH   1   7
BRANCH   6  13
ATOM     13  N   LIG d   1       0.968  82.017 112.541  0.00  0.00    -0.311 N 
ATOM     14  C   LIG d   1      -0.185  82.130 111.883  0.00  0.00     0.210 C 
ATOM     15  C   LIG d   1      -1.102  80.905 111.972  0.00  0.00     0.109 C 
ATOM     16  O   LIG d   1      -0.522  83.114 111.209  0.00  0.00    -0.276 OA
ATOM     17  H   LIG d   1       1.173  81.171 113.035  0.00  0.00     0.149 HD
ENDBRANCH   6  13
BRANCH   5  18
ATOM     18  N   LIG d   1       1.428  83.863 114.931  0.00  0.00     0.381 N 
ATOM     19  H   LIG d   1       1.978  83.046 115.106  0.00  0.00    -0.090 HD
ATOM     20  H   LIG d   1       0.466  83.641 115.117  0.00  0.00    -0.090 HD
ATOM     21  H   LIG d   1       1.725  84.606 115.525  0.00  0.00    -0.090 HD
ENDBRANCH   5  18
BRANCH   3  22
ATOM     22  C   LIG d   1       3.338  87.053 111.912  0.00  0.00     0.382 C 
ATOM     23  O   LIG d   1       2.484  87.941 111.676  0.00  0.00    -0.241 OA
ATOM     24  O   LIG d   1       4.549  87.347 111.900  0.00  0.00    -0.241 OA
ENDBRANCH   3  22
TORSDOF 7
ENDMDL
MODEL 8
REMARK VINA RESULT:      -5.2     25.801     27.468
REMARK  7 active torsions:
REMARK  status: ('A' for Active; 'I' for Inactive)
REMARK    1  A    between atoms: C_2  and  C_3 
REMARK    2  A    between atoms: C_3  and  O_6 
REMARK    3  A    between atoms: C_3  and  C_4 
REMARK    4  A    between atoms: C_7  and  O_6 
REMARK    5  A    between atoms: C_9  and  C_10 
REMARK    6  A    between atoms: N_15  and  C_14 
REMARK    7  A    between atoms: N_20  and  C_19 
REMARK       I    between atoms: C_22  and  N_20 
ROOT
ATOM      1  C   LIG d   1     -25.314  87.021 112.851  0.00  0.00     0.161 C 
ATOM      2  C   LIG d   1     -25.699  88.343 113.131  0.00  0.00     0.016 C 
ATOM      3  C   LIG d   1     -25.195  89.085 114.223  0.00  0.00     0.038 C 
ATOM      4  C   LIG d   1     -24.152  88.605 115.028  0.00  0.00     0.028 C 
ATOM      5  C   LIG d   1     -24.087  87.083 115.092  0.00  0.00    -0.047 C 
ATOM      6  C   LIG d   1     -24.094  86.519 113.653  0.00  0.00     0.091 C 
ENDROOT
BRANCH   1   7
ATOM      7  O   LIG d   1     -25.081  86.868 111.437  0.00  0.00    -0.368 OA
BRANCH   7   8
ATOM      8  C   LIG d   1     -25.919  87.665 110.563  0.00  0.00     0.119 C 
BRANCH   8   9
ATOM      9  C   LIG d   1     -27.040  86.748 110.036  0.00  0.00     0.028 C 
ATOM     10  C   LIG d   1     -28.368  86.956 110.783  0.00  0.00     0.006 C 
ENDBRANCH   8   9
BRANCH   8  11
ATOM     11  C   LIG d   1     -25.151  88.123 109.320  0.00  0.00     0.028 C 
ATOM     12  C   LIG d   1     -25.308  87.159 108.134  0.00  0.00     0.006 C 
ENDBRANCH   8  11
ENDBRANCH   7   8
ENDBRANCH   1   7
BRANCH   6  13
ATOM     13  N   LIG d   1     -24.118  85.033 113.625  0.00  0.00    -0.311 N 
ATOM     14  C   LIG d   1     -23.019  84.283 113.568  0.00  0.00     0.210 C 
ATOM     15  C   LIG d   1     -23.269  82.772 113.528  0.00  0.00     0.109 C 
ATOM     16  O   LIG d   1     -21.860  84.725 113.577  0.00  0.00    -0.276 OA
ATOM     17  H   LIG d   1     -25.016  84.591 113.646  0.00  0.00     0.149 HD
ENDBRANCH   6  13
BRANCH   5  18
ATOM     18  N   LIG d   1     -22.875  86.719 115.850  0.00  0.00     0.381 N 
ATOM     19  H   LIG d   1     -22.151  86.442 115.217  0.00  0.00    -0.090 HD
ATOM     20  H   LIG d   1     -23.087  85.939 116.447  0.00  0.00    -0.090 HD
ATOM     21  H   LIG d   1     -22.570  87.493 116.397  0.00  0.00    -0.090 HD
ENDBRANCH   5  18
BRANCH   3  22
ATOM     22  C   LIG d   1     -25.765  90.308 114.544  0.00  0.00     0.382 C 
ATOM     23  O   LIG d   1     -26.723  90.751 113.865  0.00  0.00    -0.241 OA
ATOM     24  O   LIG d   1     -25.304  90.995 115.476  0.00  0.00    -0.241 OA
ENDBRANCH   3  22
TORSDOF 7
ENDMDL
MODEL 9
REMARK VINA RESULT:      -5.2      2.127      4.761
REMARK  7 active torsions:
REMARK  status: ('A' for Active; 'I' for Inactive)
REMARK    1  A    between atoms: C_2  and  C_3 
REMARK    2  A    between atoms: C_3  and  O_6 
REMARK    3  A    between atoms: C_3  and  C_4 
REMARK    4  A    between atoms: C_7  and  O_6 
REMARK    5  A    between atoms: C_9  and  C_10 
REMARK    6  A    between atoms: N_15  and  C_14 
REMARK    7  A    between atoms: N_20  and  C_19 
REMARK       I    between atoms: C_22  and  N_20 
ROOT
ATOM      1  C   LIG d   1       1.775  83.078 110.798  0.00  0.00     0.161 C 
ATOM      2  C   LIG d   1       3.087  82.975 110.307  0.00  0.00     0.016 C 
ATOM      3  C   LIG d   1       3.455  82.115 109.247  0.00  0.00     0.038 C 
ATOM      4  C   LIG d   1       2.501  81.406 108.501  0.00  0.00     0.028 C 
ATOM      5  C   LIG d   1       1.231  81.093 109.285  0.00  0.00    -0.047 C 
ATOM      6  C   LIG d   1       0.701  82.396 109.925  0.00  0.00     0.091 C 
ENDROOT
BRANCH   1   7
ATOM      7  O   LIG d   1       1.441  84.464 111.012  0.00  0.00    -0.368 OA
BRANCH   7   8
ATOM      8  C   LIG d   1       1.250  84.869 112.390  0.00  0.00     0.119 C 
BRANCH   8   9
ATOM      9  C   LIG d   1       0.001  85.770 112.438  0.00  0.00     0.028 C 
ATOM     10  C   LIG d   1      -0.442  86.235 111.041  0.00  0.00     0.006 C 
ENDBRANCH   8   9
BRANCH   8  11
ATOM     11  C   LIG d   1       2.404  85.749 112.878  0.00  0.00     0.028 C 
ATOM     12  C   LIG d   1       3.190  86.394 111.725  0.00  0.00     0.006 C 
ENDBRANCH   8  11
ENDBRANCH   7   8
ENDBRANCH   1   7
BRANCH   6  13
ATOM     13  N   LIG d   1      -0.493  82.164 110.779  0.00  0.00    -0.311 N 
ATOM     14  C   LIG d   1      -0.631  81.104 111.573  0.00  0.00     0.210 C 
ATOM     15  C   LIG d   1      -1.948  81.048 112.353  0.00  0.00     0.109 C 
ATOM     16  O   LIG d   1       0.226  80.222 111.730  0.00  0.00    -0.276 OA
ATOM     17  H   LIG d   1      -1.223  82.847 110.736  0.00  0.00     0.149 HD
ENDBRANCH   6  13
BRANCH   5  18
ATOM     18  N   LIG d   1       0.271  80.476 108.350  0.00  0.00     0.381 N 
ATOM     19  H   LIG d   1       0.603  79.575 108.068  0.00  0.00    -0.090 HD
ATOM     20  H   LIG d   1       0.197  81.055 107.531  0.00  0.00    -0.090 HD
ATOM     21  H   LIG d   1      -0.621  80.388 108.785  0.00  0.00    -0.090 HD
ENDBRANCH   5  18
BRANCH   3  22
ATOM     22  C   LIG d   1       4.796  81.926 108.949  0.00  0.00     0.382 C 
ATOM     23  O   LIG d   1       5.298  80.778 109.016  0.00  0.00    -0.241 OA
ATOM     24  O   LIG d   1       5.521  82.896 108.658  0.00  0.00    -0.241 OA
ENDBRANCH   3  22
TORSDOF 7
ENDMDL
