MODEL 1
REMARK VINA RESULT:      -6.5      0.000      0.000
REMARK  7 active torsions:
REMARK  status: ('A' for Active; 'I' for Inactive)
REMARK    1  A    between atoms: C_2  and  C_3 
REMARK    2  A    between atoms: C_3  and  O_6 
REMARK    3  A    between atoms: C_3  and  C_4 
REMARK    4  A    between atoms: C_7  and  O_6 
REMARK    5  A    between atoms: C_9  and  C_10 
REMARK    6  A    between atoms: N_15  and  C_14 
REMARK    7  A    between atoms: N_20  and  C_19 
REMARK       I    between atoms: C_22  and  N_20 
ROOT
ATOM      1  C   LIG d   1      -0.017  84.125 110.194  0.00  0.00     0.161 C 
ATOM      2  C   LIG d   1      -0.240  85.240 111.019  0.00  0.00     0.016 C 
ATOM      3  C   LIG d   1      -0.508  85.142 112.404  0.00  0.00     0.038 C 
ATOM      4  C   LIG d   1      -0.421  83.923 113.092  0.00  0.00     0.028 C 
ATOM      5  C   LIG d   1      -0.696  82.709 112.210  0.00  0.00    -0.047 C 
ATOM      6  C   LIG d   1       0.192  82.795 110.948  0.00  0.00     0.091 C 
ENDROOT
BRANCH   1   7
ATOM      7  O   LIG d   1       1.096  84.382 109.315  0.00  0.00    -0.368 OA
BRANCH   7   8
ATOM      8  C   LIG d   1       2.408  84.053 109.834  0.00  0.00     0.119 C 
BRANCH   8   9
ATOM      9  C   LIG d   1       3.137  85.379 110.126  0.00  0.00     0.028 C 
ATOM     10  C   LIG d   1       3.447  85.562 111.621  0.00  0.00     0.006 C 
ENDBRANCH   8   9
BRANCH   8  11
ATOM     11  C   LIG d   1       3.263  83.344 108.779  0.00  0.00     0.028 C 
ATOM     12  C   LIG d   1       4.533  82.711 109.369  0.00  0.00     0.006 C 
ENDBRANCH   8  11
ENDBRANCH   7   8
ENDBRANCH   1   7
BRANCH   6  13
ATOM     13  N   LIG d   1      -0.075  81.689 109.992  0.00  0.00    -0.311 N 
ATOM     14  C   LIG d   1       0.795  80.712 109.739  0.00  0.00     0.210 C 
ATOM     15  C   LIG d   1       0.329  79.683 108.704  0.00  0.00     0.109 C 
ATOM     16  O   LIG d   1       1.894  80.582 110.298  0.00  0.00    -0.276 OA
ATOM     17  H   LIG d   1      -0.956  81.699 109.517  0.00  0.00     0.149 HD
ENDBRANCH   6  13
BRANCH   5  18
ATOM     18  N   LIG d   1      -0.437  81.503 113.019  0.00  0.00     0.381 N 
ATOM     19  H   LIG d   1       0.029  81.758 113.868  0.00  0.00    -0.090 HD
ATOM     20  H   LIG d   1       0.165  80.888 112.502  0.00  0.00    -0.090 HD
ATOM     21  H   LIG d   1      -1.295  81.042 113.229  0.00  0.00    -0.090 HD
ENDBRANCH   5  18
BRANCH   3  22
ATOM     22  C   LIG d   1      -0.908  86.269 113.107  0.00  0.00     0.382 C 
ATOM     23  O   LIG d   1      -1.980  86.847 112.809  0.00  0.00    -0.241 OA
ATOM     24  O   LIG d   1      -0.187  86.740 114.008  0.00  0.00    -0.241 OA
ENDBRANCH   3  22
TORSDOF 7
ENDMDL
MODEL 2
REMARK VINA RESULT:      -6.3      2.957      4.853
REMARK  7 active torsions:
REMARK  status: ('A' for Active; 'I' for Inactive)
REMARK    1  A    between atoms: C_2  and  C_3 
REMARK    2  A    between atoms: C_3  and  O_6 
REMARK    3  A    between atoms: C_3  and  C_4 
REMARK    4  A    between atoms: C_7  and  O_6 
REMARK    5  A    between atoms: C_9  and  C_10 
REMARK    6  A    between atoms: N_15  and  C_14 
REMARK    7  A    between atoms: N_20  and  C_19 
REMARK       I    between atoms: C_22  and  N_20 
ROOT
ATOM      1  C   LIG d   1       1.904  84.211 111.758  0.00  0.00     0.161 C 
ATOM      2  C   LIG d   1       0.962  83.169 111.800  0.00  0.00     0.016 C 
ATOM      3  C   LIG d   1      -0.198  83.200 112.606  0.00  0.00     0.038 C 
ATOM      4  C   LIG d   1      -0.576  84.349 113.317  0.00  0.00     0.028 C 
ATOM      5  C   LIG d   1       0.601  85.238 113.702  0.00  0.00    -0.047 C 
ATOM      6  C   LIG d   1       1.451  85.518 112.442  0.00  0.00     0.091 C 
ENDROOT
BRANCH   1   7
ATOM      7  O   LIG d   1       2.290  84.467 110.393  0.00  0.00    -0.368 OA
BRANCH   7   8
ATOM      8  C   LIG d   1       1.279  84.212 109.387  0.00  0.00     0.119 C 
BRANCH   8   9
ATOM      9  C   LIG d   1       1.994  83.637 108.148  0.00  0.00     0.028 C 
ATOM     10  C   LIG d   1       3.328  82.958 108.503  0.00  0.00     0.006 C 
ENDBRANCH   8   9
BRANCH   8  11
ATOM     11  C   LIG d   1       0.626  85.513 108.911  0.00  0.00     0.028 C 
ATOM     12  C   LIG d   1      -0.699  85.812 109.629  0.00  0.00     0.006 C 
ENDBRANCH   8  11
ENDBRANCH   7   8
ENDBRANCH   1   7
BRANCH   6  13
ATOM     13  N   LIG d   1       2.670  86.312 112.745  0.00  0.00    -0.311 N 
ATOM     14  C   LIG d   1       3.044  87.379 112.041  0.00  0.00     0.210 C 
ATOM     15  C   LIG d   1       4.344  88.040 112.511  0.00  0.00     0.109 C 
ATOM     16  O   LIG d   1       2.406  87.860 111.093  0.00  0.00    -0.276 OA
ATOM     17  H   LIG d   1       3.230  86.010 113.518  0.00  0.00     0.149 HD
ENDBRANCH   6  13
BRANCH   5  18
ATOM     18  N   LIG d   1       0.053  86.463 114.314  0.00  0.00     0.381 N 
ATOM     19  H   LIG d   1       0.801  87.058 114.610  0.00  0.00    -0.090 HD
ATOM     20  H   LIG d   1      -0.487  86.209 115.122  0.00  0.00    -0.090 HD
ATOM     21  H   LIG d   1      -0.522  86.944 113.658  0.00  0.00    -0.090 HD
ENDBRANCH   5  18
BRANCH   3  22
ATOM     22  C   LIG d   1      -0.974  82.058 112.739  0.00  0.00     0.382 C 
ATOM     23  O   LIG d   1      -0.539  81.077 113.388  0.00  0.00    -0.241 OA
ATOM     24  O   LIG d   1      -2.085  81.981 112.181  0.00  0.00    -0.241 OA
ENDBRANCH   3  22
TORSDOF 7
ENDMDL
MODEL 3
REMARK VINA RESULT:      -6.2      2.485      4.189
REMARK  7 active torsions:
REMARK  status: ('A' for Active; 'I' for Inactive)
REMARK    1  A    between atoms: C_2  and  C_3 
REMARK    2  A    between atoms: C_3  and  O_6 
REMARK    3  A    between atoms: C_3  and  C_4 
REMARK    4  A    between atoms: C_7  and  O_6 
REMARK    5  A    between atoms: C_9  and  C_10 
REMARK    6  A    between atoms: N_15  and  C_14 
REMARK    7  A    between atoms: N_20  and  C_19 
REMARK       I    between atoms: C_22  and  N_20 
ROOT
ATOM      1  C   LIG d   1       2.231  82.832 110.969  0.00  0.00     0.161 C 
ATOM      2  C   LIG d   1       2.431  84.165 111.365  0.00  0.00     0.016 C 
ATOM      3  C   LIG d   1       2.289  85.266 110.489  0.00  0.00     0.038 C 
ATOM      4  C   LIG d   1       1.786  85.118 109.188  0.00  0.00     0.028 C 
ATOM      5  C   LIG d   1       2.052  83.742 108.588  0.00  0.00    -0.047 C 
ATOM      6  C   LIG d   1       1.574  82.660 109.584  0.00  0.00     0.091 C 
ENDROOT
BRANCH   1   7
ATOM      7  O   LIG d   1       1.470  82.133 111.975  0.00  0.00    -0.368 OA
BRANCH   7   8
ATOM      8  C   LIG d   1       0.554  82.940 112.756  0.00  0.00     0.119 C 
BRANCH   8   9
ATOM      9  C   LIG d   1       0.680  82.491 114.225  0.00  0.00     0.028 C 
ATOM     10  C   LIG d   1       0.257  83.592 115.212  0.00  0.00     0.006 C 
ENDBRANCH   8   9
BRANCH   8  11
ATOM     11  C   LIG d   1      -0.902  82.661 112.370  0.00  0.00     0.028 C 
ATOM     12  C   LIG d   1      -1.344  81.228 112.706  0.00  0.00     0.006 C 
ENDBRANCH   8  11
ENDBRANCH   7   8
ENDBRANCH   1   7
BRANCH   6  13
ATOM     13  N   LIG d   1       1.873  81.283 109.112  0.00  0.00    -0.311 N 
ATOM     14  C   LIG d   1       1.002  80.278 109.181  0.00  0.00     0.210 C 
ATOM     15  C   LIG d   1       1.520  78.935 108.657  0.00  0.00     0.109 C 
ATOM     16  O   LIG d   1      -0.162  80.379 109.597  0.00  0.00    -0.276 OA
ATOM     17  H   LIG d   1       2.785  81.120 108.730  0.00  0.00     0.149 HD
ENDBRANCH   6  13
BRANCH   5  18
ATOM     18  N   LIG d   1       1.356  83.680 107.289  0.00  0.00     0.381 N 
ATOM     19  H   LIG d   1       2.027  83.648 106.547  0.00  0.00    -0.090 HD
ATOM     20  H   LIG d   1       0.802  84.510 107.177  0.00  0.00    -0.090 HD
ATOM     21  H   LIG d   1       0.772  82.874 107.253  0.00  0.00    -0.090 HD
ENDBRANCH   5  18
BRANCH   3  22
ATOM     22  C   LIG d   1       2.690  86.528 110.901  0.00  0.00     0.382 C 
ATOM     23  O   LIG d   1       1.835  87.369 111.267  0.00  0.00    -0.241 OA
ATOM     24  O   LIG d   1       3.893  86.850 110.869  0.00  0.00    -0.241 OA
ENDBRANCH   3  22
TORSDOF 7
ENDMDL
MODEL 4
REMARK VINA RESULT:      -5.8      2.423      5.826
REMARK  7 active torsions:
REMARK  status: ('A' for Active; 'I' for Inactive)
REMARK    1  A    between atoms: C_2  and  C_3 
REMARK    2  A    between atoms: C_3  and  O_6 
REMARK    3  A    between atoms: C_3  and  C_4 
REMARK    4  A    between atoms: C_7  and  O_6 
REMARK    5  A    between atoms: C_9  and  C_10 
REMARK    6  A    between atoms: N_15  and  C_14 
REMARK    7  A    between atoms: N_20  and  C_19 
REMARK       I    between atoms: C_22  and  N_20 
ROOT
ATOM      1  C   LIG d   1       1.211  82.977 110.603  0.00  0.00     0.161 C 
ATOM      2  C   LIG d   1       0.716  81.717 110.226  0.00  0.00     0.016 C 
ATOM      3  C   LIG d   1       1.479  80.761 109.516  0.00  0.00     0.038 C 
ATOM      4  C   LIG d   1       2.847  80.943 109.264  0.00  0.00     0.028 C 
ATOM      5  C   LIG d   1       3.258  82.410 109.181  0.00  0.00    -0.047 C 
ATOM      6  C   LIG d   1       2.735  83.149 110.434  0.00  0.00     0.091 C 
ENDROOT
BRANCH   1   7
ATOM      7  O   LIG d   1       0.821  83.270 111.959  0.00  0.00    -0.368 OA
BRANCH   7   8
ATOM      8  C   LIG d   1      -0.411  84.016 112.120  0.00  0.00     0.119 C 
BRANCH   8   9
ATOM      9  C   LIG d   1      -0.081  85.506 111.908  0.00  0.00     0.028 C 
ATOM     10  C   LIG d   1      -0.589  86.033 110.556  0.00  0.00     0.006 C 
ENDBRANCH   8   9
BRANCH   8  11
ATOM     11  C   LIG d   1      -0.938  83.917 113.555  0.00  0.00     0.028 C 
ATOM     12  C   LIG d   1      -0.149  84.792 114.541  0.00  0.00     0.006 C 
ENDBRANCH   8  11
ENDBRANCH   7   8
ENDBRANCH   1   7
BRANCH   6  13
ATOM     13  N   LIG d   1       3.021  84.607 110.393  0.00  0.00    -0.311 N 
ATOM     14  C   LIG d   1       3.487  85.293 111.435  0.00  0.00     0.210 C 
ATOM     15  C   LIG d   1       3.694  86.790 111.184  0.00  0.00     0.109 C 
ATOM     16  O   LIG d   1       3.780  84.797 112.534  0.00  0.00    -0.276 OA
ATOM     17  H   LIG d   1       2.842  85.082 109.530  0.00  0.00     0.149 HD
ENDBRANCH   6  13
BRANCH   5  18
ATOM     18  N   LIG d   1       4.727  82.454 109.054  0.00  0.00     0.381 N 
ATOM     19  H   LIG d   1       5.130  82.799 109.902  0.00  0.00    -0.090 HD
ATOM     20  H   LIG d   1       4.969  83.085 108.310  0.00  0.00    -0.090 HD
ATOM     21  H   LIG d   1       5.080  81.544 108.856  0.00  0.00    -0.090 HD
ENDBRANCH   5  18
BRANCH   3  22
ATOM     22  C   LIG d   1       0.862  79.625 109.014  0.00  0.00     0.382 C 
ATOM     23  O   LIG d   1      -0.358  79.650 108.725  0.00  0.00    -0.241 OA
ATOM     24  O   LIG d   1       1.501  78.563 108.889  0.00  0.00    -0.241 OA
ENDBRANCH   3  22
TORSDOF 7
ENDMDL
MODEL 5
REMARK VINA RESULT:      -5.8      2.323      4.339
REMARK  7 active torsions:
REMARK  status: ('A' for Active; 'I' for Inactive)
REMARK    1  A    between atoms: C_2  and  C_3 
REMARK    2  A    between atoms: C_3  and  O_6 
REMARK    3  A    between atoms: C_3  and  C_4 
REMARK    4  A    between atoms: C_7  and  O_6 
REMARK    5  A    between atoms: C_9  and  C_10 
REMARK    6  A    between atoms: N_15  and  C_14 
REMARK    7  A    between atoms: N_20  and  C_19 
REMARK       I    between atoms: C_22  and  N_20 
ROOT
ATOM      1  C   LIG d   1       0.348  82.680 110.929  0.00  0.00     0.161 C 
ATOM      2  C   LIG d   1       0.004  83.987 111.312  0.00  0.00     0.016 C 
ATOM      3  C   LIG d   1       0.161  85.112 110.471  0.00  0.00     0.038 C 
ATOM      4  C   LIG d   1       0.536  84.985 109.125  0.00  0.00     0.028 C 
ATOM      5  C   LIG d   1       1.376  83.743 108.845  0.00  0.00    -0.047 C 
ATOM      6  C   LIG d   1       0.654  82.507 109.426  0.00  0.00     0.091 C 
ENDROOT
BRANCH   1   7
ATOM      7  O   LIG d   1      -0.685  81.763 111.339  0.00  0.00    -0.368 OA
BRANCH   7   8
ATOM      8  C   LIG d   1      -0.269  80.686 112.216  0.00  0.00     0.119 C 
BRANCH   8   9
ATOM      9  C   LIG d   1      -1.304  79.553 112.079  0.00  0.00     0.028 C 
ATOM     10  C   LIG d   1      -0.999  78.365 113.007  0.00  0.00     0.006 C 
ENDBRANCH   8   9
BRANCH   8  11
ATOM     11  C   LIG d   1      -0.326  81.112 113.686  0.00  0.00     0.028 C 
ATOM     12  C   LIG d   1       1.068  81.291 114.309  0.00  0.00     0.006 C 
ENDBRANCH   8  11
ENDBRANCH   7   8
ENDBRANCH   1   7
BRANCH   6  13
ATOM     13  N   LIG d   1       1.448  81.261 109.270  0.00  0.00    -0.311 N 
ATOM     14  C   LIG d   1       0.924  80.102 108.873  0.00  0.00     0.210 C 
ATOM     15  C   LIG d   1       1.915  78.936 108.798  0.00  0.00     0.109 C 
ATOM     16  O   LIG d   1      -0.260  79.937 108.545  0.00  0.00    -0.276 OA
ATOM     17  H   LIG d   1       2.425  81.312 109.485  0.00  0.00     0.149 HD
ENDBRANCH   6  13
BRANCH   5  18
ATOM     18  N   LIG d   1       1.579  83.662 107.386  0.00  0.00     0.381 N 
ATOM     19  H   LIG d   1       1.534  82.707 107.091  0.00  0.00    -0.090 HD
ATOM     20  H   LIG d   1       2.493  84.017 107.165  0.00  0.00    -0.090 HD
ATOM     21  H   LIG d   1       0.883  84.197 106.915  0.00  0.00    -0.090 HD
ENDBRANCH   5  18
BRANCH   3  22
ATOM     22  C   LIG d   1      -0.018  86.387 110.987  0.00  0.00     0.382 C 
ATOM     23  O   LIG d   1       0.977  87.077 111.314  0.00  0.00    -0.241 OA
ATOM     24  O   LIG d   1      -1.165  86.838 111.170  0.00  0.00    -0.241 OA
ENDBRANCH   3  22
TORSDOF 7
ENDMDL
MODEL 6
REMARK VINA RESULT:      -5.4      2.271      4.110
REMARK  7 active torsions:
REMARK  status: ('A' for Active; 'I' for Inactive)
REMARK    1  A    between atoms: C_2  and  C_3 
REMARK    2  A    between atoms: C_3  and  O_6 
REMARK    3  A    between atoms: C_3  and  C_4 
REMARK    4  A    between atoms: C_7  and  O_6 
REMARK    5  A    between atoms: C_9  and  C_10 
REMARK    6  A    between atoms: N_15  and  C_14 
REMARK    7  A    between atoms: N_20  and  C_19 
REMARK       I    between atoms: C_22  and  N_20 
ROOT
ATOM      1  C   LIG d   1       1.664  84.244 112.357  0.00  0.00     0.161 C 
ATOM      2  C   LIG d   1       0.663  84.839 113.143  0.00  0.00     0.016 C 
ATOM      3  C   LIG d   1      -0.346  85.677 112.615  0.00  0.00     0.038 C 
ATOM      4  C   LIG d   1      -0.512  85.857 111.234  0.00  0.00     0.028 C 
ATOM      5  C   LIG d   1       0.778  85.682 110.440  0.00  0.00    -0.047 C 
ATOM      6  C   LIG d   1       1.432  84.338 110.834  0.00  0.00     0.091 C 
ENDROOT
BRANCH   1   7
ATOM      7  O   LIG d   1       1.842  82.869 112.752  0.00  0.00    -0.368 OA
BRANCH   7   8
ATOM      8  C   LIG d   1       0.786  82.296 113.562  0.00  0.00     0.119 C 
BRANCH   8   9
ATOM      9  C   LIG d   1       1.455  81.498 114.698  0.00  0.00     0.028 C 
ATOM     10  C   LIG d   1       0.927  80.057 114.792  0.00  0.00     0.006 C 
ENDBRANCH   8   9
BRANCH   8  11
ATOM     11  C   LIG d   1      -0.028  81.270 112.770  0.00  0.00     0.028 C 
ATOM     12  C   LIG d   1      -1.448  81.759 112.444  0.00  0.00     0.006 C 
ENDBRANCH   8  11
ENDBRANCH   7   8
ENDBRANCH   1   7
BRANCH   6  13
ATOM     13  N   LIG d   1       2.743  84.128 110.166  0.00  0.00    -0.311 N 
ATOM     14  C   LIG d   1       3.007  83.084 109.383  0.00  0.00     0.210 C 
ATOM     15  C   LIG d   1       4.427  83.049 108.809  0.00  0.00     0.109 C 
ATOM     16  O   LIG d   1       2.190  82.200 109.083  0.00  0.00    -0.276 OA
ATOM     17  H   LIG d   1       3.453  84.814 110.330  0.00  0.00     0.149 HD
ENDBRANCH   6  13
BRANCH   5  18
ATOM     18  N   LIG d   1       0.434  85.759 109.007  0.00  0.00     0.381 N 
ATOM     19  H   LIG d   1      -0.076  84.942 108.737  0.00  0.00    -0.090 HD
ATOM     20  H   LIG d   1       1.283  85.794 108.471  0.00  0.00    -0.090 HD
ATOM     21  H   LIG d   1      -0.112  86.574 108.831  0.00  0.00    -0.090 HD
ENDBRANCH   5  18
BRANCH   3  22
ATOM     22  C   LIG d   1      -1.177  86.378 113.475  0.00  0.00     0.382 C 
ATOM     23  O   LIG d   1      -0.848  86.534 114.676  0.00  0.00    -0.241 OA
ATOM     24  O   LIG d   1      -2.271  86.820 113.077  0.00  0.00    -0.241 OA
ENDBRANCH   3  22
TORSDOF 7
ENDMDL
MODEL 7
REMARK VINA RESULT:      -5.4      2.609      5.969
REMARK  7 active torsions:
REMARK  status: ('A' for Active; 'I' for Inactive)
REMARK    1  A    between atoms: C_2  and  C_3 
REMARK    2  A    between atoms: C_3  and  O_6 
REMARK    3  A    between atoms: C_3  and  C_4 
REMARK    4  A    between atoms: C_7  and  O_6 
REMARK    5  A    between atoms: C_9  and  C_10 
REMARK    6  A    between atoms: N_15  and  C_14 
REMARK    7  A    between atoms: N_20  and  C_19 
REMARK       I    between atoms: C_22  and  N_20 
ROOT
ATOM      1  C   LIG d   1       0.762  82.887 110.593  0.00  0.00     0.161 C 
ATOM      2  C   LIG d   1       0.404  81.594 110.176  0.00  0.00     0.016 C 
ATOM      3  C   LIG d   1       1.311  80.691 109.575  0.00  0.00     0.038 C 
ATOM      4  C   LIG d   1       2.683  80.968 109.487  0.00  0.00     0.028 C 
ATOM      5  C   LIG d   1       2.999  82.459 109.435  0.00  0.00    -0.047 C 
ATOM      6  C   LIG d   1       2.280  83.165 110.607  0.00  0.00     0.091 C 
ENDROOT
BRANCH   1   7
ATOM      7  O   LIG d   1       0.191  83.158 111.888  0.00  0.00    -0.368 OA
BRANCH   7   8
ATOM      8  C   LIG d   1       0.890  82.591 113.024  0.00  0.00     0.119 C 
BRANCH   8   9
ATOM      9  C   LIG d   1      -0.125  81.744 113.816  0.00  0.00     0.028 C 
ATOM     10  C   LIG d   1       0.009  80.241 113.521  0.00  0.00     0.006 C 
ENDBRANCH   8   9
BRANCH   8  11
ATOM     11  C   LIG d   1       1.352  83.682 113.995  0.00  0.00     0.028 C 
ATOM     12  C   LIG d   1       0.607  83.639 115.338  0.00  0.00     0.006 C 
ENDBRANCH   8  11
ENDBRANCH   7   8
ENDBRANCH   1   7
BRANCH   6  13
ATOM     13  N   LIG d   1       2.467  84.639 110.581  0.00  0.00    -0.311 N 
ATOM     14  C   LIG d   1       3.396  85.273 111.295  0.00  0.00     0.210 C 
ATOM     15  C   LIG d   1       3.405  86.796 111.137  0.00  0.00     0.109 C 
ATOM     16  O   LIG d   1       4.234  84.715 112.019  0.00  0.00    -0.276 OA
ATOM     17  H   LIG d   1       1.850  85.167 109.995  0.00  0.00     0.149 HD
ENDBRANCH   6  13
BRANCH   5  18
ATOM     18  N   LIG d   1       4.466  82.606 109.484  0.00  0.00     0.381 N 
ATOM     19  H   LIG d   1       4.861  81.878 110.046  0.00  0.00    -0.090 HD
ATOM     20  H   LIG d   1       4.690  83.489 109.908  0.00  0.00    -0.090 HD
ATOM     21  H   LIG d   1       4.844  82.566 108.563  0.00  0.00    -0.090 HD
ENDBRANCH   5  18
BRANCH   3  22
ATOM     22  C   LIG d   1       0.839  79.512 109.018  0.00  0.00     0.382 C 
ATOM     23  O   LIG d   1       1.643  78.602 108.703  0.00  0.00    -0.241 OA
ATOM     24  O   LIG d   1      -0.376  79.365 108.785  0.00  0.00    -0.241 OA
ENDBRANCH   3  22
TORSDOF 7
ENDMDL
MODEL 8
REMARK VINA RESULT:      -5.2      2.273      6.119
REMARK  7 active torsions:
REMARK  status: ('A' for Active; 'I' for Inactive)
REMARK    1  A    between atoms: C_2  and  C_3 
REMARK    2  A    between atoms: C_3  and  O_6 
REMARK    3  A    between atoms: C_3  and  C_4 
REMARK    4  A    between atoms: C_7  and  O_6 
REMARK    5  A    between atoms: C_9  and  C_10 
REMARK    6  A    between atoms: N_15  and  C_14 
REMARK    7  A    between atoms: N_20  and  C_19 
REMARK       I    between atoms: C_22  and  N_20 
ROOT
ATOM      1  C   LIG d   1       0.458  82.230 110.511  0.00  0.00     0.161 C 
ATOM      2  C   LIG d   1       1.281  81.136 110.192  0.00  0.00     0.016 C 
ATOM      3  C   LIG d   1       2.624  81.269 109.770  0.00  0.00     0.038 C 
ATOM      4  C   LIG d   1       3.286  82.505 109.785  0.00  0.00     0.028 C 
ATOM      5  C   LIG d   1       2.350  83.697 109.616  0.00  0.00    -0.047 C 
ATOM      6  C   LIG d   1       1.197  83.578 110.639  0.00  0.00     0.091 C 
ENDROOT
BRANCH   1   7
ATOM      7  O   LIG d   1      -0.284  81.948 111.714  0.00  0.00    -0.368 OA
BRANCH   7   8
ATOM      8  C   LIG d   1       0.406  81.168 112.721  0.00  0.00     0.119 C 
BRANCH   8   9
ATOM      9  C   LIG d   1      -0.587  80.118 113.254  0.00  0.00     0.028 C 
ATOM     10  C   LIG d   1      -1.857  80.020 112.392  0.00  0.00     0.006 C 
ENDBRANCH   8   9
BRANCH   8  11
ATOM     11  C   LIG d   1       0.779  82.027 113.933  0.00  0.00     0.028 C 
ATOM     12  C   LIG d   1      -0.108  83.274 114.074  0.00  0.00     0.006 C 
ENDBRANCH   8  11
ENDBRANCH   7   8
ENDBRANCH   1   7
BRANCH   6  13
ATOM     13  N   LIG d   1       0.189  84.659 110.486  0.00  0.00    -0.311 N 
ATOM     14  C   LIG d   1       0.186  85.768 111.224  0.00  0.00     0.210 C 
ATOM     15  C   LIG d   1      -0.954  86.745 110.917  0.00  0.00     0.109 C 
ATOM     16  O   LIG d   1       1.036  86.050 112.082  0.00  0.00    -0.276 OA
ATOM     17  H   LIG d   1      -0.519  84.527 109.791  0.00  0.00     0.149 HD
ENDBRANCH   6  13
BRANCH   5  18
ATOM     18  N   LIG d   1       3.152  84.922 109.788  0.00  0.00     0.381 N 
ATOM     19  H   LIG d   1       2.663  85.568 110.375  0.00  0.00    -0.090 HD
ATOM     20  H   LIG d   1       3.286  85.352 108.889  0.00  0.00    -0.090 HD
ATOM     21  H   LIG d   1       4.035  84.698 110.192  0.00  0.00    -0.090 HD
ENDBRANCH   5  18
BRANCH   3  22
ATOM     22  C   LIG d   1       3.306  80.161 109.290  0.00  0.00     0.382 C 
ATOM     23  O   LIG d   1       4.560  80.145 109.301  0.00  0.00    -0.241 OA
ATOM     24  O   LIG d   1       2.684  79.197 108.805  0.00  0.00    -0.241 OA
ENDBRANCH   3  22
TORSDOF 7
ENDMDL
MODEL 9
REMARK VINA RESULT:      -4.7     10.686     13.158
REMARK  7 active torsions:
REMARK  status: ('A' for Active; 'I' for Inactive)
REMARK    1  A    between atoms: C_2  and  C_3 
REMARK    2  A    between atoms: C_3  and  O_6 
REMARK    3  A    between atoms: C_3  and  C_4 
REMARK    4  A    between atoms: C_7  and  O_6 
REMARK    5  A    between atoms: C_9  and  C_10 
REMARK    6  A    between atoms: N_15  and  C_14 
REMARK    7  A    between atoms: N_20  and  C_19 
REMARK       I    between atoms: C_22  and  N_20 
ROOT
ATOM      1  C   LIG d   1      11.481  78.834 115.024  0.00  0.00     0.161 C 
ATOM      2  C   LIG d   1      12.781  79.067 114.545  0.00  0.00     0.016 C 
ATOM      3  C   LIG d   1      13.629  78.042 114.066  0.00  0.00     0.038 C 
ATOM      4  C   LIG d   1      13.176  76.726 113.892  0.00  0.00     0.028 C 
ATOM      5  C   LIG d   1      12.038  76.348 114.834  0.00  0.00    -0.047 C 
ATOM      6  C   LIG d   1      10.930  77.421 114.738  0.00  0.00     0.091 C 
ENDROOT
BRANCH   1   7
ATOM      7  O   LIG d   1      10.583  79.836 114.507  0.00  0.00    -0.368 OA
BRANCH   7   8
ATOM      8  C   LIG d   1      11.082  81.196 114.499  0.00  0.00     0.119 C 
BRANCH   8   9
ATOM      9  C   LIG d   1      10.370  81.957 115.635  0.00  0.00     0.028 C 
ATOM     10  C   LIG d   1       9.785  83.300 115.165  0.00  0.00     0.006 C 
ENDBRANCH   8   9
BRANCH   8  11
ATOM     11  C   LIG d   1      10.688  81.927 113.212  0.00  0.00     0.028 C 
ATOM     12  C   LIG d   1      11.424  81.392 111.974  0.00  0.00     0.006 C 
ENDBRANCH   8  11
ENDBRANCH   7   8
ENDBRANCH   1   7
BRANCH   6  13
ATOM     13  N   LIG d   1       9.816  77.172 115.690  0.00  0.00    -0.311 N 
ATOM     14  C   LIG d   1       8.742  76.444 115.388  0.00  0.00     0.210 C 
ATOM     15  C   LIG d   1       7.703  76.329 116.507  0.00  0.00     0.109 C 
ATOM     16  O   LIG d   1       8.567  75.856 114.310  0.00  0.00    -0.276 OA
ATOM     17  H   LIG d   1       9.890  77.587 116.598  0.00  0.00     0.149 HD
ENDBRANCH   6  13
BRANCH   5  18
ATOM     18  N   LIG d   1      11.572  75.001 114.452  0.00  0.00     0.381 N 
ATOM     19  H   LIG d   1      10.687  74.815 114.879  0.00  0.00    -0.090 HD
ATOM     20  H   LIG d   1      12.233  74.322 114.786  0.00  0.00    -0.090 HD
ATOM     21  H   LIG d   1      11.491  74.937 113.461  0.00  0.00    -0.090 HD
ENDBRANCH   5  18
BRANCH   3  22
ATOM     22  C   LIG d   1      14.959  78.323 113.793  0.00  0.00     0.382 C 
ATOM     23  O   LIG d   1      15.259  79.323 113.099  0.00  0.00    -0.241 OA
ATOM     24  O   LIG d   1      15.860  77.563 114.195  0.00  0.00    -0.241 OA
ENDBRANCH   3  22
TORSDOF 7
ENDMDL
