MODEL 1
REMARK VINA RESULT:      -6.7      0.000      0.000
REMARK  7 active torsions:
REMARK  status: ('A' for Active; 'I' for Inactive)
REMARK    1  A    between atoms: C_2  and  C_3 
REMARK    2  A    between atoms: C_3  and  O_6 
REMARK    3  A    between atoms: C_3  and  C_4 
REMARK    4  A    between atoms: C_7  and  O_6 
REMARK    5  A    between atoms: C_9  and  C_10 
REMARK    6  A    between atoms: N_15  and  C_14 
REMARK    7  A    between atoms: N_20  and  C_19 
REMARK       I    between atoms: C_22  and  N_20 
ROOT
ATOM      1  C   LIG d   1       0.428  82.965 111.329  0.00  0.00     0.161 C 
ATOM      2  C   LIG d   1      -0.715  82.711 112.105  0.00  0.00     0.016 C 
ATOM      3  C   LIG d   1      -1.282  81.425 112.257  0.00  0.00     0.038 C 
ATOM      4  C   LIG d   1      -0.651  80.273 111.762  0.00  0.00     0.028 C 
ATOM      5  C   LIG d   1       0.231  80.541 110.548  0.00  0.00    -0.047 C 
ATOM      6  C   LIG d   1       1.194  81.706 110.873  0.00  0.00     0.091 C 
ENDROOT
BRANCH   1   7
ATOM      7  O   LIG d   1       1.310  83.859 112.037  0.00  0.00    -0.368 OA
BRANCH   7   8
ATOM      8  C   LIG d   1       1.501  85.167 111.446  0.00  0.00     0.119 C 
BRANCH   8   9
ATOM      9  C   LIG d   1       0.471  85.317 110.310  0.00  0.00     0.028 C 
ATOM     10  C   LIG d   1      -0.601  86.374 110.625  0.00  0.00     0.006 C 
ENDBRANCH   8   9
BRANCH   8  11
ATOM     11  C   LIG d   1       2.870  85.278 110.768  0.00  0.00     0.028 C 
ATOM     12  C   LIG d   1       3.872  86.113 111.581  0.00  0.00     0.006 C 
ENDBRANCH   8  11
ENDBRANCH   7   8
ENDBRANCH   1   7
BRANCH   6  13
ATOM     13  N   LIG d   1       2.035  82.087 109.709  0.00  0.00    -0.311 N 
ATOM     14  C   LIG d   1       3.281  81.650 109.530  0.00  0.00     0.210 C 
ATOM     15  C   LIG d   1       3.978  82.182 108.275  0.00  0.00     0.109 C 
ATOM     16  O   LIG d   1       3.862  80.847 110.275  0.00  0.00    -0.276 OA
ATOM     17  H   LIG d   1       1.631  82.712 109.039  0.00  0.00     0.149 HD
ENDBRANCH   6  13
BRANCH   5  18
ATOM     18  N   LIG d   1       0.933  79.285 110.222  0.00  0.00     0.381 N 
ATOM     19  H   LIG d   1       1.469  79.403 109.385  0.00  0.00    -0.090 HD
ATOM     20  H   LIG d   1       0.252  78.564 110.061  0.00  0.00    -0.090 HD
ATOM     21  H   LIG d   1       1.532  79.024 110.974  0.00  0.00    -0.090 HD
ENDBRANCH   5  18
BRANCH   3  22
ATOM     22  C   LIG d   1      -2.515  81.286 112.877  0.00  0.00     0.382 C 
ATOM     23  O   LIG d   1      -2.579  80.867 114.057  0.00  0.00    -0.241 OA
ATOM     24  O   LIG d   1      -3.566  81.532 112.255  0.00  0.00    -0.241 OA
ENDBRANCH   3  22
TORSDOF 7
ENDMDL
MODEL 2
REMARK VINA RESULT:      -6.7      1.618      4.953
REMARK  7 active torsions:
REMARK  status: ('A' for Active; 'I' for Inactive)
REMARK    1  A    between atoms: C_2  and  C_3 
REMARK    2  A    between atoms: C_3  and  O_6 
REMARK    3  A    between atoms: C_3  and  C_4 
REMARK    4  A    between atoms: C_7  and  O_6 
REMARK    5  A    between atoms: C_9  and  C_10 
REMARK    6  A    between atoms: N_15  and  C_14 
REMARK    7  A    between atoms: N_20  and  C_19 
REMARK       I    between atoms: C_22  and  N_20 
ROOT
ATOM      1  C   LIG d   1       1.733  83.254 111.539  0.00  0.00     0.161 C 
ATOM      2  C   LIG d   1       2.666  83.190 110.491  0.00  0.00     0.016 C 
ATOM      3  C   LIG d   1       2.630  82.206 109.477  0.00  0.00     0.038 C 
ATOM      4  C   LIG d   1       1.563  81.304 109.355  0.00  0.00     0.028 C 
ATOM      5  C   LIG d   1       0.866  81.009 110.679  0.00  0.00    -0.047 C 
ATOM      6  C   LIG d   1       0.497  82.347 111.361  0.00  0.00     0.091 C 
ENDROOT
BRANCH   1   7
ATOM      7  O   LIG d   1       1.325  84.620 111.747  0.00  0.00    -0.368 OA
BRANCH   7   8
ATOM      8  C   LIG d   1       1.949  85.609 110.892  0.00  0.00     0.119 C 
BRANCH   8   9
ATOM      9  C   LIG d   1       2.682  86.613 111.803  0.00  0.00     0.028 C 
ATOM     10  C   LIG d   1       4.191  86.332 111.891  0.00  0.00     0.006 C 
ENDBRANCH   8   9
BRANCH   8  11
ATOM     11  C   LIG d   1       0.902  86.434 110.138  0.00  0.00     0.028 C 
ATOM     12  C   LIG d   1       0.141  85.613 109.085  0.00  0.00     0.006 C 
ENDBRANCH   8  11
ENDBRANCH   7   8
ENDBRANCH   1   7
BRANCH   6  13
ATOM     13  N   LIG d   1      -0.114  82.150 112.702  0.00  0.00    -0.311 N 
ATOM     14  C   LIG d   1      -1.424  82.016 112.898  0.00  0.00     0.210 C 
ATOM     15  C   LIG d   1      -1.845  81.843 114.361  0.00  0.00     0.109 C 
ATOM     16  O   LIG d   1      -2.275  81.991 111.996  0.00  0.00    -0.276 OA
ATOM     17  H   LIG d   1       0.507  82.126 113.487  0.00  0.00     0.149 HD
ENDBRANCH   6  13
BRANCH   5  18
ATOM     18  N   LIG d   1      -0.309  80.167 110.386  0.00  0.00     0.381 N 
ATOM     19  H   LIG d   1      -0.511  79.582 111.172  0.00  0.00    -0.090 HD
ATOM     20  H   LIG d   1      -0.099  79.577 109.600  0.00  0.00    -0.090 HD
ATOM     21  H   LIG d   1      -1.097  80.740 110.179  0.00  0.00    -0.090 HD
ENDBRANCH   5  18
BRANCH   3  22
ATOM     22  C   LIG d   1       3.692  82.092 108.592  0.00  0.00     0.382 C 
ATOM     23  O   LIG d   1       4.864  82.297 108.990  0.00  0.00    -0.241 OA
ATOM     24  O   LIG d   1       3.489  81.830 107.391  0.00  0.00    -0.241 OA
ENDBRANCH   3  22
TORSDOF 7
ENDMDL
MODEL 3
REMARK VINA RESULT:      -5.7      1.790      4.761
REMARK  7 active torsions:
REMARK  status: ('A' for Active; 'I' for Inactive)
REMARK    1  A    between atoms: C_2  and  C_3 
REMARK    2  A    between atoms: C_3  and  O_6 
REMARK    3  A    between atoms: C_3  and  C_4 
REMARK    4  A    between atoms: C_7  and  O_6 
REMARK    5  A    between atoms: C_9  and  C_10 
REMARK    6  A    between atoms: N_15  and  C_14 
REMARK    7  A    between atoms: N_20  and  C_19 
REMARK       I    between atoms: C_22  and  N_20 
ROOT
ATOM      1  C   LIG d   1       0.440  83.042 111.361  0.00  0.00     0.161 C 
ATOM      2  C   LIG d   1       1.397  82.907 110.341  0.00  0.00     0.016 C 
ATOM      3  C   LIG d   1       1.611  81.703 109.631  0.00  0.00     0.038 C 
ATOM      4  C   LIG d   1       0.773  80.589 109.790  0.00  0.00     0.028 C 
ATOM      5  C   LIG d   1       0.118  80.515 111.165  0.00  0.00    -0.047 C 
ATOM      6  C   LIG d   1      -0.558  81.871 111.472  0.00  0.00     0.091 C 
ENDROOT
BRANCH   1   7
ATOM      7  O   LIG d   1      -0.266  84.289 111.206  0.00  0.00    -0.368 OA
BRANCH   7   8
ATOM      8  C   LIG d   1       0.093  85.345 112.131  0.00  0.00     0.119 C 
BRANCH   8   9
ATOM      9  C   LIG d   1       1.393  85.990 111.615  0.00  0.00     0.028 C 
ATOM     10  C   LIG d   1       1.256  86.517 110.177  0.00  0.00     0.006 C 
ENDBRANCH   8   9
BRANCH   8  11
ATOM     11  C   LIG d   1       0.441  84.781 113.512  0.00  0.00     0.028 C 
ATOM     12  C   LIG d   1       1.878  85.111 113.946  0.00  0.00     0.006 C 
ENDBRANCH   8  11
ENDBRANCH   7   8
ENDBRANCH   1   7
BRANCH   6  13
ATOM     13  N   LIG d   1      -1.151  81.913 112.834  0.00  0.00    -0.311 N 
ATOM     14  C   LIG d   1      -2.434  81.656 113.083  0.00  0.00     0.210 C 
ATOM     15  C   LIG d   1      -2.843  81.774 114.555  0.00  0.00     0.109 C 
ATOM     16  O   LIG d   1      -3.265  81.311 112.230  0.00  0.00    -0.276 OA
ATOM     17  H   LIG d   1      -0.540  82.154 113.590  0.00  0.00     0.149 HD
ENDBRANCH   6  13
BRANCH   5  18
ATOM     18  N   LIG d   1      -0.831  79.387 111.146  0.00  0.00     0.381 N 
ATOM     19  H   LIG d   1      -0.839  78.965 110.238  0.00  0.00    -0.090 HD
ATOM     20  H   LIG d   1      -1.754  79.735 111.339  0.00  0.00    -0.090 HD
ATOM     21  H   LIG d   1      -0.573  78.712 111.831  0.00  0.00    -0.090 HD
ENDBRANCH   5  18
BRANCH   3  22
ATOM     22  C   LIG d   1       2.698  81.593 108.777  0.00  0.00     0.382 C 
ATOM     23  O   LIG d   1       2.815  80.587 108.037  0.00  0.00    -0.241 OA
ATOM     24  O   LIG d   1       3.587  82.466 108.771  0.00  0.00    -0.241 OA
ENDBRANCH   3  22
TORSDOF 7
ENDMDL
MODEL 4
REMARK VINA RESULT:      -4.8      2.409      5.732
REMARK  7 active torsions:
REMARK  status: ('A' for Active; 'I' for Inactive)
REMARK    1  A    between atoms: C_2  and  C_3 
REMARK    2  A    between atoms: C_3  and  O_6 
REMARK    3  A    between atoms: C_3  and  C_4 
REMARK    4  A    between atoms: C_7  and  O_6 
REMARK    5  A    between atoms: C_9  and  C_10 
REMARK    6  A    between atoms: N_15  and  C_14 
REMARK    7  A    between atoms: N_20  and  C_19 
REMARK       I    between atoms: C_22  and  N_20 
ROOT
ATOM      1  C   LIG d   1       2.276  83.323 111.162  0.00  0.00     0.161 C 
ATOM      2  C   LIG d   1       2.861  84.598 111.103  0.00  0.00     0.016 C 
ATOM      3  C   LIG d   1       2.686  85.581 112.104  0.00  0.00     0.038 C 
ATOM      4  C   LIG d   1       2.033  85.300 113.313  0.00  0.00     0.028 C 
ATOM      5  C   LIG d   1       0.996  84.188 113.197  0.00  0.00    -0.047 C 
ATOM      6  C   LIG d   1       1.651  82.959 112.525  0.00  0.00     0.091 C 
ENDROOT
BRANCH   1   7
ATOM      7  O   LIG d   1       3.239  82.325 110.770  0.00  0.00    -0.368 OA
BRANCH   7   8
ATOM      8  C   LIG d   1       3.125  81.826 109.414  0.00  0.00     0.119 C 
BRANCH   8   9
ATOM      9  C   LIG d   1       1.630  81.579 109.136  0.00  0.00     0.028 C 
ATOM     10  C   LIG d   1       1.329  80.108 108.806  0.00  0.00     0.006 C 
ENDBRANCH   8   9
BRANCH   8  11
ATOM     11  C   LIG d   1       3.797  80.458 109.265  0.00  0.00     0.028 C 
ATOM     12  C   LIG d   1       5.037  80.498 108.359  0.00  0.00     0.006 C 
ENDBRANCH   8  11
ENDBRANCH   7   8
ENDBRANCH   1   7
BRANCH   6  13
ATOM     13  N   LIG d   1       0.683  81.855 112.297  0.00  0.00    -0.311 N 
ATOM     14  C   LIG d   1      -0.614  82.052 112.069  0.00  0.00     0.210 C 
ATOM     15  C   LIG d   1      -1.439  80.775 111.879  0.00  0.00     0.109 C 
ATOM     16  O   LIG d   1      -1.154  83.165 111.974  0.00  0.00    -0.276 OA
ATOM     17  H   LIG d   1       1.042  80.921 112.326  0.00  0.00     0.149 HD
ENDBRANCH   6  13
BRANCH   5  18
ATOM     18  N   LIG d   1       0.493  83.904 114.555  0.00  0.00     0.381 N 
ATOM     19  H   LIG d   1       0.630  82.937 114.771  0.00  0.00    -0.090 HD
ATOM     20  H   LIG d   1      -0.493  84.097 114.582  0.00  0.00    -0.090 HD
ATOM     21  H   LIG d   1       0.969  84.472 115.220  0.00  0.00    -0.090 HD
ENDBRANCH   5  18
BRANCH   3  22
ATOM     22  C   LIG d   1       3.134  86.875 111.883  0.00  0.00     0.382 C 
ATOM     23  O   LIG d   1       2.318  87.778 111.580  0.00  0.00    -0.241 OA
ATOM     24  O   LIG d   1       4.350  87.141 111.940  0.00  0.00    -0.241 OA
ENDBRANCH   3  22
TORSDOF 7
ENDMDL
MODEL 5
REMARK VINA RESULT:      -4.3     27.752     30.419
REMARK  7 active torsions:
REMARK  status: ('A' for Active; 'I' for Inactive)
REMARK    1  A    between atoms: C_2  and  C_3 
REMARK    2  A    between atoms: C_3  and  O_6 
REMARK    3  A    between atoms: C_3  and  C_4 
REMARK    4  A    between atoms: C_7  and  O_6 
REMARK    5  A    between atoms: C_9  and  C_10 
REMARK    6  A    between atoms: N_15  and  C_14 
REMARK    7  A    between atoms: N_20  and  C_19 
REMARK       I    between atoms: C_22  and  N_20 
ROOT
ATOM      1  C   LIG d   1     -13.635  56.284 110.318  0.00  0.00     0.161 C 
ATOM      2  C   LIG d   1     -12.529  56.566 111.138  0.00  0.00     0.016 C 
ATOM      3  C   LIG d   1     -12.582  57.454 112.237  0.00  0.00     0.038 C 
ATOM      4  C   LIG d   1     -13.790  58.008 112.686  0.00  0.00     0.028 C 
ATOM      5  C   LIG d   1     -14.837  58.149 111.586  0.00  0.00    -0.047 C 
ATOM      6  C   LIG d   1     -14.987  56.793 110.859  0.00  0.00     0.091 C 
ENDROOT
BRANCH   1   7
ATOM      7  O   LIG d   1     -13.701  54.868 110.057  0.00  0.00    -0.368 OA
BRANCH   7   8
ATOM      8  C   LIG d   1     -13.343  54.450 108.717  0.00  0.00     0.119 C 
BRANCH   8   9
ATOM      9  C   LIG d   1     -11.944  53.808 108.791  0.00  0.00     0.028 C 
ATOM     10  C   LIG d   1     -10.972  54.398 107.755  0.00  0.00     0.006 C 
ENDBRANCH   8   9
BRANCH   8  11
ATOM     11  C   LIG d   1     -13.188  55.652 107.781  0.00  0.00     0.028 C 
ATOM     12  C   LIG d   1     -14.271  55.701 106.691  0.00  0.00     0.006 C 
ENDBRANCH   8  11
ENDBRANCH   7   8
ENDBRANCH   1   7
BRANCH   6  13
ATOM     13  N   LIG d   1     -15.931  56.865 109.714  0.00  0.00    -0.311 N 
ATOM     14  C   LIG d   1     -16.920  55.994 109.523  0.00  0.00     0.210 C 
ATOM     15  C   LIG d   1     -17.765  56.239 108.268  0.00  0.00     0.109 C 
ATOM     16  O   LIG d   1     -17.199  55.060 110.290  0.00  0.00    -0.276 OA
ATOM     17  H   LIG d   1     -15.798  57.611 109.059  0.00  0.00     0.149 HD
ENDBRANCH   6  13
BRANCH   5  18
ATOM     18  N   LIG d   1     -16.088  58.609 112.218  0.00  0.00     0.381 N 
ATOM     19  H   LIG d   1     -15.882  59.295 112.916  0.00  0.00    -0.090 HD
ATOM     20  H   LIG d   1     -16.532  57.827 112.665  0.00  0.00    -0.090 HD
ATOM     21  H   LIG d   1     -16.695  58.996 111.529  0.00  0.00    -0.090 HD
ENDBRANCH   5  18
BRANCH   3  22
ATOM     22  C   LIG d   1     -11.409  57.827 112.876  0.00  0.00     0.382 C 
ATOM     23  O   LIG d   1     -10.904  58.953 112.652  0.00  0.00    -0.241 OA
ATOM     24  O   LIG d   1     -10.825  57.033 113.638  0.00  0.00    -0.241 OA
ENDBRANCH   3  22
TORSDOF 7
ENDMDL
MODEL 6
REMARK VINA RESULT:      -4.3     27.807     29.365
REMARK  7 active torsions:
REMARK  status: ('A' for Active; 'I' for Inactive)
REMARK    1  A    between atoms: C_2  and  C_3 
REMARK    2  A    between atoms: C_3  and  O_6 
REMARK    3  A    between atoms: C_3  and  C_4 
REMARK    4  A    between atoms: C_7  and  O_6 
REMARK    5  A    between atoms: C_9  and  C_10 
REMARK    6  A    between atoms: N_15  and  C_14 
REMARK    7  A    between atoms: N_20  and  C_19 
REMARK       I    between atoms: C_22  and  N_20 
ROOT
ATOM      1  C   LIG d   1     -27.562  72.917 112.143  0.00  0.00     0.161 C 
ATOM      2  C   LIG d   1     -26.894  72.055 113.029  0.00  0.00     0.016 C 
ATOM      3  C   LIG d   1     -26.235  70.874 112.617  0.00  0.00     0.038 C 
ATOM      4  C   LIG d   1     -26.068  70.552 111.262  0.00  0.00     0.028 C 
ATOM      5  C   LIG d   1     -27.159  71.128 110.364  0.00  0.00    -0.047 C 
ATOM      6  C   LIG d   1     -27.296  72.641 110.648  0.00  0.00     0.091 C 
ENDROOT
BRANCH   1   7
ATOM      7  O   LIG d   1     -27.246  74.287 112.463  0.00  0.00    -0.368 OA
BRANCH   7   8
ATOM      8  C   LIG d   1     -25.898  74.719 112.155  0.00  0.00     0.119 C 
BRANCH   8   9
ATOM      9  C   LIG d   1     -25.316  75.365 113.427  0.00  0.00     0.028 C 
ATOM     10  C   LIG d   1     -26.357  75.483 114.554  0.00  0.00     0.006 C 
ENDBRANCH   8   9
BRANCH   8  11
ATOM     11  C   LIG d   1     -25.896  75.829 111.100  0.00  0.00     0.028 C 
ATOM     12  C   LIG d   1     -27.193  76.655 111.102  0.00  0.00     0.006 C 
ENDBRANCH   8  11
ENDBRANCH   7   8
ENDBRANCH   1   7
BRANCH   6  13
ATOM     13  N   LIG d   1     -28.398  73.266 109.872  0.00  0.00    -0.311 N 
ATOM     14  C   LIG d   1     -28.206  73.949 108.745  0.00  0.00     0.210 C 
ATOM     15  C   LIG d   1     -29.477  74.527 108.115  0.00  0.00     0.109 C 
ATOM     16  O   LIG d   1     -27.108  74.103 108.190  0.00  0.00    -0.276 OA
ATOM     17  H   LIG d   1     -29.326  73.163 110.234  0.00  0.00     0.149 HD
ENDBRANCH   6  13
BRANCH   5  18
ATOM     18  N   LIG d   1     -26.787  70.833 108.968  0.00  0.00     0.381 N 
ATOM     19  H   LIG d   1     -25.888  71.222 108.767  0.00  0.00    -0.090 HD
ATOM     20  H   LIG d   1     -27.460  71.260 108.355  0.00  0.00    -0.090 HD
ATOM     21  H   LIG d   1     -26.771  69.848 108.820  0.00  0.00    -0.090 HD
ENDBRANCH   5  18
BRANCH   3  22
ATOM     22  C   LIG d   1     -25.768  69.980 113.569  0.00  0.00     0.382 C 
ATOM     23  O   LIG d   1     -26.235  68.817 113.618  0.00  0.00    -0.241 OA
ATOM     24  O   LIG d   1     -24.919  70.336 114.407  0.00  0.00    -0.241 OA
ENDBRANCH   3  22
TORSDOF 7
ENDMDL
MODEL 7
REMARK VINA RESULT:      -4.3     27.704     30.336
REMARK  7 active torsions:
REMARK  status: ('A' for Active; 'I' for Inactive)
REMARK    1  A    between atoms: C_2  and  C_3 
REMARK    2  A    between atoms: C_3  and  O_6 
REMARK    3  A    between atoms: C_3  and  C_4 
REMARK    4  A    between atoms: C_7  and  O_6 
REMARK    5  A    between atoms: C_9  and  C_10 
REMARK    6  A    between atoms: N_15  and  C_14 
REMARK    7  A    between atoms: N_20  and  C_19 
REMARK       I    between atoms: C_22  and  N_20 
ROOT
ATOM      1  C   LIG d   1     -12.725  55.388 110.717  0.00  0.00     0.161 C 
ATOM      2  C   LIG d   1     -12.164  54.753 109.597  0.00  0.00     0.016 C 
ATOM      3  C   LIG d   1     -12.781  54.730 108.325  0.00  0.00     0.038 C 
ATOM      4  C   LIG d   1     -13.937  55.474 108.049  0.00  0.00     0.028 C 
ATOM      5  C   LIG d   1     -14.809  55.718 109.276  0.00  0.00    -0.047 C 
ATOM      6  C   LIG d   1     -13.930  56.299 110.408  0.00  0.00     0.091 C 
ENDROOT
BRANCH   1   7
ATOM      7  O   LIG d   1     -11.706  56.126 111.422  0.00  0.00    -0.368 OA
BRANCH   7   8
ATOM      8  C   LIG d   1     -11.733  56.029 112.867  0.00  0.00     0.119 C 
BRANCH   8   9
ATOM      9  C   LIG d   1     -11.338  57.407 113.431  0.00  0.00     0.028 C 
ATOM     10  C   LIG d   1     -11.150  58.461 112.327  0.00  0.00     0.006 C 
ENDBRANCH   8   9
BRANCH   8  11
ATOM     11  C   LIG d   1     -10.665  55.059 113.380  0.00  0.00     0.028 C 
ATOM     12  C   LIG d   1      -9.856  55.632 114.555  0.00  0.00     0.006 C 
ENDBRANCH   8  11
ENDBRANCH   7   8
ENDBRANCH   1   7
BRANCH   6  13
ATOM     13  N   LIG d   1     -14.688  56.488 111.672  0.00  0.00    -0.311 N 
ATOM     14  C   LIG d   1     -14.931  57.683 112.210  0.00  0.00     0.210 C 
ATOM     15  C   LIG d   1     -15.712  57.652 113.527  0.00  0.00     0.109 C 
ATOM     16  O   LIG d   1     -14.601  58.766 111.704  0.00  0.00    -0.276 OA
ATOM     17  H   LIG d   1     -15.019  55.664 112.133  0.00  0.00     0.149 HD
ENDBRANCH   6  13
BRANCH   5  18
ATOM     18  N   LIG d   1     -15.904  56.620 108.873  0.00  0.00     0.381 N 
ATOM     19  H   LIG d   1     -16.747  56.361 109.345  0.00  0.00    -0.090 HD
ATOM     20  H   LIG d   1     -16.055  56.526 107.884  0.00  0.00    -0.090 HD
ATOM     21  H   LIG d   1     -15.668  57.562 109.093  0.00  0.00    -0.090 HD
ENDBRANCH   5  18
BRANCH   3  22
ATOM     22  C   LIG d   1     -12.262  53.923 107.324  0.00  0.00     0.382 C 
ATOM     23  O   LIG d   1     -12.959  53.646 106.318  0.00  0.00    -0.241 OA
ATOM     24  O   LIG d   1     -11.123  53.431 107.435  0.00  0.00    -0.241 OA
ENDBRANCH   3  22
TORSDOF 7
ENDMDL
MODEL 8
REMARK VINA RESULT:      -4.1     27.766     30.429
REMARK  7 active torsions:
REMARK  status: ('A' for Active; 'I' for Inactive)
REMARK    1  A    between atoms: C_2  and  C_3 
REMARK    2  A    between atoms: C_3  and  O_6 
REMARK    3  A    between atoms: C_3  and  C_4 
REMARK    4  A    between atoms: C_7  and  O_6 
REMARK    5  A    between atoms: C_9  and  C_10 
REMARK    6  A    between atoms: N_15  and  C_14 
REMARK    7  A    between atoms: N_20  and  C_19 
REMARK       I    between atoms: C_22  and  N_20 
ROOT
ATOM      1  C   LIG d   1     -13.146  56.447 110.436  0.00  0.00     0.161 C 
ATOM      2  C   LIG d   1     -14.242  56.733 111.267  0.00  0.00     0.016 C 
ATOM      3  C   LIG d   1     -15.514  56.135 111.111  0.00  0.00     0.038 C 
ATOM      4  C   LIG d   1     -15.736  55.090 110.202  0.00  0.00     0.028 C 
ATOM      5  C   LIG d   1     -14.795  55.121 109.002  0.00  0.00    -0.047 C 
ATOM      6  C   LIG d   1     -13.338  55.228 109.510  0.00  0.00     0.091 C 
ENDROOT
BRANCH   1   7
ATOM      7  O   LIG d   1     -11.957  56.287 111.234  0.00  0.00    -0.368 OA
BRANCH   7   8
ATOM      8  C   LIG d   1     -12.145  56.309 112.671  0.00  0.00     0.119 C 
BRANCH   8   9
ATOM      9  C   LIG d   1     -11.123  57.301 113.257  0.00  0.00     0.028 C 
ATOM     10  C   LIG d   1     -10.993  58.579 112.410  0.00  0.00     0.006 C 
ENDBRANCH   8   9
BRANCH   8  11
ATOM     11  C   LIG d   1     -11.802  54.955 113.299  0.00  0.00     0.028 C 
ATOM     12  C   LIG d   1     -10.942  54.072 112.380  0.00  0.00     0.006 C 
ENDBRANCH   8  11
ENDBRANCH   7   8
ENDBRANCH   1   7
BRANCH   6  13
ATOM     13  N   LIG d   1     -12.359  55.348 108.399  0.00  0.00    -0.311 N 
ATOM     14  C   LIG d   1     -11.384  54.467 108.182  0.00  0.00     0.210 C 
ATOM     15  C   LIG d   1     -10.472  54.791 106.994  0.00  0.00     0.109 C 
ATOM     16  O   LIG d   1     -11.208  53.431 108.840  0.00  0.00    -0.276 OA
ATOM     17  H   LIG d   1     -12.447  56.143 107.796  0.00  0.00     0.149 HD
ENDBRANCH   6  13
BRANCH   5  18
ATOM     18  N   LIG d   1     -15.043  53.903 108.209  0.00  0.00     0.381 N 
ATOM     19  H   LIG d   1     -15.522  53.226 108.769  0.00  0.00    -0.090 HD
ATOM     20  H   LIG d   1     -14.161  53.512 107.929  0.00  0.00    -0.090 HD
ATOM     21  H   LIG d   1     -15.588  54.124 107.405  0.00  0.00    -0.090 HD
ENDBRANCH   5  18
BRANCH   3  22
ATOM     22  C   LIG d   1     -16.591  56.611 111.844  0.00  0.00     0.382 C 
ATOM     23  O   LIG d   1     -16.556  57.765 112.333  0.00  0.00    -0.241 OA
ATOM     24  O   LIG d   1     -17.579  55.884 112.059  0.00  0.00    -0.241 OA
ENDBRANCH   3  22
TORSDOF 7
ENDMDL
MODEL 9
REMARK VINA RESULT:      -4.0     27.267     29.574
REMARK  7 active torsions:
REMARK  status: ('A' for Active; 'I' for Inactive)
REMARK    1  A    between atoms: C_2  and  C_3 
REMARK    2  A    between atoms: C_3  and  O_6 
REMARK    3  A    between atoms: C_3  and  C_4 
REMARK    4  A    between atoms: C_7  and  O_6 
REMARK    5  A    between atoms: C_9  and  C_10 
REMARK    6  A    between atoms: N_15  and  C_14 
REMARK    7  A    between atoms: N_20  and  C_19 
REMARK       I    between atoms: C_22  and  N_20 
ROOT
ATOM      1  C   LIG d   1     -26.442  72.371 112.366  0.00  0.00     0.161 C 
ATOM      2  C   LIG d   1     -26.252  73.560 113.088  0.00  0.00     0.016 C 
ATOM      3  C   LIG d   1     -25.997  74.810 112.478  0.00  0.00     0.038 C 
ATOM      4  C   LIG d   1     -26.067  74.984 111.088  0.00  0.00     0.028 C 
ATOM      5  C   LIG d   1     -25.757  73.714 110.302  0.00  0.00    -0.047 C 
ATOM      6  C   LIG d   1     -26.632  72.561 110.846  0.00  0.00     0.091 C 
ENDROOT
BRANCH   1   7
ATOM      7  O   LIG d   1     -27.550  71.634 112.920  0.00  0.00    -0.368 OA
BRANCH   7   8
ATOM      8  C   LIG d   1     -27.217  70.398 113.598  0.00  0.00     0.119 C 
BRANCH   8   9
ATOM      9  C   LIG d   1     -25.694  70.197 113.473  0.00  0.00     0.028 C 
ATOM     10  C   LIG d   1     -25.332  68.894 112.741  0.00  0.00     0.006 C 
ENDBRANCH   8   9
BRANCH   8  11
ATOM     11  C   LIG d   1     -27.844  69.191 112.894  0.00  0.00     0.028 C 
ATOM     12  C   LIG d   1     -29.123  69.550 112.121  0.00  0.00     0.006 C 
ENDBRANCH   8  11
ENDBRANCH   7   8
ENDBRANCH   1   7
BRANCH   6  13
ATOM     13  N   LIG d   1     -26.332  71.263 110.189  0.00  0.00    -0.311 N 
ATOM     14  C   LIG d   1     -27.141  70.685 109.302  0.00  0.00     0.210 C 
ATOM     15  C   LIG d   1     -26.650  69.338 108.761  0.00  0.00     0.109 C 
ATOM     16  O   LIG d   1     -28.202  71.175 108.889  0.00  0.00    -0.276 OA
ATOM     17  H   LIG d   1     -25.475  70.810 110.443  0.00  0.00     0.149 HD
ENDBRANCH   6  13
BRANCH   5  18
ATOM     18  N   LIG d   1     -26.001  74.001 108.876  0.00  0.00     0.381 N 
ATOM     19  H   LIG d   1     -25.276  74.592 108.521  0.00  0.00    -0.090 HD
ATOM     20  H   LIG d   1     -26.876  74.488 108.787  0.00  0.00    -0.090 HD
ATOM     21  H   LIG d   1     -26.031  73.151 108.357  0.00  0.00    -0.090 HD
ENDBRANCH   5  18
BRANCH   3  22
ATOM     22  C   LIG d   1     -25.630  75.895 113.259  0.00  0.00     0.382 C 
ATOM     23  O   LIG d   1     -24.453  76.329 113.215  0.00  0.00    -0.241 OA
ATOM     24  O   LIG d   1     -26.447  76.416 114.041  0.00  0.00    -0.241 OA
ENDBRANCH   3  22
TORSDOF 7
ENDMDL
