MODEL 1
REMARK VINA RESULT:      -6.6      0.000      0.000
REMARK  7 active torsions:
REMARK  status: ('A' for Active; 'I' for Inactive)
REMARK    1  A    between atoms: C_2  and  C_3 
REMARK    2  A    between atoms: C_3  and  O_6 
REMARK    3  A    between atoms: C_3  and  C_4 
REMARK    4  A    between atoms: C_7  and  O_6 
REMARK    5  A    between atoms: C_9  and  C_10 
REMARK    6  A    between atoms: N_15  and  C_14 
REMARK    7  A    between atoms: N_20  and  C_19 
REMARK       I    between atoms: C_22  and  N_20 
ROOT
ATOM      1  C   LIG d   1       0.057  82.812 111.120  0.00  0.00     0.161 C 
ATOM      2  C   LIG d   1      -1.077  82.579 111.916  0.00  0.00     0.016 C 
ATOM      3  C   LIG d   1      -1.725  81.325 111.999  0.00  0.00     0.038 C 
ATOM      4  C   LIG d   1      -1.191  80.173 111.403  0.00  0.00     0.028 C 
ATOM      5  C   LIG d   1      -0.330  80.468 110.179  0.00  0.00    -0.047 C 
ATOM      6  C   LIG d   1       0.719  81.540 110.550  0.00  0.00     0.091 C 
ENDROOT
BRANCH   1   7
ATOM      7  O   LIG d   1       1.020  83.591 111.856  0.00  0.00    -0.368 OA
BRANCH   7   8
ATOM      8  C   LIG d   1       1.207  84.958 111.412  0.00  0.00     0.119 C 
BRANCH   8   9
ATOM      9  C   LIG d   1       0.222  85.207 110.253  0.00  0.00     0.028 C 
ATOM     10  C   LIG d   1      -0.800  86.309 110.578  0.00  0.00     0.006 C 
ENDBRANCH   8   9
BRANCH   8  11
ATOM     11  C   LIG d   1       2.601  85.162 110.811  0.00  0.00     0.028 C 
ATOM     12  C   LIG d   1       3.720  84.586 111.692  0.00  0.00     0.006 C 
ENDBRANCH   8  11
ENDBRANCH   7   8
ENDBRANCH   1   7
BRANCH   6  13
ATOM     13  N   LIG d   1       1.549  81.948 109.386  0.00  0.00    -0.311 N 
ATOM     14  C   LIG d   1       2.874  81.819 109.349  0.00  0.00     0.210 C 
ATOM     15  C   LIG d   1       3.536  82.320 108.062  0.00  0.00     0.109 C 
ATOM     16  O   LIG d   1       3.560  81.307 110.247  0.00  0.00    -0.276 OA
ATOM     17  H   LIG d   1       1.070  82.344 108.601  0.00  0.00     0.149 HD
ENDBRANCH   6  13
BRANCH   5  18
ATOM     18  N   LIG d   1       0.273  79.195 109.742  0.00  0.00     0.381 N 
ATOM     19  H   LIG d   1       1.167  79.368 109.327  0.00  0.00    -0.090 HD
ATOM     20  H   LIG d   1      -0.320  78.775 109.048  0.00  0.00    -0.090 HD
ATOM     21  H   LIG d   1       0.373  78.580 110.519  0.00  0.00    -0.090 HD
ENDBRANCH   5  18
BRANCH   3  22
ATOM     22  C   LIG d   1      -2.945  81.224 112.651  0.00  0.00     0.382 C 
ATOM     23  O   LIG d   1      -3.506  80.107 112.762  0.00  0.00    -0.241 OA
ATOM     24  O   LIG d   1      -3.512  82.242 113.091  0.00  0.00    -0.241 OA
ENDBRANCH   3  22
TORSDOF 7
ENDMDL
MODEL 2
REMARK VINA RESULT:      -6.4      2.441      3.723
REMARK  7 active torsions:
REMARK  status: ('A' for Active; 'I' for Inactive)
REMARK    1  A    between atoms: C_2  and  C_3 
REMARK    2  A    between atoms: C_3  and  O_6 
REMARK    3  A    between atoms: C_3  and  C_4 
REMARK    4  A    between atoms: C_7  and  O_6 
REMARK    5  A    between atoms: C_9  and  C_10 
REMARK    6  A    between atoms: N_15  and  C_14 
REMARK    7  A    between atoms: N_20  and  C_19 
REMARK       I    between atoms: C_22  and  N_20 
ROOT
ATOM      1  C   LIG d   1       0.854  84.009 109.416  0.00  0.00     0.161 C 
ATOM      2  C   LIG d   1       0.378  85.154 110.076  0.00  0.00     0.016 C 
ATOM      3  C   LIG d   1      -0.472  85.105 111.205  0.00  0.00     0.038 C 
ATOM      4  C   LIG d   1      -0.783  83.897 111.846  0.00  0.00     0.028 C 
ATOM      5  C   LIG d   1      -0.737  82.688 110.918  0.00  0.00    -0.047 C 
ATOM      6  C   LIG d   1       0.616  82.683 110.169  0.00  0.00     0.091 C 
ENDROOT
BRANCH   1   7
ATOM      7  O   LIG d   1       2.254  84.167 109.112  0.00  0.00    -0.368 OA
BRANCH   7   8
ATOM      8  C   LIG d   1       3.181  83.788 110.159  0.00  0.00     0.119 C 
BRANCH   8   9
ATOM      9  C   LIG d   1       3.739  85.086 110.775  0.00  0.00     0.028 C 
ATOM     10  C   LIG d   1       3.845  85.010 112.308  0.00  0.00     0.006 C 
ENDBRANCH   8   9
BRANCH   8  11
ATOM     11  C   LIG d   1       4.398  83.054 109.588  0.00  0.00     0.028 C 
ATOM     12  C   LIG d   1       4.141  82.475 108.188  0.00  0.00     0.006 C 
ENDBRANCH   8  11
ENDBRANCH   7   8
ENDBRANCH   1   7
BRANCH   6  13
ATOM     13  N   LIG d   1       0.710  81.580 109.177  0.00  0.00    -0.311 N 
ATOM     14  C   LIG d   1       1.511  80.526 109.327  0.00  0.00     0.210 C 
ATOM     15  C   LIG d   1       1.470  79.515 108.177  0.00  0.00     0.109 C 
ATOM     16  O   LIG d   1       2.227  80.317 110.317  0.00  0.00    -0.276 OA
ATOM     17  H   LIG d   1       0.139  81.653 108.358  0.00  0.00     0.149 HD
ENDBRANCH   6  13
BRANCH   5  18
ATOM     18  N   LIG d   1      -0.945  81.484 111.743  0.00  0.00     0.381 N 
ATOM     19  H   LIG d   1      -1.663  81.656 112.419  0.00  0.00    -0.090 HD
ATOM     20  H   LIG d   1      -0.093  81.275 112.234  0.00  0.00    -0.090 HD
ATOM     21  H   LIG d   1      -1.201  80.714 111.165  0.00  0.00    -0.090 HD
ENDBRANCH   5  18
BRANCH   3  22
ATOM     22  C   LIG d   1      -1.053  86.271 111.679  0.00  0.00     0.382 C 
ATOM     23  O   LIG d   1      -1.421  87.160 110.874  0.00  0.00    -0.241 OA
ATOM     24  O   LIG d   1      -1.172  86.465 112.904  0.00  0.00    -0.241 OA
ENDBRANCH   3  22
TORSDOF 7
ENDMDL
MODEL 3
REMARK VINA RESULT:      -6.3      1.632      5.116
REMARK  7 active torsions:
REMARK  status: ('A' for Active; 'I' for Inactive)
REMARK    1  A    between atoms: C_2  and  C_3 
REMARK    2  A    between atoms: C_3  and  O_6 
REMARK    3  A    between atoms: C_3  and  C_4 
REMARK    4  A    between atoms: C_7  and  O_6 
REMARK    5  A    between atoms: C_9  and  C_10 
REMARK    6  A    between atoms: N_15  and  C_14 
REMARK    7  A    between atoms: N_20  and  C_19 
REMARK       I    between atoms: C_22  and  N_20 
ROOT
ATOM      1  C   LIG d   1       1.857  82.859 111.280  0.00  0.00     0.161 C 
ATOM      2  C   LIG d   1       2.928  82.893 110.371  0.00  0.00     0.016 C 
ATOM      3  C   LIG d   1       3.113  81.931 109.351  0.00  0.00     0.038 C 
ATOM      4  C   LIG d   1       2.150  80.950 109.074  0.00  0.00     0.028 C 
ATOM      5  C   LIG d   1       1.305  80.571 110.286  0.00  0.00    -0.047 C 
ATOM      6  C   LIG d   1       0.737  81.860 110.924  0.00  0.00     0.091 C 
ENDROOT
BRANCH   1   7
ATOM      7  O   LIG d   1       1.313  84.184 111.444  0.00  0.00    -0.368 OA
BRANCH   7   8
ATOM      8  C   LIG d   1       1.610  85.129 110.387  0.00  0.00     0.119 C 
BRANCH   8   9
ATOM      9  C   LIG d   1       2.039  86.450 111.055  0.00  0.00     0.028 C 
ATOM     10  C   LIG d   1       3.484  86.401 111.578  0.00  0.00     0.006 C 
ENDBRANCH   8   9
BRANCH   8  11
ATOM     11  C   LIG d   1       0.355  85.472 109.579  0.00  0.00     0.028 C 
ATOM     12  C   LIG d   1      -0.751  86.109 110.435  0.00  0.00     0.006 C 
ENDBRANCH   8  11
ENDBRANCH   7   8
ENDBRANCH   1   7
BRANCH   6  13
ATOM     13  N   LIG d   1      -0.034  81.586 112.165  0.00  0.00    -0.311 N 
ATOM     14  C   LIG d   1      -1.198  82.167 112.448  0.00  0.00     0.210 C 
ATOM     15  C   LIG d   1      -1.816  81.758 113.789  0.00  0.00     0.109 C 
ATOM     16  O   LIG d   1      -1.794  82.957 111.701  0.00  0.00    -0.276 OA
ATOM     17  H   LIG d   1       0.362  80.933 112.812  0.00  0.00     0.149 HD
ENDBRANCH   6  13
BRANCH   5  18
ATOM     18  N   LIG d   1       0.255  79.643 109.824  0.00  0.00     0.381 N 
ATOM     19  H   LIG d   1       0.340  78.769 110.304  0.00  0.00    -0.090 HD
ATOM     20  H   LIG d   1       0.377  79.477 108.841  0.00  0.00    -0.090 HD
ATOM     21  H   LIG d   1      -0.645  80.036 109.992  0.00  0.00    -0.090 HD
ENDBRANCH   5  18
BRANCH   3  22
ATOM     22  C   LIG d   1       4.292  81.922 108.621  0.00  0.00     0.382 C 
ATOM     23  O   LIG d   1       4.970  82.972 108.512  0.00  0.00    -0.241 OA
ATOM     24  O   LIG d   1       4.663  80.889 108.034  0.00  0.00    -0.241 OA
ENDBRANCH   3  22
TORSDOF 7
ENDMDL
MODEL 4
REMARK VINA RESULT:      -6.1      1.557      1.954
REMARK  7 active torsions:
REMARK  status: ('A' for Active; 'I' for Inactive)
REMARK    1  A    between atoms: C_2  and  C_3 
REMARK    2  A    between atoms: C_3  and  O_6 
REMARK    3  A    between atoms: C_3  and  C_4 
REMARK    4  A    between atoms: C_7  and  O_6 
REMARK    5  A    between atoms: C_9  and  C_10 
REMARK    6  A    between atoms: N_15  and  C_14 
REMARK    7  A    between atoms: N_20  and  C_19 
REMARK       I    between atoms: C_22  and  N_20 
ROOT
ATOM      1  C   LIG d   1      -0.827  82.592 111.596  0.00  0.00     0.161 C 
ATOM      2  C   LIG d   1      -1.660  82.003 112.562  0.00  0.00     0.016 C 
ATOM      3  C   LIG d   1      -1.939  80.617 112.607  0.00  0.00     0.038 C 
ATOM      4  C   LIG d   1      -1.279  79.700 111.776  0.00  0.00     0.028 C 
ATOM      5  C   LIG d   1      -0.814  80.305 110.456  0.00  0.00    -0.047 C 
ATOM      6  C   LIG d   1      -0.011  81.593 110.750  0.00  0.00     0.091 C 
ENDROOT
BRANCH   1   7
ATOM      7  O   LIG d   1       0.049  83.549 112.225  0.00  0.00    -0.368 OA
BRANCH   7   8
ATOM      8  C   LIG d   1      -0.471  84.894 112.363  0.00  0.00     0.119 C 
BRANCH   8   9
ATOM      9  C   LIG d   1       0.117  85.738 111.216  0.00  0.00     0.028 C 
ATOM     10  C   LIG d   1      -0.963  86.241 110.244  0.00  0.00     0.006 C 
ENDBRANCH   8   9
BRANCH   8  11
ATOM     11  C   LIG d   1       0.029  85.555 113.651  0.00  0.00     0.028 C 
ATOM     12  C   LIG d   1      -1.115  86.041 114.555  0.00  0.00     0.006 C 
ENDBRANCH   8  11
ENDBRANCH   7   8
ENDBRANCH   1   7
BRANCH   6  13
ATOM     13  N   LIG d   1       0.411  82.294 109.509  0.00  0.00    -0.311 N 
ATOM     14  C   LIG d   1       1.665  82.671 109.270  0.00  0.00     0.210 C 
ATOM     15  C   LIG d   1       1.880  83.398 107.938  0.00  0.00     0.109 C 
ATOM     16  O   LIG d   1       2.627  82.445 110.019  0.00  0.00    -0.276 OA
ATOM     17  H   LIG d   1      -0.301  82.490 108.832  0.00  0.00     0.149 HD
ENDBRANCH   6  13
BRANCH   5  18
ATOM     18  N   LIG d   1      -0.023  79.280 109.749  0.00  0.00     0.381 N 
ATOM     19  H   LIG d   1       0.357  78.631 110.409  0.00  0.00    -0.090 HD
ATOM     20  H   LIG d   1       0.739  79.728 109.272  0.00  0.00    -0.090 HD
ATOM     21  H   LIG d   1      -0.598  78.798 109.094  0.00  0.00    -0.090 HD
ENDBRANCH   5  18
BRANCH   3  22
ATOM     22  C   LIG d   1      -2.918  80.142 113.466  0.00  0.00     0.382 C 
ATOM     23  O   LIG d   1      -3.616  79.153 113.135  0.00  0.00    -0.241 OA
ATOM     24  O   LIG d   1      -3.142  80.716 114.549  0.00  0.00    -0.241 OA
ENDBRANCH   3  22
TORSDOF 7
ENDMDL
MODEL 5
REMARK VINA RESULT:      -6.0      2.231      4.803
REMARK  7 active torsions:
REMARK  status: ('A' for Active; 'I' for Inactive)
REMARK    1  A    between atoms: C_2  and  C_3 
REMARK    2  A    between atoms: C_3  and  O_6 
REMARK    3  A    between atoms: C_3  and  C_4 
REMARK    4  A    between atoms: C_7  and  O_6 
REMARK    5  A    between atoms: C_9  and  C_10 
REMARK    6  A    between atoms: N_15  and  C_14 
REMARK    7  A    between atoms: N_20  and  C_19 
REMARK       I    between atoms: C_22  and  N_20 
ROOT
ATOM      1  C   LIG d   1       1.698  82.798 111.302  0.00  0.00     0.161 C 
ATOM      2  C   LIG d   1       1.631  84.167 111.611  0.00  0.00     0.016 C 
ATOM      3  C   LIG d   1       1.455  85.177 110.638  0.00  0.00     0.038 C 
ATOM      4  C   LIG d   1       1.181  84.873 109.296  0.00  0.00     0.028 C 
ATOM      5  C   LIG d   1       1.741  83.526 108.853  0.00  0.00    -0.047 C 
ATOM      6  C   LIG d   1       1.291  82.441 109.857  0.00  0.00     0.091 C 
ENDROOT
BRANCH   1   7
ATOM      7  O   LIG d   1       0.911  82.044 112.245  0.00  0.00    -0.368 OA
BRANCH   7   8
ATOM      8  C   LIG d   1      -0.391  82.590 112.568  0.00  0.00     0.119 C 
BRANCH   8   9
ATOM      9  C   LIG d   1      -0.473  82.716 114.102  0.00  0.00     0.028 C 
ATOM     10  C   LIG d   1      -0.830  84.142 114.555  0.00  0.00     0.006 C 
ENDBRANCH   8   9
BRANCH   8  11
ATOM     11  C   LIG d   1      -1.513  81.621 112.180  0.00  0.00     0.028 C 
ATOM     12  C   LIG d   1      -0.996  80.210 111.858  0.00  0.00     0.006 C 
ENDBRANCH   8  11
ENDBRANCH   7   8
ENDBRANCH   1   7
BRANCH   6  13
ATOM     13  N   LIG d   1       1.865  81.106 109.545  0.00  0.00    -0.311 N 
ATOM     14  C   LIG d   1       1.229  80.185 108.823  0.00  0.00     0.210 C 
ATOM     15  C   LIG d   1       1.991  78.869 108.636  0.00  0.00     0.109 C 
ATOM     16  O   LIG d   1       0.119  80.344 108.293  0.00  0.00    -0.276 OA
ATOM     17  H   LIG d   1       2.775  80.904 109.909  0.00  0.00     0.149 HD
ENDBRANCH   6  13
BRANCH   5  18
ATOM     18  N   LIG d   1       1.266  83.276 107.479  0.00  0.00     0.381 N 
ATOM     19  H   LIG d   1       0.292  83.048 107.494  0.00  0.00    -0.090 HD
ATOM     20  H   LIG d   1       1.767  82.492 107.099  0.00  0.00    -0.090 HD
ATOM     21  H   LIG d   1       1.418  84.082 106.913  0.00  0.00    -0.090 HD
ENDBRANCH   5  18
BRANCH   3  22
ATOM     22  C   LIG d   1       1.591  86.509 110.997  0.00  0.00     0.382 C 
ATOM     23  O   LIG d   1       2.733  87.024 111.072  0.00  0.00    -0.241 OA
ATOM     24  O   LIG d   1       0.591  87.190 111.290  0.00  0.00    -0.241 OA
ENDBRANCH   3  22
TORSDOF 7
ENDMDL
MODEL 6
REMARK VINA RESULT:      -5.9      2.204      4.106
REMARK  7 active torsions:
REMARK  status: ('A' for Active; 'I' for Inactive)
REMARK    1  A    between atoms: C_2  and  C_3 
REMARK    2  A    between atoms: C_3  and  O_6 
REMARK    3  A    between atoms: C_3  and  C_4 
REMARK    4  A    between atoms: C_7  and  O_6 
REMARK    5  A    between atoms: C_9  and  C_10 
REMARK    6  A    between atoms: N_15  and  C_14 
REMARK    7  A    between atoms: N_20  and  C_19 
REMARK       I    between atoms: C_22  and  N_20 
ROOT
ATOM      1  C   LIG d   1       1.855  82.323 111.760  0.00  0.00     0.161 C 
ATOM      2  C   LIG d   1       0.809  81.387 111.816  0.00  0.00     0.016 C 
ATOM      3  C   LIG d   1      -0.558  81.750 111.847  0.00  0.00     0.038 C 
ATOM      4  C   LIG d   1      -0.977  83.077 111.671  0.00  0.00     0.028 C 
ATOM      5  C   LIG d   1       0.058  84.104 112.117  0.00  0.00    -0.047 C 
ATOM      6  C   LIG d   1       1.414  83.769 111.455  0.00  0.00     0.091 C 
ENDROOT
BRANCH   1   7
ATOM      7  O   LIG d   1       2.847  81.890 110.808  0.00  0.00    -0.368 OA
BRANCH   7   8
ATOM      8  C   LIG d   1       2.364  81.598 109.473  0.00  0.00     0.119 C 
BRANCH   8   9
ATOM      9  C   LIG d   1       2.823  80.171 109.116  0.00  0.00     0.028 C 
ATOM     10  C   LIG d   1       1.652  79.266 108.697  0.00  0.00     0.006 C 
ENDBRANCH   8   9
BRANCH   8  11
ATOM     11  C   LIG d   1       3.022  82.508 108.431  0.00  0.00     0.028 C 
ATOM     12  C   LIG d   1       4.537  82.275 108.309  0.00  0.00     0.006 C 
ENDBRANCH   8  11
ENDBRANCH   7   8
ENDBRANCH   1   7
BRANCH   6  13
ATOM     13  N   LIG d   1       2.503  84.676 111.904  0.00  0.00    -0.311 N 
ATOM     14  C   LIG d   1       2.824  85.804 111.273  0.00  0.00     0.210 C 
ATOM     15  C   LIG d   1       3.991  86.581 111.892  0.00  0.00     0.109 C 
ATOM     16  O   LIG d   1       2.233  86.252 110.280  0.00  0.00    -0.276 OA
ATOM     17  H   LIG d   1       3.015  84.405 112.721  0.00  0.00     0.149 HD
ENDBRANCH   6  13
BRANCH   5  18
ATOM     18  N   LIG d   1      -0.451  85.438 111.750  0.00  0.00     0.381 N 
ATOM     19  H   LIG d   1      -1.398  85.365 111.434  0.00  0.00    -0.090 HD
ATOM     20  H   LIG d   1       0.105  85.803 110.997  0.00  0.00    -0.090 HD
ATOM     21  H   LIG d   1      -0.402  86.050 112.535  0.00  0.00    -0.090 HD
ENDBRANCH   5  18
BRANCH   3  22
ATOM     22  C   LIG d   1      -1.520  80.783 112.097  0.00  0.00     0.382 C 
ATOM     23  O   LIG d   1      -1.198  79.570 112.122  0.00  0.00    -0.241 OA
ATOM     24  O   LIG d   1      -2.713  81.104 112.253  0.00  0.00    -0.241 OA
ENDBRANCH   3  22
TORSDOF 7
ENDMDL
MODEL 7
REMARK VINA RESULT:      -5.7      2.354      5.585
REMARK  7 active torsions:
REMARK  status: ('A' for Active; 'I' for Inactive)
REMARK    1  A    between atoms: C_2  and  C_3 
REMARK    2  A    between atoms: C_3  and  O_6 
REMARK    3  A    between atoms: C_3  and  C_4 
REMARK    4  A    between atoms: C_7  and  O_6 
REMARK    5  A    between atoms: C_9  and  C_10 
REMARK    6  A    between atoms: N_15  and  C_14 
REMARK    7  A    between atoms: N_20  and  C_19 
REMARK       I    between atoms: C_22  and  N_20 
ROOT
ATOM      1  C   LIG d   1       0.507  83.587 110.303  0.00  0.00     0.161 C 
ATOM      2  C   LIG d   1       1.357  84.706 110.288  0.00  0.00     0.016 C 
ATOM      3  C   LIG d   1       1.839  85.332 111.461  0.00  0.00     0.038 C 
ATOM      4  C   LIG d   1       1.624  84.786 112.735  0.00  0.00     0.028 C 
ATOM      5  C   LIG d   1       0.355  83.946 112.828  0.00  0.00    -0.047 C 
ATOM      6  C   LIG d   1       0.353  82.910 111.681  0.00  0.00     0.091 C 
ENDROOT
BRANCH   1   7
ATOM      7  O   LIG d   1       0.946  82.628 109.320  0.00  0.00    -0.368 OA
BRANCH   7   8
ATOM      8  C   LIG d   1       2.260  82.056 109.530  0.00  0.00     0.119 C 
BRANCH   8   9
ATOM      9  C   LIG d   1       3.071  82.273 108.238  0.00  0.00     0.028 C 
ATOM     10  C   LIG d   1       4.474  81.645 108.314  0.00  0.00     0.006 C 
ENDBRANCH   8   9
BRANCH   8  11
ATOM     11  C   LIG d   1       2.183  80.537 109.710  0.00  0.00     0.028 C 
ATOM     12  C   LIG d   1       0.850  79.945 109.226  0.00  0.00     0.006 C 
ENDBRANCH   8  11
ENDBRANCH   7   8
ENDBRANCH   1   7
BRANCH   6  13
ATOM     13  N   LIG d   1      -0.895  82.103 111.648  0.00  0.00    -0.311 N 
ATOM     14  C   LIG d   1      -1.028  80.934 112.271  0.00  0.00     0.210 C 
ATOM     15  C   LIG d   1      -2.390  80.257 112.092  0.00  0.00     0.109 C 
ATOM     16  O   LIG d   1      -0.158  80.408 112.982  0.00  0.00    -0.276 OA
ATOM     17  H   LIG d   1      -1.662  82.470 111.119  0.00  0.00     0.149 HD
ENDBRANCH   6  13
BRANCH   5  18
ATOM     18  N   LIG d   1       0.327  83.327 114.166  0.00  0.00     0.381 N 
ATOM     19  H   LIG d   1      -0.617  83.260 114.489  0.00  0.00    -0.090 HD
ATOM     20  H   LIG d   1       0.839  83.910 114.805  0.00  0.00    -0.090 HD
ATOM     21  H   LIG d   1       0.738  82.420 114.131  0.00  0.00    -0.090 HD
ENDBRANCH   5  18
BRANCH   3  22
ATOM     22  C   LIG d   1       2.511  86.541 111.367  0.00  0.00     0.382 C 
ATOM     23  O   LIG d   1       1.866  87.615 111.313  0.00  0.00    -0.241 OA
ATOM     24  O   LIG d   1       3.754  86.568 111.291  0.00  0.00    -0.241 OA
ENDBRANCH   3  22
TORSDOF 7
ENDMDL
MODEL 8
REMARK VINA RESULT:      -5.7      2.047      4.975
REMARK  7 active torsions:
REMARK  status: ('A' for Active; 'I' for Inactive)
REMARK    1  A    between atoms: C_2  and  C_3 
REMARK    2  A    between atoms: C_3  and  O_6 
REMARK    3  A    between atoms: C_3  and  C_4 
REMARK    4  A    between atoms: C_7  and  O_6 
REMARK    5  A    between atoms: C_9  and  C_10 
REMARK    6  A    between atoms: N_15  and  C_14 
REMARK    7  A    between atoms: N_20  and  C_19 
REMARK       I    between atoms: C_22  and  N_20 
ROOT
ATOM      1  C   LIG d   1       0.531  82.547 110.450  0.00  0.00     0.161 C 
ATOM      2  C   LIG d   1       0.703  83.857 110.927  0.00  0.00     0.016 C 
ATOM      3  C   LIG d   1       1.105  84.937 110.108  0.00  0.00     0.038 C 
ATOM      4  C   LIG d   1       1.216  84.811 108.715  0.00  0.00     0.028 C 
ATOM      5  C   LIG d   1       1.542  83.392 108.260  0.00  0.00    -0.047 C 
ATOM      6  C   LIG d   1       0.539  82.413 108.912  0.00  0.00     0.091 C 
ENDROOT
BRANCH   1   7
ATOM      7  O   LIG d   1      -0.679  81.984 110.995  0.00  0.00    -0.368 OA
BRANCH   7   8
ATOM      8  C   LIG d   1      -0.505  80.933 111.977  0.00  0.00     0.119 C 
BRANCH   8   9
ATOM      9  C   LIG d   1      -1.575  79.859 111.700  0.00  0.00     0.028 C 
ATOM     10  C   LIG d   1      -1.788  78.919 112.899  0.00  0.00     0.006 C 
ENDBRANCH   8   9
BRANCH   8  11
ATOM     11  C   LIG d   1      -0.797  81.440 113.393  0.00  0.00     0.028 C 
ATOM     12  C   LIG d   1      -1.802  82.603 113.414  0.00  0.00     0.006 C 
ENDBRANCH   8  11
ENDBRANCH   7   8
ENDBRANCH   1   7
BRANCH   6  13
ATOM     13  N   LIG d   1       0.839  80.994 108.587  0.00  0.00    -0.311 N 
ATOM     14  C   LIG d   1       1.904  80.344 109.054  0.00  0.00     0.210 C 
ATOM     15  C   LIG d   1       2.035  78.894 108.579  0.00  0.00     0.109 C 
ATOM     16  O   LIG d   1       2.734  80.821 109.842  0.00  0.00    -0.276 OA
ATOM     17  H   LIG d   1       0.200  80.521 107.978  0.00  0.00     0.149 HD
ENDBRANCH   6  13
BRANCH   5  18
ATOM     18  N   LIG d   1       1.492  83.374 106.786  0.00  0.00     0.381 N 
ATOM     19  H   LIG d   1       0.581  83.096 106.482  0.00  0.00    -0.090 HD
ATOM     20  H   LIG d   1       2.158  82.702 106.447  0.00  0.00    -0.090 HD
ATOM     21  H   LIG d   1       1.709  84.278 106.427  0.00  0.00    -0.090 HD
ENDBRANCH   5  18
BRANCH   3  22
ATOM     22  C   LIG d   1       1.439  86.152 110.688  0.00  0.00     0.382 C 
ATOM     23  O   LIG d   1       2.637  86.522 110.721  0.00  0.00    -0.241 OA
ATOM     24  O   LIG d   1       0.563  86.862 111.216  0.00  0.00    -0.241 OA
ENDBRANCH   3  22
TORSDOF 7
ENDMDL
MODEL 9
REMARK VINA RESULT:      -5.5      2.823      5.861
REMARK  7 active torsions:
REMARK  status: ('A' for Active; 'I' for Inactive)
REMARK    1  A    between atoms: C_2  and  C_3 
REMARK    2  A    between atoms: C_3  and  O_6 
REMARK    3  A    between atoms: C_3  and  C_4 
REMARK    4  A    between atoms: C_7  and  O_6 
REMARK    5  A    between atoms: C_9  and  C_10 
REMARK    6  A    between atoms: N_15  and  C_14 
REMARK    7  A    between atoms: N_20  and  C_19 
REMARK       I    between atoms: C_22  and  N_20 
ROOT
ATOM      1  C   LIG d   1       1.937  84.317 111.305  0.00  0.00     0.161 C 
ATOM      2  C   LIG d   1       2.710  85.490 111.339  0.00  0.00     0.016 C 
ATOM      3  C   LIG d   1       2.597  86.467 112.355  0.00  0.00     0.038 C 
ATOM      4  C   LIG d   1       1.806  86.263 113.495  0.00  0.00     0.028 C 
ATOM      5  C   LIG d   1       0.628  85.324 113.255  0.00  0.00    -0.047 C 
ATOM      6  C   LIG d   1       1.149  84.025 112.599  0.00  0.00     0.091 C 
ENDROOT
BRANCH   1   7
ATOM      7  O   LIG d   1       2.771  83.193 110.962  0.00  0.00    -0.368 OA
BRANCH   7   8
ATOM      8  C   LIG d   1       2.918  82.917 109.547  0.00  0.00     0.119 C 
BRANCH   8   9
ATOM      9  C   LIG d   1       1.503  82.792 108.950  0.00  0.00     0.028 C 
ATOM     10  C   LIG d   1       0.997  81.340 108.938  0.00  0.00     0.006 C 
ENDBRANCH   8   9
BRANCH   8  11
ATOM     11  C   LIG d   1       3.579  81.555 109.311  0.00  0.00     0.028 C 
ATOM     12  C   LIG d   1       4.617  81.585 108.178  0.00  0.00     0.006 C 
ENDBRANCH   8  11
ENDBRANCH   7   8
ENDBRANCH   1   7
BRANCH   6  13
ATOM     13  N   LIG d   1       0.050  83.085 112.253  0.00  0.00    -0.311 N 
ATOM     14  C   LIG d   1       0.092  81.780 112.516  0.00  0.00     0.210 C 
ATOM     15  C   LIG d   1      -1.137  80.989 112.058  0.00  0.00     0.109 C 
ATOM     16  O   LIG d   1       1.016  81.208 113.113  0.00  0.00    -0.276 OA
ATOM     17  H   LIG d   1      -0.752  83.470 111.794  0.00  0.00     0.149 HD
ENDBRANCH   6  13
BRANCH   5  18
ATOM     18  N   LIG d   1      -0.029  85.092 114.555  0.00  0.00     0.381 N 
ATOM     19  H   LIG d   1      -0.679  84.336 114.476  0.00  0.00    -0.090 HD
ATOM     20  H   LIG d   1      -0.537  85.919 114.814  0.00  0.00    -0.090 HD
ATOM     21  H   LIG d   1       0.654  84.882 115.249  0.00  0.00    -0.090 HD
ENDBRANCH   5  18
BRANCH   3  22
ATOM     22  C   LIG d   1       3.251  87.682 112.216  0.00  0.00     0.382 C 
ATOM     23  O   LIG d   1       4.471  87.707 111.922  0.00  0.00    -0.241 OA
ATOM     24  O   LIG d   1       2.648  88.752 112.423  0.00  0.00    -0.241 OA
ENDBRANCH   3  22
TORSDOF 7
ENDMDL
