MODEL 1
REMARK VINA RESULT:      -4.6      0.000      0.000
REMARK  7 active torsions:
REMARK  status: ('A' for Active; 'I' for Inactive)
REMARK    1  A    between atoms: C_2  and  C_3 
REMARK    2  A    between atoms: C_3  and  O_6 
REMARK    3  A    between atoms: C_3  and  C_4 
REMARK    4  A    between atoms: C_7  and  O_6 
REMARK    5  A    between atoms: C_9  and  C_10 
REMARK    6  A    between atoms: N_15  and  C_14 
REMARK    7  A    between atoms: N_20  and  C_19 
REMARK       I    between atoms: C_22  and  N_20 
ROOT
ATOM      1  C   LIG d   1      -7.738  78.939 118.440  0.00  0.00     0.161 C 
ATOM      2  C   LIG d   1      -7.501  77.633 117.978  0.00  0.00     0.016 C 
ATOM      3  C   LIG d   1      -8.423  76.573 118.136  0.00  0.00     0.038 C 
ATOM      4  C   LIG d   1      -9.717  76.783 118.635  0.00  0.00     0.028 C 
ATOM      5  C   LIG d   1      -9.816  77.979 119.576  0.00  0.00    -0.047 C 
ATOM      6  C   LIG d   1      -9.189  79.213 118.887  0.00  0.00     0.091 C 
ENDROOT
BRANCH   1   7
ATOM      7  O   LIG d   1      -7.335  79.892 117.437  0.00  0.00    -0.368 OA
BRANCH   7   8
ATOM      8  C   LIG d   1      -6.114  80.623 117.707  0.00  0.00     0.119 C 
BRANCH   8   9
ATOM      9  C   LIG d   1      -4.939  79.771 117.188  0.00  0.00     0.028 C 
ATOM     10  C   LIG d   1      -3.992  79.328 118.317  0.00  0.00     0.006 C 
ENDBRANCH   8   9
BRANCH   8  11
ATOM     11  C   LIG d   1      -5.874  80.771 119.213  0.00  0.00     0.028 C 
ATOM     12  C   LIG d   1      -5.850  82.237 119.672  0.00  0.00     0.006 C 
ENDBRANCH   8  11
ENDBRANCH   7   8
ENDBRANCH   1   7
BRANCH   6  13
ATOM     13  N   LIG d   1      -9.169  80.406 119.772  0.00  0.00    -0.311 N 
ATOM     14  C   LIG d   1      -9.570  81.615 119.382  0.00  0.00     0.210 C 
ATOM     15  C   LIG d   1      -9.447  82.711 120.445  0.00  0.00     0.109 C 
ATOM     16  O   LIG d   1     -10.046  81.877 118.267  0.00  0.00    -0.276 OA
ATOM     17  H   LIG d   1      -8.827  80.278 120.704  0.00  0.00     0.149 HD
ENDBRANCH   6  13
BRANCH   5  18
ATOM     18  N   LIG d   1     -11.240  78.165 119.912  0.00  0.00     0.381 N 
ATOM     19  H   LIG d   1     -11.805  77.581 119.328  0.00  0.00    -0.090 HD
ATOM     20  H   LIG d   1     -11.492  79.122 119.739  0.00  0.00    -0.090 HD
ATOM     21  H   LIG d   1     -11.396  77.941 120.870  0.00  0.00    -0.090 HD
ENDBRANCH   5  18
BRANCH   3  22
ATOM     22  C   LIG d   1      -8.038  75.277 117.828  0.00  0.00     0.382 C 
ATOM     23  O   LIG d   1      -6.983  75.073 117.180  0.00  0.00    -0.241 OA
ATOM     24  O   LIG d   1      -8.755  74.311 118.152  0.00  0.00    -0.241 OA
ENDBRANCH   3  22
TORSDOF 7
ENDMDL
MODEL 2
REMARK VINA RESULT:      -4.5      2.479      6.167
REMARK  7 active torsions:
REMARK  status: ('A' for Active; 'I' for Inactive)
REMARK    1  A    between atoms: C_2  and  C_3 
REMARK    2  A    between atoms: C_3  and  O_6 
REMARK    3  A    between atoms: C_3  and  C_4 
REMARK    4  A    between atoms: C_7  and  O_6 
REMARK    5  A    between atoms: C_9  and  C_10 
REMARK    6  A    between atoms: N_15  and  C_14 
REMARK    7  A    between atoms: N_20  and  C_19 
REMARK       I    between atoms: C_22  and  N_20 
ROOT
ATOM      1  C   LIG d   1      -9.691  82.389 119.431  0.00  0.00     0.161 C 
ATOM      2  C   LIG d   1      -9.616  83.694 119.947  0.00  0.00     0.016 C 
ATOM      3  C   LIG d   1      -9.824  84.004 121.310  0.00  0.00     0.038 C 
ATOM      4  C   LIG d   1      -9.972  83.005 122.284  0.00  0.00     0.028 C 
ATOM      5  C   LIG d   1     -10.556  81.707 121.736  0.00  0.00    -0.047 C 
ATOM      6  C   LIG d   1      -9.741  81.274 120.496  0.00  0.00     0.091 C 
ENDROOT
BRANCH   1   7
ATOM      7  O   LIG d   1      -8.598  82.162 118.518  0.00  0.00    -0.368 OA
BRANCH   7   8
ATOM      8  C   LIG d   1      -7.474  81.414 119.044  0.00  0.00     0.119 C 
BRANCH   8   9
ATOM      9  C   LIG d   1      -6.274  82.377 119.123  0.00  0.00     0.028 C 
ATOM     10  C   LIG d   1      -5.991  82.846 120.560  0.00  0.00     0.006 C 
ENDBRANCH   8   9
BRANCH   8  11
ATOM     11  C   LIG d   1      -7.042  80.306 118.080  0.00  0.00     0.028 C 
ATOM     12  C   LIG d   1      -5.548  80.372 117.727  0.00  0.00     0.006 C 
ENDBRANCH   8  11
ENDBRANCH   7   8
ENDBRANCH   1   7
BRANCH   6  13
ATOM     13  N   LIG d   1     -10.298  80.058 119.848  0.00  0.00    -0.311 N 
ATOM     14  C   LIG d   1      -9.863  78.826 120.107  0.00  0.00     0.210 C 
ATOM     15  C   LIG d   1     -10.560  77.715 119.315  0.00  0.00     0.109 C 
ATOM     16  O   LIG d   1      -8.990  78.544 120.941  0.00  0.00    -0.276 OA
ATOM     17  H   LIG d   1     -11.032  80.192 119.181  0.00  0.00     0.149 HD
ENDBRANCH   6  13
BRANCH   5  18
ATOM     18  N   LIG d   1     -10.526  80.711 122.824  0.00  0.00     0.381 N 
ATOM     19  H   LIG d   1     -10.932  81.101 123.651  0.00  0.00    -0.090 HD
ATOM     20  H   LIG d   1      -9.570  80.475 123.023  0.00  0.00    -0.090 HD
ATOM     21  H   LIG d   1     -11.028  79.895 122.552  0.00  0.00    -0.090 HD
ENDBRANCH   5  18
BRANCH   3  22
ATOM     22  C   LIG d   1      -9.925  85.329 121.706  0.00  0.00     0.382 C 
ATOM     23  O   LIG d   1     -11.043  85.898 121.714  0.00  0.00    -0.241 OA
ATOM     24  O   LIG d   1      -8.906  85.977 122.012  0.00  0.00    -0.241 OA
ENDBRANCH   3  22
TORSDOF 7
ENDMDL
MODEL 3
REMARK VINA RESULT:      -4.4      2.483      3.371
REMARK  7 active torsions:
REMARK  status: ('A' for Active; 'I' for Inactive)
REMARK    1  A    between atoms: C_2  and  C_3 
REMARK    2  A    between atoms: C_3  and  O_6 
REMARK    3  A    between atoms: C_3  and  C_4 
REMARK    4  A    between atoms: C_7  and  O_6 
REMARK    5  A    between atoms: C_9  and  C_10 
REMARK    6  A    between atoms: N_15  and  C_14 
REMARK    7  A    between atoms: N_20  and  C_19 
REMARK       I    between atoms: C_22  and  N_20 
ROOT
ATOM      1  C   LIG d   1      -8.646  81.257 119.939  0.00  0.00     0.161 C 
ATOM      2  C   LIG d   1      -9.024  79.954 119.577  0.00  0.00     0.016 C 
ATOM      3  C   LIG d   1     -10.219  79.339 120.018  0.00  0.00     0.038 C 
ATOM      4  C   LIG d   1     -11.196  80.047 120.733  0.00  0.00     0.028 C 
ATOM      5  C   LIG d   1     -10.630  81.205 121.548  0.00  0.00    -0.047 C 
ATOM      6  C   LIG d   1      -9.752  82.084 120.629  0.00  0.00     0.091 C 
ENDROOT
BRANCH   1   7
ATOM      7  O   LIG d   1      -8.142  81.958 118.785  0.00  0.00    -0.368 OA
BRANCH   7   8
ATOM      8  C   LIG d   1      -6.705  82.133 118.723  0.00  0.00     0.119 C 
BRANCH   8   9
ATOM      9  C   LIG d   1      -6.148  81.047 117.782  0.00  0.00     0.028 C 
ATOM     10  C   LIG d   1      -5.072  80.181 118.458  0.00  0.00     0.006 C 
ENDBRANCH   8   9
BRANCH   8  11
ATOM     11  C   LIG d   1      -6.052  81.866 120.082  0.00  0.00     0.028 C 
ATOM     12  C   LIG d   1      -5.400  83.120 120.686  0.00  0.00     0.006 C 
ENDBRANCH   8  11
ENDBRANCH   7   8
ENDBRANCH   1   7
BRANCH   6  13
ATOM     13  N   LIG d   1      -9.091  83.192 121.366  0.00  0.00    -0.311 N 
ATOM     14  C   LIG d   1      -9.624  84.406 121.495  0.00  0.00     0.210 C 
ATOM     15  C   LIG d   1      -8.768  85.408 122.277  0.00  0.00     0.109 C 
ATOM     16  O   LIG d   1     -10.738  84.739 121.065  0.00  0.00    -0.276 OA
ATOM     17  H   LIG d   1      -8.198  83.000 121.774  0.00  0.00     0.149 HD
ENDBRANCH   6  13
BRANCH   5  18
ATOM     18  N   LIG d   1     -11.770  81.938 122.132  0.00  0.00     0.381 N 
ATOM     19  H   LIG d   1     -12.404  82.211 121.408  0.00  0.00    -0.090 HD
ATOM     20  H   LIG d   1     -11.426  82.769 122.580  0.00  0.00    -0.090 HD
ATOM     21  H   LIG d   1     -12.241  81.364 122.796  0.00  0.00    -0.090 HD
ENDBRANCH   5  18
BRANCH   3  22
ATOM     22  C   LIG d   1     -10.428  77.990 119.776  0.00  0.00     0.382 C 
ATOM     23  O   LIG d   1     -11.552  77.588 119.391  0.00  0.00    -0.241 OA
ATOM     24  O   LIG d   1      -9.518  77.164 119.982  0.00  0.00    -0.241 OA
ENDBRANCH   3  22
TORSDOF 7
ENDMDL
MODEL 4
REMARK VINA RESULT:      -4.4     12.712     15.255
REMARK  7 active torsions:
REMARK  status: ('A' for Active; 'I' for Inactive)
REMARK    1  A    between atoms: C_2  and  C_3 
REMARK    2  A    between atoms: C_3  and  O_6 
REMARK    3  A    between atoms: C_3  and  C_4 
REMARK    4  A    between atoms: C_7  and  O_6 
REMARK    5  A    between atoms: C_9  and  C_10 
REMARK    6  A    between atoms: N_15  and  C_14 
REMARK    7  A    between atoms: N_20  and  C_19 
REMARK       I    between atoms: C_22  and  N_20 
ROOT
ATOM      1  C   LIG d   1     -13.838  65.755 122.043  0.00  0.00     0.161 C 
ATOM      2  C   LIG d   1     -12.729  65.440 122.845  0.00  0.00     0.016 C 
ATOM      3  C   LIG d   1     -11.883  64.333 122.603  0.00  0.00     0.038 C 
ATOM      4  C   LIG d   1     -12.002  63.548 121.446  0.00  0.00     0.028 C 
ATOM      5  C   LIG d   1     -13.415  63.523 120.873  0.00  0.00    -0.047 C 
ATOM      6  C   LIG d   1     -13.917  64.976 120.713  0.00  0.00     0.091 C 
ENDROOT
BRANCH   1   7
ATOM      7  O   LIG d   1     -13.874  67.175 121.795  0.00  0.00    -0.368 OA
BRANCH   7   8
ATOM      8  C   LIG d   1     -14.163  68.015 122.940  0.00  0.00     0.119 C 
BRANCH   8   9
ATOM      9  C   LIG d   1     -15.641  67.793 123.314  0.00  0.00     0.028 C 
ATOM     10  C   LIG d   1     -16.604  68.285 122.220  0.00  0.00     0.006 C 
ENDBRANCH   8   9
BRANCH   8  11
ATOM     11  C   LIG d   1     -14.053  69.500 122.583  0.00  0.00     0.028 C 
ATOM     12  C   LIG d   1     -13.501  70.351 123.738  0.00  0.00     0.006 C 
ENDBRANCH   8  11
ENDBRANCH   7   8
ENDBRANCH   1   7
BRANCH   6  13
ATOM     13  N   LIG d   1     -15.323  65.041 120.237  0.00  0.00    -0.311 N 
ATOM     14  C   LIG d   1     -15.710  65.763 119.187  0.00  0.00     0.210 C 
ATOM     15  C   LIG d   1     -17.209  65.705 118.878  0.00  0.00     0.109 C 
ATOM     16  O   LIG d   1     -14.948  66.420 118.461  0.00  0.00    -0.276 OA
ATOM     17  H   LIG d   1     -16.003  64.513 120.749  0.00  0.00     0.149 HD
ENDBRANCH   6  13
BRANCH   5  18
ATOM     18  N   LIG d   1     -13.365  62.785 119.597  0.00  0.00     0.381 N 
ATOM     19  H   LIG d   1     -13.356  63.430 118.833  0.00  0.00    -0.090 HD
ATOM     20  H   LIG d   1     -14.189  62.215 119.520  0.00  0.00    -0.090 HD
ATOM     21  H   LIG d   1     -12.551  62.211 119.567  0.00  0.00    -0.090 HD
ENDBRANCH   5  18
BRANCH   3  22
ATOM     22  C   LIG d   1     -10.930  63.977 123.546  0.00  0.00     0.382 C 
ATOM     23  O   LIG d   1     -10.480  64.839 124.338  0.00  0.00    -0.241 OA
ATOM     24  O   LIG d   1     -10.483  62.815 123.584  0.00  0.00    -0.241 OA
ENDBRANCH   3  22
TORSDOF 7
ENDMDL
MODEL 5
REMARK VINA RESULT:      -4.4      2.856      5.091
REMARK  7 active torsions:
REMARK  status: ('A' for Active; 'I' for Inactive)
REMARK    1  A    between atoms: C_2  and  C_3 
REMARK    2  A    between atoms: C_3  and  O_6 
REMARK    3  A    between atoms: C_3  and  C_4 
REMARK    4  A    between atoms: C_7  and  O_6 
REMARK    5  A    between atoms: C_9  and  C_10 
REMARK    6  A    between atoms: N_15  and  C_14 
REMARK    7  A    between atoms: N_20  and  C_19 
REMARK       I    between atoms: C_22  and  N_20 
ROOT
ATOM      1  C   LIG d   1      -9.848  78.507 119.962  0.00  0.00     0.161 C 
ATOM      2  C   LIG d   1     -10.842  78.119 120.876  0.00  0.00     0.016 C 
ATOM      3  C   LIG d   1     -11.607  79.039 121.631  0.00  0.00     0.038 C 
ATOM      4  C   LIG d   1     -11.531  80.422 121.411  0.00  0.00     0.028 C 
ATOM      5  C   LIG d   1     -10.183  80.876 120.860  0.00  0.00    -0.047 C 
ATOM      6  C   LIG d   1      -9.829  80.013 119.628  0.00  0.00     0.091 C 
ENDROOT
BRANCH   1   7
ATOM      7  O   LIG d   1      -9.962  77.727 118.756  0.00  0.00    -0.368 OA
BRANCH   7   8
ATOM      8  C   LIG d   1      -9.078  76.584 118.650  0.00  0.00     0.119 C 
BRANCH   8   9
ATOM      9  C   LIG d   1      -7.918  76.981 117.716  0.00  0.00     0.028 C 
ATOM     10  C   LIG d   1      -6.609  77.237 118.482  0.00  0.00     0.006 C 
ENDBRANCH   8   9
BRANCH   8  11
ATOM     11  C   LIG d   1      -9.770  75.406 117.958  0.00  0.00     0.028 C 
ATOM     12  C   LIG d   1      -9.104  74.057 118.270  0.00  0.00     0.006 C 
ENDBRANCH   8  11
ENDBRANCH   7   8
ENDBRANCH   1   7
BRANCH   6  13
ATOM     13  N   LIG d   1      -8.486  80.335 119.078  0.00  0.00    -0.311 N 
ATOM     14  C   LIG d   1      -8.292  81.164 118.054  0.00  0.00     0.210 C 
ATOM     15  C   LIG d   1      -6.830  81.341 117.633  0.00  0.00     0.109 C 
ATOM     16  O   LIG d   1      -9.190  81.795 117.476  0.00  0.00    -0.276 OA
ATOM     17  H   LIG d   1      -7.699  79.891 119.508  0.00  0.00     0.149 HD
ENDBRANCH   6  13
BRANCH   5  18
ATOM     18  N   LIG d   1     -10.290  82.313 120.549  0.00  0.00     0.381 N 
ATOM     19  H   LIG d   1     -10.211  82.849 121.390  0.00  0.00    -0.090 HD
ATOM     20  H   LIG d   1     -11.192  82.492 120.145  0.00  0.00    -0.090 HD
ATOM     21  H   LIG d   1      -9.573  82.578 119.909  0.00  0.00    -0.090 HD
ENDBRANCH   5  18
BRANCH   3  22
ATOM     22  C   LIG d   1     -12.429  78.577 122.647  0.00  0.00     0.382 C 
ATOM     23  O   LIG d   1     -13.286  79.340 123.155  0.00  0.00    -0.241 OA
ATOM     24  O   LIG d   1     -12.295  77.422 123.092  0.00  0.00    -0.241 OA
ENDBRANCH   3  22
TORSDOF 7
ENDMDL
MODEL 6
REMARK VINA RESULT:      -4.3      1.734      5.110
REMARK  7 active torsions:
REMARK  status: ('A' for Active; 'I' for Inactive)
REMARK    1  A    between atoms: C_2  and  C_3 
REMARK    2  A    between atoms: C_3  and  O_6 
REMARK    3  A    between atoms: C_3  and  C_4 
REMARK    4  A    between atoms: C_7  and  O_6 
REMARK    5  A    between atoms: C_9  and  C_10 
REMARK    6  A    between atoms: N_15  and  C_14 
REMARK    7  A    between atoms: N_20  and  C_19 
REMARK       I    between atoms: C_22  and  N_20 
ROOT
ATOM      1  C   LIG d   1      -9.367  80.227 118.384  0.00  0.00     0.161 C 
ATOM      2  C   LIG d   1      -9.430  81.501 118.973  0.00  0.00     0.016 C 
ATOM      3  C   LIG d   1      -9.750  81.713 120.334  0.00  0.00     0.038 C 
ATOM      4  C   LIG d   1      -9.883  80.650 121.239  0.00  0.00     0.028 C 
ATOM      5  C   LIG d   1     -10.326  79.347 120.583  0.00  0.00    -0.047 C 
ATOM      6  C   LIG d   1      -9.400  79.050 119.381  0.00  0.00     0.091 C 
ENDROOT
BRANCH   1   7
ATOM      7  O   LIG d   1      -8.203  80.136 117.539  0.00  0.00    -0.368 OA
BRANCH   7   8
ATOM      8  C   LIG d   1      -6.981  79.700 118.184  0.00  0.00     0.119 C 
BRANCH   8   9
ATOM      9  C   LIG d   1      -5.962  80.850 118.071  0.00  0.00     0.028 C 
ATOM     10  C   LIG d   1      -5.725  81.558 119.416  0.00  0.00     0.006 C 
ENDBRANCH   8   9
BRANCH   8  11
ATOM     11  C   LIG d   1      -6.347  78.522 117.438  0.00  0.00     0.028 C 
ATOM     12  C   LIG d   1      -5.507  77.619 118.354  0.00  0.00     0.006 C 
ENDBRANCH   8  11
ENDBRANCH   7   8
ENDBRANCH   1   7
BRANCH   6  13
ATOM     13  N   LIG d   1      -9.815  77.836 118.632  0.00  0.00    -0.311 N 
ATOM     14  C   LIG d   1      -9.317  76.623 118.866  0.00  0.00     0.210 C 
ATOM     15  C   LIG d   1      -9.868  75.513 117.966  0.00  0.00     0.109 C 
ATOM     16  O   LIG d   1      -8.496  76.356 119.756  0.00  0.00    -0.276 OA
ATOM     17  H   LIG d   1     -10.502  77.957 117.913  0.00  0.00     0.149 HD
ENDBRANCH   6  13
BRANCH   5  18
ATOM     18  N   LIG d   1     -10.290  78.294 121.615  0.00  0.00     0.381 N 
ATOM     19  H   LIG d   1     -10.952  78.503 122.335  0.00  0.00    -0.090 HD
ATOM     20  H   LIG d   1      -9.373  78.272 122.025  0.00  0.00    -0.090 HD
ATOM     21  H   LIG d   1     -10.500  77.409 121.207  0.00  0.00    -0.090 HD
ENDBRANCH   5  18
BRANCH   3  22
ATOM     22  C   LIG d   1      -9.981  83.002 120.792  0.00  0.00     0.382 C 
ATOM     23  O   LIG d   1      -9.498  83.982 120.176  0.00  0.00    -0.241 OA
ATOM     24  O   LIG d   1     -10.629  83.193 121.838  0.00  0.00    -0.241 OA
ENDBRANCH   3  22
TORSDOF 7
ENDMDL
MODEL 7
REMARK VINA RESULT:      -4.2      3.257      7.091
REMARK  7 active torsions:
REMARK  status: ('A' for Active; 'I' for Inactive)
REMARK    1  A    between atoms: C_2  and  C_3 
REMARK    2  A    between atoms: C_3  and  O_6 
REMARK    3  A    between atoms: C_3  and  C_4 
REMARK    4  A    between atoms: C_7  and  O_6 
REMARK    5  A    between atoms: C_9  and  C_10 
REMARK    6  A    between atoms: N_15  and  C_14 
REMARK    7  A    between atoms: N_20  and  C_19 
REMARK       I    between atoms: C_22  and  N_20 
ROOT
ATOM      1  C   LIG d   1      -8.594  81.826 121.394  0.00  0.00     0.161 C 
ATOM      2  C   LIG d   1      -8.935  83.088 121.910  0.00  0.00     0.016 C 
ATOM      3  C   LIG d   1      -9.700  84.039 121.196  0.00  0.00     0.038 C 
ATOM      4  C   LIG d   1     -10.309  83.732 119.970  0.00  0.00     0.028 C 
ATOM      5  C   LIG d   1      -9.575  82.651 119.184  0.00  0.00    -0.047 C 
ATOM      6  C   LIG d   1      -9.343  81.431 120.104  0.00  0.00     0.091 C 
ENDROOT
BRANCH   1   7
ATOM      7  O   LIG d   1      -8.778  80.818 122.409  0.00  0.00    -0.368 OA
BRANCH   7   8
ATOM      8  C   LIG d   1      -9.822  81.075 123.380  0.00  0.00     0.119 C 
BRANCH   8   9
ATOM      9  C   LIG d   1      -9.327  80.546 124.741  0.00  0.00     0.028 C 
ATOM     10  C   LIG d   1      -9.566  79.035 124.905  0.00  0.00     0.006 C 
ENDBRANCH   8   9
BRANCH   8  11
ATOM     11  C   LIG d   1     -11.086  80.269 123.067  0.00  0.00     0.028 C 
ATOM     12  C   LIG d   1     -12.229  81.142 122.526  0.00  0.00     0.006 C 
ENDBRANCH   8  11
ENDBRANCH   7   8
ENDBRANCH   1   7
BRANCH   6  13
ATOM     13  N   LIG d   1      -8.557  80.360 119.438  0.00  0.00    -0.311 N 
ATOM     14  C   LIG d   1      -9.111  79.361 118.753  0.00  0.00     0.210 C 
ATOM     15  C   LIG d   1      -8.120  78.353 118.163  0.00  0.00     0.109 C 
ATOM     16  O   LIG d   1     -10.328  79.233 118.551  0.00  0.00    -0.276 OA
ATOM     17  H   LIG d   1      -7.560  80.404 119.525  0.00  0.00     0.149 HD
ENDBRANCH   6  13
BRANCH   5  18
ATOM     18  N   LIG d   1     -10.390  82.332 117.996  0.00  0.00     0.381 N 
ATOM     19  H   LIG d   1     -10.700  83.179 117.561  0.00  0.00    -0.090 HD
ATOM     20  H   LIG d   1     -11.200  81.814 118.288  0.00  0.00    -0.090 HD
ATOM     21  H   LIG d   1      -9.856  81.794 117.350  0.00  0.00    -0.090 HD
ENDBRANCH   5  18
BRANCH   3  22
ATOM     22  C   LIG d   1      -9.830  85.327 121.692  0.00  0.00     0.382 C 
ATOM     23  O   LIG d   1      -8.820  85.943 122.110  0.00  0.00    -0.241 OA
ATOM     24  O   LIG d   1     -10.950  85.866 121.766  0.00  0.00    -0.241 OA
ENDBRANCH   3  22
TORSDOF 7
ENDMDL
MODEL 8
REMARK VINA RESULT:      -4.2     18.787     21.292
REMARK  7 active torsions:
REMARK  status: ('A' for Active; 'I' for Inactive)
REMARK    1  A    between atoms: C_2  and  C_3 
REMARK    2  A    between atoms: C_3  and  O_6 
REMARK    3  A    between atoms: C_3  and  C_4 
REMARK    4  A    between atoms: C_7  and  O_6 
REMARK    5  A    between atoms: C_9  and  C_10 
REMARK    6  A    between atoms: N_15  and  C_14 
REMARK    7  A    between atoms: N_20  and  C_19 
REMARK       I    between atoms: C_22  and  N_20 
ROOT
ATOM      1  C   LIG d   1      -2.423  60.067 121.610  0.00  0.00     0.161 C 
ATOM      2  C   LIG d   1      -1.773  59.262 120.660  0.00  0.00     0.016 C 
ATOM      3  C   LIG d   1      -0.397  58.943 120.720  0.00  0.00     0.038 C 
ATOM      4  C   LIG d   1       0.395  59.285 121.826  0.00  0.00     0.028 C 
ATOM      5  C   LIG d   1      -0.097  60.526 122.563  0.00  0.00    -0.047 C 
ATOM      6  C   LIG d   1      -1.600  60.357 122.883  0.00  0.00     0.091 C 
ENDROOT
BRANCH   1   7
ATOM      7  O   LIG d   1      -3.694  59.482 121.958  0.00  0.00    -0.368 OA
BRANCH   7   8
ATOM      8  C   LIG d   1      -3.665  58.452 122.976  0.00  0.00     0.119 C 
BRANCH   8   9
ATOM      9  C   LIG d   1      -4.189  57.153 122.335  0.00  0.00     0.028 C 
ATOM     10  C   LIG d   1      -3.064  56.143 122.051  0.00  0.00     0.006 C 
ENDBRANCH   8   9
BRANCH   8  11
ATOM     11  C   LIG d   1      -4.641  58.765 124.114  0.00  0.00     0.028 C 
ATOM     12  C   LIG d   1      -5.392  57.521 124.614  0.00  0.00     0.006 C 
ENDBRANCH   8  11
ENDBRANCH   7   8
ENDBRANCH   1   7
BRANCH   6  13
ATOM     13  N   LIG d   1      -2.182  61.563 123.529  0.00  0.00    -0.311 N 
ATOM     14  C   LIG d   1      -2.272  61.716 124.849  0.00  0.00     0.210 C 
ATOM     15  C   LIG d   1      -2.923  63.025 125.305  0.00  0.00     0.109 C 
ATOM     16  O   LIG d   1      -1.846  60.905 125.685  0.00  0.00    -0.276 OA
ATOM     17  H   LIG d   1      -2.524  62.284 122.924  0.00  0.00     0.149 HD
ENDBRANCH   6  13
BRANCH   5  18
ATOM     18  N   LIG d   1       0.736  60.688 123.770  0.00  0.00     0.381 N 
ATOM     19  H   LIG d   1       1.703  60.698 123.515  0.00  0.00    -0.090 HD
ATOM     20  H   LIG d   1       0.578  59.906 124.381  0.00  0.00    -0.090 HD
ATOM     21  H   LIG d   1       0.499  61.536 124.236  0.00  0.00    -0.090 HD
ENDBRANCH   5  18
BRANCH   3  22
ATOM     22  C   LIG d   1       0.209  58.307 119.647  0.00  0.00     0.382 C 
ATOM     23  O   LIG d   1      -0.357  57.334 119.093  0.00  0.00    -0.241 OA
ATOM     24  O   LIG d   1       1.335  58.667 119.255  0.00  0.00    -0.241 OA
ENDBRANCH   3  22
TORSDOF 7
ENDMDL
MODEL 9
REMARK VINA RESULT:      -4.2      2.310      3.614
REMARK  7 active torsions:
REMARK  status: ('A' for Active; 'I' for Inactive)
REMARK    1  A    between atoms: C_2  and  C_3 
REMARK    2  A    between atoms: C_3  and  O_6 
REMARK    3  A    between atoms: C_3  and  C_4 
REMARK    4  A    between atoms: C_7  and  O_6 
REMARK    5  A    between atoms: C_9  and  C_10 
REMARK    6  A    between atoms: N_15  and  C_14 
REMARK    7  A    between atoms: N_20  and  C_19 
REMARK       I    between atoms: C_22  and  N_20 
ROOT
ATOM      1  C   LIG d   1      -7.175  78.131 117.937  0.00  0.00     0.161 C 
ATOM      2  C   LIG d   1      -8.136  77.127 117.732  0.00  0.00     0.016 C 
ATOM      3  C   LIG d   1      -8.473  76.161 118.707  0.00  0.00     0.038 C 
ATOM      4  C   LIG d   1      -7.977  76.226 120.018  0.00  0.00     0.028 C 
ATOM      5  C   LIG d   1      -6.623  76.920 120.119  0.00  0.00    -0.047 C 
ATOM      6  C   LIG d   1      -6.704  78.286 119.399  0.00  0.00     0.091 C 
ENDROOT
BRANCH   1   7
ATOM      7  O   LIG d   1      -7.666  79.388 117.433  0.00  0.00    -0.368 OA
BRANCH   7   8
ATOM      8  C   LIG d   1      -8.226  80.294 118.416  0.00  0.00     0.119 C 
BRANCH   8   9
ATOM      9  C   LIG d   1      -9.760  80.235 118.278  0.00  0.00     0.028 C 
ATOM     10  C   LIG d   1     -10.426  79.494 119.450  0.00  0.00     0.006 C 
ENDBRANCH   8   9
BRANCH   8  11
ATOM     11  C   LIG d   1      -7.848  81.747 118.114  0.00  0.00     0.028 C 
ATOM     12  C   LIG d   1      -7.478  82.541 119.377  0.00  0.00     0.006 C 
ENDBRANCH   8  11
ENDBRANCH   7   8
ENDBRANCH   1   7
BRANCH   6  13
ATOM     13  N   LIG d   1      -5.398  78.994 119.378  0.00  0.00    -0.311 N 
ATOM     14  C   LIG d   1      -5.032  79.884 120.299  0.00  0.00     0.210 C 
ATOM     15  C   LIG d   1      -3.652  80.512 120.078  0.00  0.00     0.109 C 
ATOM     16  O   LIG d   1      -5.706  80.190 121.294  0.00  0.00    -0.276 OA
ATOM     17  H   LIG d   1      -4.777  78.783 118.622  0.00  0.00     0.149 HD
ENDBRANCH   6  13
BRANCH   5  18
ATOM     18  N   LIG d   1      -6.291  77.041 121.551  0.00  0.00     0.381 N 
ATOM     19  H   LIG d   1      -6.015  76.149 121.911  0.00  0.00    -0.090 HD
ATOM     20  H   LIG d   1      -7.109  77.344 122.051  0.00  0.00    -0.090 HD
ATOM     21  H   LIG d   1      -5.554  77.700 121.676  0.00  0.00    -0.090 HD
ENDBRANCH   5  18
BRANCH   3  22
ATOM     22  C   LIG d   1      -9.285  75.091 118.363  0.00  0.00     0.382 C 
ATOM     23  O   LIG d   1     -10.388  75.296 117.800  0.00  0.00    -0.241 OA
ATOM     24  O   LIG d   1      -8.950  73.926 118.647  0.00  0.00    -0.241 OA
ENDBRANCH   3  22
TORSDOF 7
ENDMDL
