MODEL 1
REMARK VINA RESULT:      -5.5      0.000      0.000
REMARK  7 active torsions:
REMARK  status: ('A' for Active; 'I' for Inactive)
REMARK    1  A    between atoms: C_2  and  C_3 
REMARK    2  A    between atoms: C_3  and  O_6 
REMARK    3  A    between atoms: C_3  and  C_4 
REMARK    4  A    between atoms: C_7  and  O_6 
REMARK    5  A    between atoms: C_9  and  C_10 
REMARK    6  A    between atoms: N_15  and  C_14 
REMARK    7  A    between atoms: N_20  and  C_19 
REMARK       I    between atoms: C_22  and  N_20 
ROOT
ATOM      1  C   LIG d   1      -7.194  78.547 117.853  0.00  0.00     0.161 C 
ATOM      2  C   LIG d   1      -5.966  78.042 118.313  0.00  0.00     0.016 C 
ATOM      3  C   LIG d   1      -5.267  78.582 119.417  0.00  0.00     0.038 C 
ATOM      4  C   LIG d   1      -5.826  79.576 120.234  0.00  0.00     0.028 C 
ATOM      5  C   LIG d   1      -6.835  80.460 119.510  0.00  0.00    -0.047 C 
ATOM      6  C   LIG d   1      -7.872  79.559 118.800  0.00  0.00     0.091 C 
ENDROOT
BRANCH   1   7
ATOM      7  O   LIG d   1      -8.091  77.458 117.558  0.00  0.00    -0.368 OA
BRANCH   7   8
ATOM      8  C   LIG d   1      -7.609  76.131 117.882  0.00  0.00     0.119 C 
BRANCH   8   9
ATOM      9  C   LIG d   1      -7.885  75.228 116.664  0.00  0.00     0.028 C 
ATOM     10  C   LIG d   1      -7.580  73.748 116.949  0.00  0.00     0.006 C 
ENDBRANCH   8   9
BRANCH   8  11
ATOM     11  C   LIG d   1      -8.410  75.513 119.033  0.00  0.00     0.028 C 
ATOM     12  C   LIG d   1      -9.608  76.377 119.456  0.00  0.00     0.006 C 
ENDBRANCH   8  11
ENDBRANCH   7   8
ENDBRANCH   1   7
BRANCH   6  13
ATOM     13  N   LIG d   1      -8.848  80.342 117.998  0.00  0.00    -0.311 N 
ATOM     14  C   LIG d   1     -10.060  80.675 118.439  0.00  0.00     0.210 C 
ATOM     15  C   LIG d   1     -10.915  81.466 117.444  0.00  0.00     0.109 C 
ATOM     16  O   LIG d   1     -10.496  80.418 119.571  0.00  0.00    -0.276 OA
ATOM     17  H   LIG d   1      -8.565  80.619 117.079  0.00  0.00     0.149 HD
ENDBRANCH   6  13
BRANCH   5  18
ATOM     18  N   LIG d   1      -7.439  81.359 120.511  0.00  0.00     0.381 N 
ATOM     19  H   LIG d   1      -6.861  82.166 120.633  0.00  0.00    -0.090 HD
ATOM     20  H   LIG d   1      -7.497  80.876 121.390  0.00  0.00    -0.090 HD
ATOM     21  H   LIG d   1      -8.350  81.636 120.215  0.00  0.00    -0.090 HD
ENDBRANCH   5  18
BRANCH   3  22
ATOM     22  C   LIG d   1      -3.976  78.155 119.688  0.00  0.00     0.382 C 
ATOM     23  O   LIG d   1      -3.231  77.777 118.752  0.00  0.00    -0.241 OA
ATOM     24  O   LIG d   1      -3.562  78.101 120.861  0.00  0.00    -0.241 OA
ENDBRANCH   3  22
TORSDOF 7
ENDMDL
MODEL 2
REMARK VINA RESULT:      -5.4      3.040      5.326
REMARK  7 active torsions:
REMARK  status: ('A' for Active; 'I' for Inactive)
REMARK    1  A    between atoms: C_2  and  C_3 
REMARK    2  A    between atoms: C_3  and  O_6 
REMARK    3  A    between atoms: C_3  and  C_4 
REMARK    4  A    between atoms: C_7  and  O_6 
REMARK    5  A    between atoms: C_9  and  C_10 
REMARK    6  A    between atoms: N_15  and  C_14 
REMARK    7  A    between atoms: N_20  and  C_19 
REMARK       I    between atoms: C_22  and  N_20 
ROOT
ATOM      1  C   LIG d   1      -6.705  77.017 117.041  0.00  0.00     0.161 C 
ATOM      2  C   LIG d   1      -6.848  78.402 117.226  0.00  0.00     0.016 C 
ATOM      3  C   LIG d   1      -7.880  78.982 117.999  0.00  0.00     0.038 C 
ATOM      4  C   LIG d   1      -8.756  78.202 118.770  0.00  0.00     0.028 C 
ATOM      5  C   LIG d   1      -8.965  76.797 118.215  0.00  0.00    -0.047 C 
ATOM      6  C   LIG d   1      -7.585  76.147 117.964  0.00  0.00     0.091 C 
ENDROOT
BRANCH   1   7
ATOM      7  O   LIG d   1      -5.319  76.646 117.176  0.00  0.00    -0.368 OA
BRANCH   7   8
ATOM      8  C   LIG d   1      -4.562  76.552 115.944  0.00  0.00     0.119 C 
BRANCH   8   9
ATOM      9  C   LIG d   1      -5.517  76.029 114.853  0.00  0.00     0.028 C 
ATOM     10  C   LIG d   1      -5.422  74.504 114.672  0.00  0.00     0.006 C 
ENDBRANCH   8   9
BRANCH   8  11
ATOM     11  C   LIG d   1      -3.454  75.500 116.051  0.00  0.00     0.028 C 
ATOM     12  C   LIG d   1      -2.117  75.983 115.467  0.00  0.00     0.006 C 
ENDBRANCH   8  11
ENDBRANCH   7   8
ENDBRANCH   1   7
BRANCH   6  13
ATOM     13  N   LIG d   1      -7.697  74.802 117.342  0.00  0.00    -0.311 N 
ATOM     14  C   LIG d   1      -7.841  73.679 118.044  0.00  0.00     0.210 C 
ATOM     15  C   LIG d   1      -7.916  72.399 117.207  0.00  0.00     0.109 C 
ATOM     16  O   LIG d   1      -7.945  73.626 119.279  0.00  0.00    -0.276 OA
ATOM     17  H   LIG d   1      -7.653  74.757 116.343  0.00  0.00     0.149 HD
ENDBRANCH   6  13
BRANCH   5  18
ATOM     18  N   LIG d   1      -9.787  76.052 119.186  0.00  0.00     0.381 N 
ATOM     19  H   LIG d   1      -9.388  75.148 119.345  0.00  0.00    -0.090 HD
ATOM     20  H   LIG d   1     -10.708  75.928 118.804  0.00  0.00    -0.090 HD
ATOM     21  H   LIG d   1      -9.841  76.555 120.045  0.00  0.00    -0.090 HD
ENDBRANCH   5  18
BRANCH   3  22
ATOM     22  C   LIG d   1      -8.068  80.355 117.975  0.00  0.00     0.382 C 
ATOM     23  O   LIG d   1      -8.368  80.928 116.900  0.00  0.00    -0.241 OA
ATOM     24  O   LIG d   1      -7.898  81.034 119.006  0.00  0.00    -0.241 OA
ENDBRANCH   3  22
TORSDOF 7
ENDMDL
MODEL 3
REMARK VINA RESULT:      -5.2     12.057     14.775
REMARK  7 active torsions:
REMARK  status: ('A' for Active; 'I' for Inactive)
REMARK    1  A    between atoms: C_2  and  C_3 
REMARK    2  A    between atoms: C_3  and  O_6 
REMARK    3  A    between atoms: C_3  and  C_4 
REMARK    4  A    between atoms: C_7  and  O_6 
REMARK    5  A    between atoms: C_9  and  C_10 
REMARK    6  A    between atoms: N_15  and  C_14 
REMARK    7  A    between atoms: N_20  and  C_19 
REMARK       I    between atoms: C_22  and  N_20 
ROOT
ATOM      1  C   LIG d   1      -4.600  92.429 117.077  0.00  0.00     0.161 C 
ATOM      2  C   LIG d   1      -5.750  91.792 116.582  0.00  0.00     0.016 C 
ATOM      3  C   LIG d   1      -5.817  90.406 116.312  0.00  0.00     0.038 C 
ATOM      4  C   LIG d   1      -4.779  89.531 116.666  0.00  0.00     0.028 C 
ATOM      5  C   LIG d   1      -3.409  90.200 116.701  0.00  0.00    -0.047 C 
ATOM      6  C   LIG d   1      -3.495  91.473 117.573  0.00  0.00     0.091 C 
ENDROOT
BRANCH   1   7
ATOM      7  O   LIG d   1      -4.965  93.356 118.119  0.00  0.00    -0.368 OA
BRANCH   7   8
ATOM      8  C   LIG d   1      -6.377  93.436 118.434  0.00  0.00     0.119 C 
BRANCH   8   9
ATOM      9  C   LIG d   1      -6.822  94.892 118.197  0.00  0.00     0.028 C 
ATOM     10  C   LIG d   1      -8.306  95.115 118.537  0.00  0.00     0.006 C 
ENDBRANCH   8   9
BRANCH   8  11
ATOM     11  C   LIG d   1      -6.632  93.172 119.921  0.00  0.00     0.028 C 
ATOM     12  C   LIG d   1      -6.222  91.755 120.353  0.00  0.00     0.006 C 
ENDBRANCH   8  11
ENDBRANCH   7   8
ENDBRANCH   1   7
BRANCH   6  13
ATOM     13  N   LIG d   1      -2.218  92.234 117.593  0.00  0.00    -0.311 N 
ATOM     14  C   LIG d   1      -1.286  92.077 118.531  0.00  0.00     0.210 C 
ATOM     15  C   LIG d   1      -0.054  92.974 118.375  0.00  0.00     0.109 C 
ATOM     16  O   LIG d   1      -1.347  91.257 119.459  0.00  0.00    -0.276 OA
ATOM     17  H   LIG d   1      -2.072  92.898 116.858  0.00  0.00     0.149 HD
ENDBRANCH   6  13
BRANCH   5  18
ATOM     18  N   LIG d   1      -2.444  89.210 117.216  0.00  0.00     0.381 N 
ATOM     19  H   LIG d   1      -1.927  89.605 117.976  0.00  0.00    -0.090 HD
ATOM     20  H   LIG d   1      -1.797  88.975 116.483  0.00  0.00    -0.090 HD
ATOM     21  H   LIG d   1      -2.923  88.392 117.521  0.00  0.00    -0.090 HD
ENDBRANCH   5  18
BRANCH   3  22
ATOM     22  C   LIG d   1      -6.917  89.888 115.646  0.00  0.00     0.382 C 
ATOM     23  O   LIG d   1      -7.589  90.620 114.880  0.00  0.00    -0.241 OA
ATOM     24  O   LIG d   1      -7.273  88.709 115.836  0.00  0.00    -0.241 OA
ENDBRANCH   3  22
TORSDOF 7
ENDMDL
MODEL 4
REMARK VINA RESULT:      -4.9     11.956     14.092
REMARK  7 active torsions:
REMARK  status: ('A' for Active; 'I' for Inactive)
REMARK    1  A    between atoms: C_2  and  C_3 
REMARK    2  A    between atoms: C_3  and  O_6 
REMARK    3  A    between atoms: C_3  and  C_4 
REMARK    4  A    between atoms: C_7  and  O_6 
REMARK    5  A    between atoms: C_9  and  C_10 
REMARK    6  A    between atoms: N_15  and  C_14 
REMARK    7  A    between atoms: N_20  and  C_19 
REMARK       I    between atoms: C_22  and  N_20 
ROOT
ATOM      1  C   LIG d   1      -3.553  90.999 117.658  0.00  0.00     0.161 C 
ATOM      2  C   LIG d   1      -3.920  89.949 116.799  0.00  0.00     0.016 C 
ATOM      3  C   LIG d   1      -5.010  90.022 115.903  0.00  0.00     0.038 C 
ATOM      4  C   LIG d   1      -5.721  91.213 115.695  0.00  0.00     0.028 C 
ATOM      5  C   LIG d   1      -5.709  92.145 116.902  0.00  0.00    -0.047 C 
ATOM      6  C   LIG d   1      -4.248  92.345 117.366  0.00  0.00     0.091 C 
ENDROOT
BRANCH   1   7
ATOM      7  O   LIG d   1      -2.121  91.161 117.648  0.00  0.00    -0.368 OA
BRANCH   7   8
ATOM      8  C   LIG d   1      -1.428  90.781 118.862  0.00  0.00     0.119 C 
BRANCH   8   9
ATOM      9  C   LIG d   1      -0.691  89.457 118.579  0.00  0.00     0.028 C 
ATOM     10  C   LIG d   1      -1.459  88.234 119.107  0.00  0.00     0.006 C 
ENDBRANCH   8   9
BRANCH   8  11
ATOM     11  C   LIG d   1      -2.414  90.463 119.990  0.00  0.00     0.028 C 
ATOM     12  C   LIG d   1      -2.232  91.374 121.215  0.00  0.00     0.006 C 
ENDBRANCH   8  11
ENDBRANCH   7   8
ENDBRANCH   1   7
BRANCH   6  13
ATOM     13  N   LIG d   1      -4.152  93.177 118.594  0.00  0.00    -0.311 N 
ATOM     14  C   LIG d   1      -3.219  94.109 118.778  0.00  0.00     0.210 C 
ATOM     15  C   LIG d   1      -3.288  94.837 120.124  0.00  0.00     0.109 C 
ATOM     16  O   LIG d   1      -2.360  94.424 117.940  0.00  0.00    -0.276 OA
ATOM     17  H   LIG d   1      -4.829  93.009 119.312  0.00  0.00     0.149 HD
ENDBRANCH   6  13
BRANCH   5  18
ATOM     18  N   LIG d   1      -6.366  93.403 116.501  0.00  0.00     0.381 N 
ATOM     19  H   LIG d   1      -7.308  93.217 116.218  0.00  0.00    -0.090 HD
ATOM     20  H   LIG d   1      -5.872  93.792 115.718  0.00  0.00    -0.090 HD
ATOM     21  H   LIG d   1      -6.361  94.047 117.260  0.00  0.00    -0.090 HD
ENDBRANCH   5  18
BRANCH   3  22
ATOM     22  C   LIG d   1      -5.425  88.881 115.232  0.00  0.00     0.382 C 
ATOM     23  O   LIG d   1      -4.652  87.899 115.127  0.00  0.00    -0.241 OA
ATOM     24  O   LIG d   1      -6.547  88.839 114.692  0.00  0.00    -0.241 OA
ENDBRANCH   3  22
TORSDOF 7
ENDMDL
MODEL 5
REMARK VINA RESULT:      -4.9      3.554      6.981
REMARK  7 active torsions:
REMARK  status: ('A' for Active; 'I' for Inactive)
REMARK    1  A    between atoms: C_2  and  C_3 
REMARK    2  A    between atoms: C_3  and  O_6 
REMARK    3  A    between atoms: C_3  and  C_4 
REMARK    4  A    between atoms: C_7  and  O_6 
REMARK    5  A    between atoms: C_9  and  C_10 
REMARK    6  A    between atoms: N_15  and  C_14 
REMARK    7  A    between atoms: N_20  and  C_19 
REMARK       I    between atoms: C_22  and  N_20 
ROOT
ATOM      1  C   LIG d   1      -4.395  77.319 117.448  0.00  0.00     0.161 C 
ATOM      2  C   LIG d   1      -5.691  77.508 117.955  0.00  0.00     0.016 C 
ATOM      3  C   LIG d   1      -6.842  76.911 117.391  0.00  0.00     0.038 C 
ATOM      4  C   LIG d   1      -6.756  75.956 116.367  0.00  0.00     0.028 C 
ATOM      5  C   LIG d   1      -5.517  76.117 115.492  0.00  0.00    -0.047 C 
ATOM      6  C   LIG d   1      -4.269  76.193 116.400  0.00  0.00     0.091 C 
ENDROOT
BRANCH   1   7
ATOM      7  O   LIG d   1      -3.473  77.098 118.533  0.00  0.00    -0.368 OA
BRANCH   7   8
ATOM      8  C   LIG d   1      -2.531  78.167 118.797  0.00  0.00     0.119 C 
BRANCH   8   9
ATOM      9  C   LIG d   1      -1.145  77.524 118.996  0.00  0.00     0.028 C 
ATOM     10  C   LIG d   1      -0.065  78.173 118.113  0.00  0.00     0.006 C 
ENDBRANCH   8   9
BRANCH   8  11
ATOM     11  C   LIG d   1      -2.844  78.873 120.119  0.00  0.00     0.028 C 
ATOM     12  C   LIG d   1      -2.761  77.932 121.331  0.00  0.00     0.006 C 
ENDBRANCH   8  11
ENDBRANCH   7   8
ENDBRANCH   1   7
BRANCH   6  13
ATOM     13  N   LIG d   1      -3.021  76.435 115.628  0.00  0.00    -0.311 N 
ATOM     14  C   LIG d   1      -1.913  75.712 115.781  0.00  0.00     0.210 C 
ATOM     15  C   LIG d   1      -0.735  76.142 114.902  0.00  0.00     0.109 C 
ATOM     16  O   LIG d   1      -1.804  74.736 116.538  0.00  0.00    -0.276 OA
ATOM     17  H   LIG d   1      -3.031  77.189 114.969  0.00  0.00     0.149 HD
ENDBRANCH   6  13
BRANCH   5  18
ATOM     18  N   LIG d   1      -5.483  74.978 114.556  0.00  0.00     0.381 N 
ATOM     19  H   LIG d   1      -4.697  75.067 113.942  0.00  0.00    -0.090 HD
ATOM     20  H   LIG d   1      -6.320  74.988 114.000  0.00  0.00    -0.090 HD
ATOM     21  H   LIG d   1      -5.422  74.122 115.062  0.00  0.00    -0.090 HD
ENDBRANCH   5  18
BRANCH   3  22
ATOM     22  C   LIG d   1      -8.101  77.297 117.827  0.00  0.00     0.382 C 
ATOM     23  O   LIG d   1      -8.999  76.437 117.992  0.00  0.00    -0.241 OA
ATOM     24  O   LIG d   1      -8.362  78.501 118.015  0.00  0.00    -0.241 OA
ENDBRANCH   3  22
TORSDOF 7
ENDMDL
MODEL 6
REMARK VINA RESULT:      -4.9     11.850     14.108
REMARK  7 active torsions:
REMARK  status: ('A' for Active; 'I' for Inactive)
REMARK    1  A    between atoms: C_2  and  C_3 
REMARK    2  A    between atoms: C_3  and  O_6 
REMARK    3  A    between atoms: C_3  and  C_4 
REMARK    4  A    between atoms: C_7  and  O_6 
REMARK    5  A    between atoms: C_9  and  C_10 
REMARK    6  A    between atoms: N_15  and  C_14 
REMARK    7  A    between atoms: N_20  and  C_19 
REMARK       I    between atoms: C_22  and  N_20 
ROOT
ATOM      1  C   LIG d   1      -3.242  90.533 117.758  0.00  0.00     0.161 C 
ATOM      2  C   LIG d   1      -4.193  89.810 117.020  0.00  0.00     0.016 C 
ATOM      3  C   LIG d   1      -5.404  90.370 116.552  0.00  0.00     0.038 C 
ATOM      4  C   LIG d   1      -5.679  91.741 116.663  0.00  0.00     0.028 C 
ATOM      5  C   LIG d   1      -4.978  92.406 117.843  0.00  0.00    -0.047 C 
ATOM      6  C   LIG d   1      -3.472  92.058 117.793  0.00  0.00     0.091 C 
ENDROOT
BRANCH   1   7
ATOM      7  O   LIG d   1      -1.918  90.237 117.271  0.00  0.00    -0.368 OA
BRANCH   7   8
ATOM      8  C   LIG d   1      -1.086  89.428 118.138  0.00  0.00     0.119 C 
BRANCH   8   9
ATOM      9  C   LIG d   1       0.305  90.090 118.195  0.00  0.00     0.028 C 
ATOM     10  C   LIG d   1       0.579  90.986 116.976  0.00  0.00     0.006 C 
ENDBRANCH   8   9
BRANCH   8  11
ATOM     11  C   LIG d   1      -0.848  88.037 117.542  0.00  0.00     0.028 C 
ATOM     12  C   LIG d   1      -1.812  86.978 118.098  0.00  0.00     0.006 C 
ENDBRANCH   8  11
ENDBRANCH   7   8
ENDBRANCH   1   7
BRANCH   6  13
ATOM     13  N   LIG d   1      -2.727  92.600 118.959  0.00  0.00    -0.311 N 
ATOM     14  C   LIG d   1      -1.680  93.415 118.845  0.00  0.00     0.210 C 
ATOM     15  C   LIG d   1      -1.044  93.841 120.172  0.00  0.00     0.109 C 
ATOM     16  O   LIG d   1      -1.238  93.853 117.772  0.00  0.00    -0.276 OA
ATOM     17  H   LIG d   1      -3.038  92.321 119.869  0.00  0.00     0.149 HD
ENDBRANCH   6  13
BRANCH   5  18
ATOM     18  N   LIG d   1      -5.240  93.855 117.758  0.00  0.00     0.381 N 
ATOM     19  H   LIG d   1      -5.389  94.117 116.804  0.00  0.00    -0.090 HD
ATOM     20  H   LIG d   1      -4.435  94.351 118.099  0.00  0.00    -0.090 HD
ATOM     21  H   LIG d   1      -6.040  94.089 118.303  0.00  0.00    -0.090 HD
ENDBRANCH   5  18
BRANCH   3  22
ATOM     22  C   LIG d   1      -6.374  89.546 116.001  0.00  0.00     0.382 C 
ATOM     23  O   LIG d   1      -6.081  88.376 115.656  0.00  0.00    -0.241 OA
ATOM     24  O   LIG d   1      -7.528  89.973 115.804  0.00  0.00    -0.241 OA
ENDBRANCH   3  22
TORSDOF 7
ENDMDL
MODEL 7
REMARK VINA RESULT:      -4.8      2.245      4.713
REMARK  7 active torsions:
REMARK  status: ('A' for Active; 'I' for Inactive)
REMARK    1  A    between atoms: C_2  and  C_3 
REMARK    2  A    between atoms: C_3  and  O_6 
REMARK    3  A    between atoms: C_3  and  C_4 
REMARK    4  A    between atoms: C_7  and  O_6 
REMARK    5  A    between atoms: C_9  and  C_10 
REMARK    6  A    between atoms: N_15  and  C_14 
REMARK    7  A    between atoms: N_20  and  C_19 
REMARK       I    between atoms: C_22  and  N_20 
ROOT
ATOM      1  C   LIG d   1      -8.011  79.004 120.925  0.00  0.00     0.161 C 
ATOM      2  C   LIG d   1      -7.849  77.732 120.350  0.00  0.00     0.016 C 
ATOM      3  C   LIG d   1      -8.468  77.341 119.140  0.00  0.00     0.038 C 
ATOM      4  C   LIG d   1      -9.175  78.251 118.341  0.00  0.00     0.028 C 
ATOM      5  C   LIG d   1      -9.786  79.404 119.131  0.00  0.00    -0.047 C 
ATOM      6  C   LIG d   1      -8.689  80.046 120.011  0.00  0.00     0.091 C 
ENDROOT
BRANCH   1   7
ATOM      7  O   LIG d   1      -6.738  79.496 121.389  0.00  0.00    -0.368 OA
BRANCH   7   8
ATOM      8  C   LIG d   1      -5.843  80.005 120.370  0.00  0.00     0.119 C 
BRANCH   8   9
ATOM      9  C   LIG d   1      -4.550  79.168 120.429  0.00  0.00     0.028 C 
ATOM     10  C   LIG d   1      -4.358  78.297 119.176  0.00  0.00     0.006 C 
ENDBRANCH   8   9
BRANCH   8  11
ATOM     11  C   LIG d   1      -5.409  81.442 120.676  0.00  0.00     0.028 C 
ATOM     12  C   LIG d   1      -3.884  81.593 120.793  0.00  0.00     0.006 C 
ENDBRANCH   8  11
ENDBRANCH   7   8
ENDBRANCH   1   7
BRANCH   6  13
ATOM     13  N   LIG d   1      -9.220  81.128 120.880  0.00  0.00    -0.311 N 
ATOM     14  C   LIG d   1      -9.218  82.414 120.533  0.00  0.00     0.210 C 
ATOM     15  C   LIG d   1      -9.794  83.368 121.584  0.00  0.00     0.109 C 
ATOM     16  O   LIG d   1      -8.823  82.852 119.442  0.00  0.00    -0.276 OA
ATOM     17  H   LIG d   1      -9.589  80.858 121.771  0.00  0.00     0.149 HD
ENDBRANCH   6  13
BRANCH   5  18
ATOM     18  N   LIG d   1     -10.374  80.347 118.161  0.00  0.00     0.381 N 
ATOM     19  H   LIG d   1     -10.202  81.288 118.456  0.00  0.00    -0.090 HD
ATOM     20  H   LIG d   1     -11.368  80.203 118.129  0.00  0.00    -0.090 HD
ATOM     21  H   LIG d   1      -9.980  80.197 117.258  0.00  0.00    -0.090 HD
ENDBRANCH   5  18
BRANCH   3  22
ATOM     22  C   LIG d   1      -8.416  76.015 118.740  0.00  0.00     0.382 C 
ATOM     23  O   LIG d   1      -8.315  75.731 117.522  0.00  0.00    -0.241 OA
ATOM     24  O   LIG d   1      -8.514  75.097 119.577  0.00  0.00    -0.241 OA
ENDBRANCH   3  22
TORSDOF 7
ENDMDL
MODEL 8
REMARK VINA RESULT:      -4.8      2.707      5.975
REMARK  7 active torsions:
REMARK  status: ('A' for Active; 'I' for Inactive)
REMARK    1  A    between atoms: C_2  and  C_3 
REMARK    2  A    between atoms: C_3  and  O_6 
REMARK    3  A    between atoms: C_3  and  C_4 
REMARK    4  A    between atoms: C_7  and  O_6 
REMARK    5  A    between atoms: C_9  and  C_10 
REMARK    6  A    between atoms: N_15  and  C_14 
REMARK    7  A    between atoms: N_20  and  C_19 
REMARK       I    between atoms: C_22  and  N_20 
ROOT
ATOM      1  C   LIG d   1      -7.189  78.272 117.766  0.00  0.00     0.161 C 
ATOM      2  C   LIG d   1      -8.317  78.293 118.604  0.00  0.00     0.016 C 
ATOM      3  C   LIG d   1      -9.138  77.164 118.831  0.00  0.00     0.038 C 
ATOM      4  C   LIG d   1      -8.797  75.891 118.352  0.00  0.00     0.028 C 
ATOM      5  C   LIG d   1      -7.945  75.927 117.088  0.00  0.00    -0.047 C 
ATOM      6  C   LIG d   1      -6.738  76.864 117.323  0.00  0.00     0.091 C 
ENDROOT
BRANCH   1   7
ATOM      7  O   LIG d   1      -6.099  78.972 118.397  0.00  0.00    -0.368 OA
BRANCH   7   8
ATOM      8  C   LIG d   1      -5.323  78.211 119.356  0.00  0.00     0.119 C 
BRANCH   8   9
ATOM      9  C   LIG d   1      -5.406  78.947 120.707  0.00  0.00     0.028 C 
ATOM     10  C   LIG d   1      -6.332  78.234 121.707  0.00  0.00     0.006 C 
ENDBRANCH   8   9
BRANCH   8  11
ATOM     11  C   LIG d   1      -3.836  78.204 118.989  0.00  0.00     0.028 C 
ATOM     12  C   LIG d   1      -2.946  78.789 120.097  0.00  0.00     0.006 C 
ENDBRANCH   8  11
ENDBRANCH   7   8
ENDBRANCH   1   7
BRANCH   6  13
ATOM     13  N   LIG d   1      -5.898  77.023 116.108  0.00  0.00    -0.311 N 
ATOM     14  C   LIG d   1      -4.826  76.274 115.855  0.00  0.00     0.210 C 
ATOM     15  C   LIG d   1      -4.091  76.616 114.555  0.00  0.00     0.109 C 
ATOM     16  O   LIG d   1      -4.433  75.338 116.567  0.00  0.00    -0.276 OA
ATOM     17  H   LIG d   1      -6.164  77.738 115.460  0.00  0.00     0.149 HD
ENDBRANCH   6  13
BRANCH   5  18
ATOM     18  N   LIG d   1      -7.548  74.540 116.778  0.00  0.00     0.381 N 
ATOM     19  H   LIG d   1      -6.695  74.318 117.251  0.00  0.00    -0.090 HD
ATOM     20  H   LIG d   1      -7.391  74.461 115.789  0.00  0.00    -0.090 HD
ATOM     21  H   LIG d   1      -8.266  73.909 117.060  0.00  0.00    -0.090 HD
ENDBRANCH   5  18
BRANCH   3  22
ATOM     22  C   LIG d   1     -10.337  77.313 119.513  0.00  0.00     0.382 C 
ATOM     23  O   LIG d   1     -10.385  78.018 120.549  0.00  0.00    -0.241 OA
ATOM     24  O   LIG d   1     -11.360  76.714 119.129  0.00  0.00    -0.241 OA
ENDBRANCH   3  22
TORSDOF 7
ENDMDL
MODEL 9
REMARK VINA RESULT:      -4.7      9.758     11.780
REMARK  7 active torsions:
REMARK  status: ('A' for Active; 'I' for Inactive)
REMARK    1  A    between atoms: C_2  and  C_3 
REMARK    2  A    between atoms: C_3  and  O_6 
REMARK    3  A    between atoms: C_3  and  C_4 
REMARK    4  A    between atoms: C_7  and  O_6 
REMARK    5  A    between atoms: C_9  and  C_10 
REMARK    6  A    between atoms: N_15  and  C_14 
REMARK    7  A    between atoms: N_20  and  C_19 
REMARK       I    between atoms: C_22  and  N_20 
ROOT
ATOM      1  C   LIG d   1     -15.076  70.885 120.842  0.00  0.00     0.161 C 
ATOM      2  C   LIG d   1     -14.218  71.494 121.773  0.00  0.00     0.016 C 
ATOM      3  C   LIG d   1     -13.154  70.816 122.411  0.00  0.00     0.038 C 
ATOM      4  C   LIG d   1     -12.780  69.514 122.046  0.00  0.00     0.028 C 
ATOM      5  C   LIG d   1     -13.930  68.691 121.475  0.00  0.00    -0.047 C 
ATOM      6  C   LIG d   1     -14.614  69.498 120.348  0.00  0.00     0.091 C 
ENDROOT
BRANCH   1   7
ATOM      7  O   LIG d   1     -15.289  71.769 119.724  0.00  0.00    -0.368 OA
BRANCH   7   8
ATOM      8  C   LIG d   1     -16.534  72.510 119.726  0.00  0.00     0.119 C 
BRANCH   8   9
ATOM      9  C   LIG d   1     -17.359  72.034 118.514  0.00  0.00     0.028 C 
ATOM     10  C   LIG d   1     -16.475  71.472 117.387  0.00  0.00     0.006 C 
ENDBRANCH   8   9
BRANCH   8  11
ATOM     11  C   LIG d   1     -16.294  74.004 119.490  0.00  0.00     0.028 C 
ATOM     12  C   LIG d   1     -14.837  74.322 119.118  0.00  0.00     0.006 C 
ENDBRANCH   8  11
ENDBRANCH   7   8
ENDBRANCH   1   7
BRANCH   6  13
ATOM     13  N   LIG d   1     -15.803  68.800 119.793  0.00  0.00    -0.311 N 
ATOM     14  C   LIG d   1     -15.752  67.998 118.731  0.00  0.00     0.210 C 
ATOM     15  C   LIG d   1     -17.096  67.395 118.311  0.00  0.00     0.109 C 
ATOM     16  O   LIG d   1     -14.716  67.703 118.116  0.00  0.00    -0.276 OA
ATOM     17  H   LIG d   1     -16.680  68.959 120.249  0.00  0.00     0.149 HD
ENDBRANCH   6  13
BRANCH   5  18
ATOM     18  N   LIG d   1     -13.372  67.407 121.010  0.00  0.00     0.381 N 
ATOM     19  H   LIG d   1     -12.412  67.528 120.756  0.00  0.00    -0.090 HD
ATOM     20  H   LIG d   1     -13.879  67.108 120.196  0.00  0.00    -0.090 HD
ATOM     21  H   LIG d   1     -13.449  66.721 121.729  0.00  0.00    -0.090 HD
ENDBRANCH   5  18
BRANCH   3  22
ATOM     22  C   LIG d   1     -12.477  71.427 123.456  0.00  0.00     0.382 C 
ATOM     23  O   LIG d   1     -12.540  72.672 123.600  0.00  0.00    -0.241 OA
ATOM     24  O   LIG d   1     -11.769  70.755 124.229  0.00  0.00    -0.241 OA
ENDBRANCH   3  22
TORSDOF 7
ENDMDL
