MODEL 1
REMARK VINA RESULT:      -4.8      0.000      0.000
REMARK  7 active torsions:
REMARK  status: ('A' for Active; 'I' for Inactive)
REMARK    1  A    between atoms: C_2  and  C_3 
REMARK    2  A    between atoms: C_3  and  O_6 
REMARK    3  A    between atoms: C_3  and  C_4 
REMARK    4  A    between atoms: C_7  and  O_6 
REMARK    5  A    between atoms: C_9  and  C_10 
REMARK    6  A    between atoms: N_15  and  C_14 
REMARK    7  A    between atoms: N_20  and  C_19 
REMARK       I    between atoms: C_22  and  N_20 
ROOT
ATOM      1  C   LIG d   1      -8.742  82.261 120.702  0.00  0.00     0.161 C 
ATOM      2  C   LIG d   1      -9.229  83.482 121.199  0.00  0.00     0.016 C 
ATOM      3  C   LIG d   1     -10.146  84.298 120.498  0.00  0.00     0.038 C 
ATOM      4  C   LIG d   1     -10.759  83.872 119.310  0.00  0.00     0.028 C 
ATOM      5  C   LIG d   1      -9.920  82.874 118.519  0.00  0.00    -0.047 C 
ATOM      6  C   LIG d   1      -9.485  81.727 119.460  0.00  0.00     0.091 C 
ENDROOT
BRANCH   1   7
ATOM      7  O   LIG d   1      -8.744  81.272 121.750  0.00  0.00    -0.368 OA
BRANCH   7   8
ATOM      8  C   LIG d   1     -10.012  80.622 122.012  0.00  0.00     0.119 C 
BRANCH   8   9
ATOM      9  C   LIG d   1     -10.455  81.026 123.432  0.00  0.00     0.028 C 
ATOM     10  C   LIG d   1     -11.729  81.887 123.427  0.00  0.00     0.006 C 
ENDBRANCH   8   9
BRANCH   8  11
ATOM     11  C   LIG d   1      -9.860  79.099 122.052  0.00  0.00     0.028 C 
ATOM     12  C   LIG d   1      -8.403  78.641 121.880  0.00  0.00     0.006 C 
ENDBRANCH   8  11
ENDBRANCH   7   8
ENDBRANCH   1   7
BRANCH   6  13
ATOM     13  N   LIG d   1      -8.590  80.751 118.786  0.00  0.00    -0.311 N 
ATOM     14  C   LIG d   1      -9.007  79.575 118.318  0.00  0.00     0.210 C 
ATOM     15  C   LIG d   1      -7.917  78.711 117.677  0.00  0.00     0.109 C 
ATOM     16  O   LIG d   1     -10.182  79.181 118.345  0.00  0.00    -0.276 OA
ATOM     17  H   LIG d   1      -7.626  81.004 118.694  0.00  0.00     0.149 HD
ENDBRANCH   6  13
BRANCH   5  18
ATOM     18  N   LIG d   1     -10.735  82.411 117.380  0.00  0.00     0.381 N 
ATOM     19  H   LIG d   1     -10.531  81.451 117.187  0.00  0.00    -0.090 HD
ATOM     20  H   LIG d   1     -10.498  82.953 116.569  0.00  0.00    -0.090 HD
ATOM     21  H   LIG d   1     -11.704  82.517 117.589  0.00  0.00    -0.090 HD
ENDBRANCH   5  18
BRANCH   3  22
ATOM     22  C   LIG d   1     -10.428  85.573 120.964  0.00  0.00     0.382 C 
ATOM     23  O   LIG d   1      -9.493  86.333 121.315  0.00  0.00    -0.241 OA
ATOM     24  O   LIG d   1     -11.607  85.957 121.080  0.00  0.00    -0.241 OA
ENDBRANCH   3  22
TORSDOF 7
ENDMDL
MODEL 2
REMARK VINA RESULT:      -4.7      1.284      2.149
REMARK  7 active torsions:
REMARK  status: ('A' for Active; 'I' for Inactive)
REMARK    1  A    between atoms: C_2  and  C_3 
REMARK    2  A    between atoms: C_3  and  O_6 
REMARK    3  A    between atoms: C_3  and  C_4 
REMARK    4  A    between atoms: C_7  and  O_6 
REMARK    5  A    between atoms: C_9  and  C_10 
REMARK    6  A    between atoms: N_15  and  C_14 
REMARK    7  A    between atoms: N_20  and  C_19 
REMARK       I    between atoms: C_22  and  N_20 
ROOT
ATOM      1  C   LIG d   1      -8.805  82.269 120.565  0.00  0.00     0.161 C 
ATOM      2  C   LIG d   1      -9.314  83.461 121.106  0.00  0.00     0.016 C 
ATOM      3  C   LIG d   1     -10.206  84.312 120.413  0.00  0.00     0.038 C 
ATOM      4  C   LIG d   1     -10.771  83.948 119.182  0.00  0.00     0.028 C 
ATOM      5  C   LIG d   1      -9.898  82.994 118.373  0.00  0.00    -0.047 C 
ATOM      6  C   LIG d   1      -9.496  81.800 119.268  0.00  0.00     0.091 C 
ENDROOT
BRANCH   1   7
ATOM      7  O   LIG d   1      -8.844  81.226 121.559  0.00  0.00    -0.368 OA
BRANCH   7   8
ATOM      8  C   LIG d   1      -7.560  80.739 122.022  0.00  0.00     0.119 C 
BRANCH   8   9
ATOM      9  C   LIG d   1      -6.468  81.544 121.292  0.00  0.00     0.028 C 
ATOM     10  C   LIG d   1      -5.448  80.639 120.582  0.00  0.00     0.006 C 
ENDBRANCH   8   9
BRANCH   8  11
ATOM     11  C   LIG d   1      -7.335  79.282 121.609  0.00  0.00     0.028 C 
ATOM     12  C   LIG d   1      -8.553  78.387 121.888  0.00  0.00     0.006 C 
ENDBRANCH   8  11
ENDBRANCH   7   8
ENDBRANCH   1   7
BRANCH   6  13
ATOM     13  N   LIG d   1      -8.572  80.861 118.580  0.00  0.00    -0.311 N 
ATOM     14  C   LIG d   1      -8.896  79.606 118.274  0.00  0.00     0.210 C 
ATOM     15  C   LIG d   1      -7.790  78.803 117.584  0.00  0.00     0.109 C 
ATOM     16  O   LIG d   1     -10.006  79.092 118.481  0.00  0.00    -0.276 OA
ATOM     17  H   LIG d   1      -7.662  81.206 118.347  0.00  0.00     0.149 HD
ENDBRANCH   6  13
BRANCH   5  18
ATOM     18  N   LIG d   1     -10.667  82.590 117.180  0.00  0.00     0.381 N 
ATOM     19  H   LIG d   1     -10.393  81.670 116.897  0.00  0.00    -0.090 HD
ATOM     20  H   LIG d   1     -10.460  83.226 116.430  0.00  0.00    -0.090 HD
ATOM     21  H   LIG d   1     -11.642  82.608 117.381  0.00  0.00    -0.090 HD
ENDBRANCH   5  18
BRANCH   3  22
ATOM     22  C   LIG d   1     -10.510  85.560 120.934  0.00  0.00     0.382 C 
ATOM     23  O   LIG d   1     -11.706  85.930 121.018  0.00  0.00    -0.241 OA
ATOM     24  O   LIG d   1      -9.601  86.338 121.281  0.00  0.00    -0.241 OA
ENDBRANCH   3  22
TORSDOF 7
ENDMDL
MODEL 3
REMARK VINA RESULT:      -4.6      2.598      5.432
REMARK  7 active torsions:
REMARK  status: ('A' for Active; 'I' for Inactive)
REMARK    1  A    between atoms: C_2  and  C_3 
REMARK    2  A    between atoms: C_3  and  O_6 
REMARK    3  A    between atoms: C_3  and  C_4 
REMARK    4  A    between atoms: C_7  and  O_6 
REMARK    5  A    between atoms: C_9  and  C_10 
REMARK    6  A    between atoms: N_15  and  C_14 
REMARK    7  A    between atoms: N_20  and  C_19 
REMARK       I    between atoms: C_22  and  N_20 
ROOT
ATOM      1  C   LIG d   1      -7.937  82.715 119.613  0.00  0.00     0.161 C 
ATOM      2  C   LIG d   1      -7.861  81.396 119.136  0.00  0.00     0.016 C 
ATOM      3  C   LIG d   1      -8.835  80.817 118.291  0.00  0.00     0.038 C 
ATOM      4  C   LIG d   1      -9.881  81.571 117.739  0.00  0.00     0.028 C 
ATOM      5  C   LIG d   1     -10.279  82.770 118.593  0.00  0.00    -0.047 C 
ATOM      6  C   LIG d   1      -9.012  83.588 118.932  0.00  0.00     0.091 C 
ENDROOT
BRANCH   1   7
ATOM      7  O   LIG d   1      -6.644  83.345 119.514  0.00  0.00    -0.368 OA
BRANCH   7   8
ATOM      8  C   LIG d   1      -5.906  83.481 120.753  0.00  0.00     0.119 C 
BRANCH   8   9
ATOM      9  C   LIG d   1      -5.937  84.970 121.149  0.00  0.00     0.028 C 
ATOM     10  C   LIG d   1      -6.411  85.183 122.596  0.00  0.00     0.006 C 
ENDBRANCH   8   9
BRANCH   8  11
ATOM     11  C   LIG d   1      -4.425  83.144 120.559  0.00  0.00     0.028 C 
ATOM     12  C   LIG d   1      -4.169  81.634 120.432  0.00  0.00     0.006 C 
ENDBRANCH   8  11
ENDBRANCH   7   8
ENDBRANCH   1   7
BRANCH   6  13
ATOM     13  N   LIG d   1      -9.300  84.732 119.835  0.00  0.00    -0.311 N 
ATOM     14  C   LIG d   1      -9.789  84.590 121.066  0.00  0.00     0.210 C 
ATOM     15  C   LIG d   1     -10.032  85.900 121.821  0.00  0.00     0.109 C 
ATOM     16  O   LIG d   1     -10.013  83.501 121.616  0.00  0.00    -0.276 OA
ATOM     17  H   LIG d   1      -9.118  85.651 119.480  0.00  0.00     0.149 HD
ENDBRANCH   6  13
BRANCH   5  18
ATOM     18  N   LIG d   1     -11.281  83.544 117.836  0.00  0.00     0.381 N 
ATOM     19  H   LIG d   1     -11.346  83.192 116.902  0.00  0.00    -0.090 HD
ATOM     20  H   LIG d   1     -10.986  84.503 117.792  0.00  0.00    -0.090 HD
ATOM     21  H   LIG d   1     -12.169  83.482 118.284  0.00  0.00    -0.090 HD
ENDBRANCH   5  18
BRANCH   3  22
ATOM     22  C   LIG d   1      -8.791  79.457 118.022  0.00  0.00     0.382 C 
ATOM     23  O   LIG d   1      -9.827  78.759 118.145  0.00  0.00    -0.241 OA
ATOM     24  O   LIG d   1      -7.719  78.911 117.700  0.00  0.00    -0.241 OA
ENDBRANCH   3  22
TORSDOF 7
ENDMDL
MODEL 4
REMARK VINA RESULT:      -4.5      2.147      5.520
REMARK  7 active torsions:
REMARK  status: ('A' for Active; 'I' for Inactive)
REMARK    1  A    between atoms: C_2  and  C_3 
REMARK    2  A    between atoms: C_3  and  O_6 
REMARK    3  A    between atoms: C_3  and  C_4 
REMARK    4  A    between atoms: C_7  and  O_6 
REMARK    5  A    between atoms: C_9  and  C_10 
REMARK    6  A    between atoms: N_15  and  C_14 
REMARK    7  A    between atoms: N_20  and  C_19 
REMARK       I    between atoms: C_22  and  N_20 
ROOT
ATOM      1  C   LIG d   1      -8.824  82.114 120.891  0.00  0.00     0.161 C 
ATOM      2  C   LIG d   1      -8.434  81.065 120.042  0.00  0.00     0.016 C 
ATOM      3  C   LIG d   1      -8.956  80.883 118.740  0.00  0.00     0.038 C 
ATOM      4  C   LIG d   1      -9.797  81.831 118.139  0.00  0.00     0.028 C 
ATOM      5  C   LIG d   1     -10.611  82.641 119.143  0.00  0.00    -0.047 C 
ATOM      6  C   LIG d   1      -9.656  83.221 120.212  0.00  0.00     0.091 C 
ENDROOT
BRANCH   1   7
ATOM      7  O   LIG d   1      -7.663  82.681 121.531  0.00  0.00    -0.368 OA
BRANCH   7   8
ATOM      8  C   LIG d   1      -6.977  83.725 120.797  0.00  0.00     0.119 C 
BRANCH   8   9
ATOM      9  C   LIG d   1      -5.650  83.133 120.283  0.00  0.00     0.028 C 
ATOM     10  C   LIG d   1      -5.048  82.108 121.259  0.00  0.00     0.006 C 
ENDBRANCH   8   9
BRANCH   8  11
ATOM     11  C   LIG d   1      -6.575  84.882 121.716  0.00  0.00     0.028 C 
ATOM     12  C   LIG d   1      -7.182  84.762 123.123  0.00  0.00     0.006 C 
ENDBRANCH   8  11
ENDBRANCH   7   8
ENDBRANCH   1   7
BRANCH   6  13
ATOM     13  N   LIG d   1     -10.382  83.957 121.279  0.00  0.00    -0.311 N 
ATOM     14  C   LIG d   1     -10.330  85.281 121.423  0.00  0.00     0.210 C 
ATOM     15  C   LIG d   1     -11.136  85.836 122.601  0.00  0.00     0.109 C 
ATOM     16  O   LIG d   1      -9.718  86.050 120.666  0.00  0.00    -0.276 OA
ATOM     17  H   LIG d   1     -10.928  83.414 121.919  0.00  0.00     0.149 HD
ENDBRANCH   6  13
BRANCH   5  18
ATOM     18  N   LIG d   1     -11.337  83.682 118.391  0.00  0.00     0.381 N 
ATOM     19  H   LIG d   1     -12.131  83.988 118.917  0.00  0.00    -0.090 HD
ATOM     20  H   LIG d   1     -11.664  83.289 117.526  0.00  0.00    -0.090 HD
ATOM     21  H   LIG d   1     -10.734  84.453 118.207  0.00  0.00    -0.090 HD
ENDBRANCH   5  18
BRANCH   3  22
ATOM     22  C   LIG d   1      -8.667  79.721 118.041  0.00  0.00     0.382 C 
ATOM     23  O   LIG d   1      -7.602  79.632 117.385  0.00  0.00    -0.241 OA
ATOM     24  O   LIG d   1      -9.481  78.777 118.021  0.00  0.00    -0.241 OA
ENDBRANCH   3  22
TORSDOF 7
ENDMDL
MODEL 5
REMARK VINA RESULT:      -4.3      9.014     10.239
REMARK  7 active torsions:
REMARK  status: ('A' for Active; 'I' for Inactive)
REMARK    1  A    between atoms: C_2  and  C_3 
REMARK    2  A    between atoms: C_3  and  O_6 
REMARK    3  A    between atoms: C_3  and  C_4 
REMARK    4  A    between atoms: C_7  and  O_6 
REMARK    5  A    between atoms: C_9  and  C_10 
REMARK    6  A    between atoms: N_15  and  C_14 
REMARK    7  A    between atoms: N_20  and  C_19 
REMARK       I    between atoms: C_22  and  N_20 
ROOT
ATOM      1  C   LIG d   1     -19.210  79.429 120.004  0.00  0.00     0.161 C 
ATOM      2  C   LIG d   1     -20.051  80.159 119.148  0.00  0.00     0.016 C 
ATOM      3  C   LIG d   1     -20.296  81.544 119.294  0.00  0.00     0.038 C 
ATOM      4  C   LIG d   1     -19.594  82.328 120.221  0.00  0.00     0.028 C 
ATOM      5  C   LIG d   1     -19.112  81.543 121.436  0.00  0.00    -0.047 C 
ATOM      6  C   LIG d   1     -18.349  80.288 120.952  0.00  0.00     0.091 C 
ENDROOT
BRANCH   1   7
ATOM      7  O   LIG d   1     -18.374  78.545 119.230  0.00  0.00    -0.368 OA
BRANCH   7   8
ATOM      8  C   LIG d   1     -18.701  77.136 119.298  0.00  0.00     0.119 C 
BRANCH   8   9
ATOM      9  C   LIG d   1     -19.948  76.993 120.193  0.00  0.00     0.028 C 
ATOM     10  C   LIG d   1     -21.206  76.619 119.392  0.00  0.00     0.006 C 
ENDBRANCH   8   9
BRANCH   8  11
ATOM     11  C   LIG d   1     -17.600  76.341 120.007  0.00  0.00     0.028 C 
ATOM     12  C   LIG d   1     -17.553  74.869 119.571  0.00  0.00     0.006 C 
ENDBRANCH   8  11
ENDBRANCH   7   8
ENDBRANCH   1   7
BRANCH   6  13
ATOM     13  N   LIG d   1     -17.915  79.420 122.078  0.00  0.00    -0.311 N 
ATOM     14  C   LIG d   1     -16.697  79.469 122.615  0.00  0.00     0.210 C 
ATOM     15  C   LIG d   1     -16.452  78.472 123.752  0.00  0.00     0.109 C 
ATOM     16  O   LIG d   1     -15.807  80.264 122.278  0.00  0.00    -0.276 OA
ATOM     17  H   LIG d   1     -18.585  78.766 122.433  0.00  0.00     0.149 HD
ENDBRANCH   6  13
BRANCH   5  18
ATOM     18  N   LIG d   1     -18.279  82.448 122.250  0.00  0.00     0.381 N 
ATOM     19  H   LIG d   1     -18.752  82.667 123.104  0.00  0.00    -0.090 HD
ATOM     20  H   LIG d   1     -18.135  83.302 121.741  0.00  0.00    -0.090 HD
ATOM     21  H   LIG d   1     -17.402  82.019 122.448  0.00  0.00    -0.090 HD
ENDBRANCH   5  18
BRANCH   3  22
ATOM     22  C   LIG d   1     -21.284  82.151 118.532  0.00  0.00     0.382 C 
ATOM     23  O   LIG d   1     -20.981  82.736 117.465  0.00  0.00    -0.241 OA
ATOM     24  O   LIG d   1     -22.467  82.158 118.922  0.00  0.00    -0.241 OA
ENDBRANCH   3  22
TORSDOF 7
ENDMDL
MODEL 6
REMARK VINA RESULT:      -4.3      2.371      3.343
REMARK  7 active torsions:
REMARK  status: ('A' for Active; 'I' for Inactive)
REMARK    1  A    between atoms: C_2  and  C_3 
REMARK    2  A    between atoms: C_3  and  O_6 
REMARK    3  A    between atoms: C_3  and  C_4 
REMARK    4  A    between atoms: C_7  and  O_6 
REMARK    5  A    between atoms: C_9  and  C_10 
REMARK    6  A    between atoms: N_15  and  C_14 
REMARK    7  A    between atoms: N_20  and  C_19 
REMARK       I    between atoms: C_22  and  N_20 
ROOT
ATOM      1  C   LIG d   1      -8.408  82.677 118.791  0.00  0.00     0.161 C 
ATOM      2  C   LIG d   1      -8.920  83.854 119.363  0.00  0.00     0.016 C 
ATOM      3  C   LIG d   1      -9.951  83.864 120.331  0.00  0.00     0.038 C 
ATOM      4  C   LIG d   1     -10.439  82.682 120.906  0.00  0.00     0.028 C 
ATOM      5  C   LIG d   1     -10.308  81.466 119.995  0.00  0.00    -0.047 C 
ATOM      6  C   LIG d   1      -8.851  81.374 119.487  0.00  0.00     0.091 C 
ENDROOT
BRANCH   1   7
ATOM      7  O   LIG d   1      -6.970  82.749 118.729  0.00  0.00    -0.368 OA
BRANCH   7   8
ATOM      8  C   LIG d   1      -6.259  82.314 119.914  0.00  0.00     0.119 C 
BRANCH   8   9
ATOM      9  C   LIG d   1      -5.452  83.518 120.438  0.00  0.00     0.028 C 
ATOM     10  C   LIG d   1      -6.139  84.212 121.627  0.00  0.00     0.006 C 
ENDBRANCH   8   9
BRANCH   8  11
ATOM     11  C   LIG d   1      -5.217  81.243 119.578  0.00  0.00     0.028 C 
ATOM     12  C   LIG d   1      -3.865  81.490 120.266  0.00  0.00     0.006 C 
ENDBRANCH   8  11
ENDBRANCH   7   8
ENDBRANCH   1   7
BRANCH   6  13
ATOM     13  N   LIG d   1      -8.656  80.260 118.523  0.00  0.00    -0.311 N 
ATOM     14  C   LIG d   1      -8.218  79.053 118.876  0.00  0.00     0.210 C 
ATOM     15  C   LIG d   1      -8.069  78.056 117.722  0.00  0.00     0.109 C 
ATOM     16  O   LIG d   1      -7.969  78.703 120.039  0.00  0.00    -0.276 OA
ATOM     17  H   LIG d   1      -8.865  80.447 117.561  0.00  0.00     0.149 HD
ENDBRANCH   6  13
BRANCH   5  18
ATOM     18  N   LIG d   1     -10.726  80.282 120.770  0.00  0.00     0.381 N 
ATOM     19  H   LIG d   1     -11.578  80.479 121.256  0.00  0.00    -0.090 HD
ATOM     20  H   LIG d   1     -10.017  80.071 121.449  0.00  0.00    -0.090 HD
ATOM     21  H   LIG d   1     -10.855  79.504 120.161  0.00  0.00    -0.090 HD
ENDBRANCH   5  18
BRANCH   3  22
ATOM     22  C   LIG d   1     -10.532  85.067 120.703  0.00  0.00     0.382 C 
ATOM     23  O   LIG d   1      -9.809  86.058 120.965  0.00  0.00    -0.241 OA
ATOM     24  O   LIG d   1     -11.768  85.160 120.823  0.00  0.00    -0.241 OA
ENDBRANCH   3  22
TORSDOF 7
ENDMDL
MODEL 7
REMARK VINA RESULT:      -4.2     11.499     13.853
REMARK  7 active torsions:
REMARK  status: ('A' for Active; 'I' for Inactive)
REMARK    1  A    between atoms: C_2  and  C_3 
REMARK    2  A    between atoms: C_3  and  O_6 
REMARK    3  A    between atoms: C_3  and  C_4 
REMARK    4  A    between atoms: C_7  and  O_6 
REMARK    5  A    between atoms: C_9  and  C_10 
REMARK    6  A    between atoms: N_15  and  C_14 
REMARK    7  A    between atoms: N_20  and  C_19 
REMARK       I    between atoms: C_22  and  N_20 
ROOT
ATOM      1  C   LIG d   1      -5.350  94.054 119.468  0.00  0.00     0.161 C 
ATOM      2  C   LIG d   1      -4.125  93.549 119.003  0.00  0.00     0.016 C 
ATOM      3  C   LIG d   1      -4.022  92.549 118.009  0.00  0.00     0.038 C 
ATOM      4  C   LIG d   1      -5.142  92.091 117.300  0.00  0.00     0.028 C 
ATOM      5  C   LIG d   1      -6.444  92.205 118.085  0.00  0.00    -0.047 C 
ATOM      6  C   LIG d   1      -6.578  93.646 118.627  0.00  0.00     0.091 C 
ENDROOT
BRANCH   1   7
ATOM      7  O   LIG d   1      -5.276  95.489 119.582  0.00  0.00    -0.368 OA
BRANCH   7   8
ATOM      8  C   LIG d   1      -4.764  96.003 120.836  0.00  0.00     0.119 C 
BRANCH   8   9
ATOM      9  C   LIG d   1      -5.883  96.841 121.485  0.00  0.00     0.028 C 
ATOM     10  C   LIG d   1      -6.966  97.254 120.475  0.00  0.00     0.006 C 
ENDBRANCH   8   9
BRANCH   8  11
ATOM     11  C   LIG d   1      -3.606  96.979 120.607  0.00  0.00     0.028 C 
ATOM     12  C   LIG d   1      -3.401  97.322 119.123  0.00  0.00     0.006 C 
ENDBRANCH   8  11
ENDBRANCH   7   8
ENDBRANCH   1   7
BRANCH   6  13
ATOM     13  N   LIG d   1      -7.784  93.821 119.478  0.00  0.00    -0.311 N 
ATOM     14  C   LIG d   1      -8.948  94.274 119.016  0.00  0.00     0.210 C 
ATOM     15  C   LIG d   1     -10.057  94.398 120.066  0.00  0.00     0.109 C 
ATOM     16  O   LIG d   1      -9.178  94.554 117.830  0.00  0.00    -0.276 OA
ATOM     17  H   LIG d   1      -7.696  93.588 120.448  0.00  0.00     0.149 HD
ENDBRANCH   6  13
BRANCH   5  18
ATOM     18  N   LIG d   1      -7.545  91.823 117.180  0.00  0.00     0.381 N 
ATOM     19  H   LIG d   1      -7.265  91.959 116.229  0.00  0.00    -0.090 HD
ATOM     20  H   LIG d   1      -8.337  92.414 117.364  0.00  0.00    -0.090 HD
ATOM     21  H   LIG d   1      -7.792  90.869 117.328  0.00  0.00    -0.090 HD
ENDBRANCH   5  18
BRANCH   3  22
ATOM     22  C   LIG d   1      -2.791  91.968 117.743  0.00  0.00     0.382 C 
ATOM     23  O   LIG d   1      -1.740  92.642 117.864  0.00  0.00    -0.241 OA
ATOM     24  O   LIG d   1      -2.722  90.791 117.342  0.00  0.00    -0.241 OA
ENDBRANCH   3  22
TORSDOF 7
ENDMDL
MODEL 8
REMARK VINA RESULT:      -4.2      8.523      9.843
REMARK  7 active torsions:
REMARK  status: ('A' for Active; 'I' for Inactive)
REMARK    1  A    between atoms: C_2  and  C_3 
REMARK    2  A    between atoms: C_3  and  O_6 
REMARK    3  A    between atoms: C_3  and  C_4 
REMARK    4  A    between atoms: C_7  and  O_6 
REMARK    5  A    between atoms: C_9  and  C_10 
REMARK    6  A    between atoms: N_15  and  C_14 
REMARK    7  A    between atoms: N_20  and  C_19 
REMARK       I    between atoms: C_22  and  N_20 
ROOT
ATOM      1  C   LIG d   1     -19.103  79.083 121.806  0.00  0.00     0.161 C 
ATOM      2  C   LIG d   1     -19.598  80.094 120.966  0.00  0.00     0.016 C 
ATOM      3  C   LIG d   1     -18.843  81.227 120.585  0.00  0.00     0.038 C 
ATOM      4  C   LIG d   1     -17.481  81.351 120.898  0.00  0.00     0.028 C 
ATOM      5  C   LIG d   1     -17.080  80.603 122.165  0.00  0.00    -0.047 C 
ATOM      6  C   LIG d   1     -17.583  79.144 122.067  0.00  0.00     0.091 C 
ENDROOT
BRANCH   1   7
ATOM      7  O   LIG d   1     -19.469  77.791 121.283  0.00  0.00    -0.368 OA
BRANCH   7   8
ATOM      8  C   LIG d   1     -19.492  77.670 119.840  0.00  0.00     0.119 C 
BRANCH   8   9
ATOM      9  C   LIG d   1     -20.719  76.817 119.465  0.00  0.00     0.028 C 
ATOM     10  C   LIG d   1     -22.033  77.413 119.996  0.00  0.00     0.006 C 
ENDBRANCH   8   9
BRANCH   8  11
ATOM     11  C   LIG d   1     -18.281  76.886 119.327  0.00  0.00     0.028 C 
ATOM     12  C   LIG d   1     -18.136  75.510 119.995  0.00  0.00     0.006 C 
ENDBRANCH   8  11
ENDBRANCH   7   8
ENDBRANCH   1   7
BRANCH   6  13
ATOM     13  N   LIG d   1     -17.307  78.365 123.302  0.00  0.00    -0.311 N 
ATOM     14  C   LIG d   1     -16.486  77.317 123.340  0.00  0.00     0.210 C 
ATOM     15  C   LIG d   1     -16.359  76.644 124.710  0.00  0.00     0.109 C 
ATOM     16  O   LIG d   1     -15.828  76.900 122.375  0.00  0.00    -0.276 OA
ATOM     17  H   LIG d   1     -17.776  78.654 124.138  0.00  0.00     0.149 HD
ENDBRANCH   6  13
BRANCH   5  18
ATOM     18  N   LIG d   1     -15.615  80.701 122.297  0.00  0.00     0.381 N 
ATOM     19  H   LIG d   1     -15.318  81.635 122.092  0.00  0.00    -0.090 HD
ATOM     20  H   LIG d   1     -15.186  80.081 121.632  0.00  0.00    -0.090 HD
ATOM     21  H   LIG d   1     -15.337  80.452 123.221  0.00  0.00    -0.090 HD
ENDBRANCH   5  18
BRANCH   3  22
ATOM     22  C   LIG d   1     -19.462  82.272 119.916  0.00  0.00     0.382 C 
ATOM     23  O   LIG d   1     -19.889  83.262 120.557  0.00  0.00    -0.241 OA
ATOM     24  O   LIG d   1     -19.638  82.216 118.684  0.00  0.00    -0.241 OA
ENDBRANCH   3  22
TORSDOF 7
ENDMDL
MODEL 9
REMARK VINA RESULT:      -4.0     13.610     16.208
REMARK  7 active torsions:
REMARK  status: ('A' for Active; 'I' for Inactive)
REMARK    1  A    between atoms: C_2  and  C_3 
REMARK    2  A    between atoms: C_3  and  O_6 
REMARK    3  A    between atoms: C_3  and  C_4 
REMARK    4  A    between atoms: C_7  and  O_6 
REMARK    5  A    between atoms: C_9  and  C_10 
REMARK    6  A    between atoms: N_15  and  C_14 
REMARK    7  A    between atoms: N_20  and  C_19 
REMARK       I    between atoms: C_22  and  N_20 
ROOT
ATOM      1  C   LIG d   1     -12.752  66.756 122.329  0.00  0.00     0.161 C 
ATOM      2  C   LIG d   1     -11.710  66.600 123.258  0.00  0.00     0.016 C 
ATOM      3  C   LIG d   1     -10.711  65.605 123.148  0.00  0.00     0.038 C 
ATOM      4  C   LIG d   1     -10.600  64.790 122.011  0.00  0.00     0.028 C 
ATOM      5  C   LIG d   1     -11.925  64.574 121.288  0.00  0.00    -0.047 C 
ATOM      6  C   LIG d   1     -12.583  65.948 121.026  0.00  0.00     0.091 C 
ENDROOT
BRANCH   1   7
ATOM      7  O   LIG d   1     -12.936  68.154 122.032  0.00  0.00    -0.368 OA
BRANCH   7   8
ATOM      8  C   LIG d   1     -13.528  68.957 123.083  0.00  0.00     0.119 C 
BRANCH   8   9
ATOM      9  C   LIG d   1     -14.940  69.361 122.617  0.00  0.00     0.028 C 
ATOM     10  C   LIG d   1     -16.046  68.588 123.357  0.00  0.00     0.006 C 
ENDBRANCH   8   9
BRANCH   8  11
ATOM     11  C   LIG d   1     -12.771  70.275 123.271  0.00  0.00     0.028 C 
ATOM     12  C   LIG d   1     -12.036  70.353 124.618  0.00  0.00     0.006 C 
ENDBRANCH   8  11
ENDBRANCH   7   8
ENDBRANCH   1   7
BRANCH   6  13
ATOM     13  N   LIG d   1     -13.923  65.824 120.396  0.00  0.00    -0.311 N 
ATOM     14  C   LIG d   1     -14.287  66.498 119.307  0.00  0.00     0.210 C 
ATOM     15  C   LIG d   1     -15.721  66.238 118.834  0.00  0.00     0.109 C 
ATOM     16  O   LIG d   1     -13.549  67.263 118.669  0.00  0.00    -0.276 OA
ATOM     17  H   LIG d   1     -14.575  65.201 120.831  0.00  0.00     0.149 HD
ENDBRANCH   6  13
BRANCH   5  18
ATOM     18  N   LIG d   1     -11.640  63.824 120.050  0.00  0.00     0.381 N 
ATOM     19  H   LIG d   1     -10.928  64.293 119.526  0.00  0.00    -0.090 HD
ATOM     20  H   LIG d   1     -12.474  63.791 119.491  0.00  0.00    -0.090 HD
ATOM     21  H   LIG d   1     -11.344  62.899 120.273  0.00  0.00    -0.090 HD
ENDBRANCH   5  18
BRANCH   3  22
ATOM     22  C   LIG d   1      -9.834  65.392 124.200  0.00  0.00     0.382 C 
ATOM     23  O   LIG d   1      -8.856  66.160 124.367  0.00  0.00    -0.241 OA
ATOM     24  O   LIG d   1      -9.983  64.415 124.958  0.00  0.00    -0.241 OA
ENDBRANCH   3  22
TORSDOF 7
ENDMDL
