MODEL 1
REMARK VINA RESULT:      -4.9      0.000      0.000
REMARK  7 active torsions:
REMARK  status: ('A' for Active; 'I' for Inactive)
REMARK    1  A    between atoms: C_2  and  C_3 
REMARK    2  A    between atoms: C_3  and  O_6 
REMARK    3  A    between atoms: C_3  and  C_4 
REMARK    4  A    between atoms: C_7  and  O_6 
REMARK    5  A    between atoms: C_9  and  C_10 
REMARK    6  A    between atoms: N_15  and  C_14 
REMARK    7  A    between atoms: N_20  and  C_19 
REMARK       I    between atoms: C_22  and  N_20 
ROOT
ATOM      1  C   LIG d   1     -10.502  76.936 119.263  0.00  0.00     0.161 C 
ATOM      2  C   LIG d   1      -9.650  77.697 118.446  0.00  0.00     0.016 C 
ATOM      3  C   LIG d   1      -9.388  79.070 118.660  0.00  0.00     0.038 C 
ATOM      4  C   LIG d   1      -9.846  79.742 119.803  0.00  0.00     0.028 C 
ATOM      5  C   LIG d   1     -11.122  79.146 120.387  0.00  0.00    -0.047 C 
ATOM      6  C   LIG d   1     -10.922  77.625 120.578  0.00  0.00     0.091 C 
ENDROOT
BRANCH   1   7
ATOM      7  O   LIG d   1      -9.900  75.655 119.538  0.00  0.00    -0.368 OA
BRANCH   7   8
ATOM      8  C   LIG d   1      -9.009  75.138 118.520  0.00  0.00     0.119 C 
BRANCH   8   9
ATOM      9  C   LIG d   1      -9.689  73.907 117.890  0.00  0.00     0.028 C 
ATOM     10  C   LIG d   1      -9.524  72.642 118.749  0.00  0.00     0.006 C 
ENDBRANCH   8   9
BRANCH   8  11
ATOM     11  C   LIG d   1      -7.707  74.613 119.133  0.00  0.00     0.028 C 
ATOM     12  C   LIG d   1      -7.171  75.516 120.256  0.00  0.00     0.006 C 
ENDBRANCH   8  11
ENDBRANCH   7   8
ENDBRANCH   1   7
BRANCH   6  13
ATOM     13  N   LIG d   1     -12.153  76.949 121.067  0.00  0.00    -0.311 N 
ATOM     14  C   LIG d   1     -12.401  76.720 122.355  0.00  0.00     0.210 C 
ATOM     15  C   LIG d   1     -13.718  75.991 122.640  0.00  0.00     0.109 C 
ATOM     16  O   LIG d   1     -11.670  77.079 123.291  0.00  0.00    -0.276 OA
ATOM     17  H   LIG d   1     -12.815  76.652 120.377  0.00  0.00     0.149 HD
ENDBRANCH   6  13
BRANCH   5  18
ATOM     18  N   LIG d   1     -11.409  79.854 121.648  0.00  0.00     0.381 N 
ATOM     19  H   LIG d   1     -10.566  80.251 122.013  0.00  0.00    -0.090 HD
ATOM     20  H   LIG d   1     -11.763  79.195 122.318  0.00  0.00    -0.090 HD
ATOM     21  H   LIG d   1     -12.082  80.572 121.490  0.00  0.00    -0.090 HD
ENDBRANCH   5  18
BRANCH   3  22
ATOM     22  C   LIG d   1      -8.693  79.794 117.704  0.00  0.00     0.382 C 
ATOM     23  O   LIG d   1      -7.659  79.313 117.181  0.00  0.00    -0.241 OA
ATOM     24  O   LIG d   1      -9.062  80.942 117.388  0.00  0.00    -0.241 OA
ENDBRANCH   3  22
TORSDOF 7
ENDMDL
MODEL 2
REMARK VINA RESULT:      -4.6      2.097      4.624
REMARK  7 active torsions:
REMARK  status: ('A' for Active; 'I' for Inactive)
REMARK    1  A    between atoms: C_2  and  C_3 
REMARK    2  A    between atoms: C_3  and  O_6 
REMARK    3  A    between atoms: C_3  and  C_4 
REMARK    4  A    between atoms: C_7  and  O_6 
REMARK    5  A    between atoms: C_9  and  C_10 
REMARK    6  A    between atoms: N_15  and  C_14 
REMARK    7  A    between atoms: N_20  and  C_19 
REMARK       I    between atoms: C_22  and  N_20 
ROOT
ATOM      1  C   LIG d   1     -10.278  78.182 119.313  0.00  0.00     0.161 C 
ATOM      2  C   LIG d   1     -10.912  77.629 120.438  0.00  0.00     0.016 C 
ATOM      3  C   LIG d   1     -11.450  78.406 121.490  0.00  0.00     0.038 C 
ATOM      4  C   LIG d   1     -11.525  79.804 121.415  0.00  0.00     0.028 C 
ATOM      5  C   LIG d   1     -10.447  80.423 120.531  0.00  0.00    -0.047 C 
ATOM      6  C   LIG d   1     -10.450  79.708 119.160  0.00  0.00     0.091 C 
ENDROOT
BRANCH   1   7
ATOM      7  O   LIG d   1     -10.722  77.506 118.121  0.00  0.00    -0.368 OA
BRANCH   7   8
ATOM      8  C   LIG d   1      -9.772  76.597 117.512  0.00  0.00     0.119 C 
BRANCH   8   9
ATOM      9  C   LIG d   1     -10.384  75.184 117.567  0.00  0.00     0.028 C 
ATOM     10  C   LIG d   1      -9.942  74.400 118.814  0.00  0.00     0.006 C 
ENDBRANCH   8   9
BRANCH   8  11
ATOM     11  C   LIG d   1      -8.481  76.511 118.331  0.00  0.00     0.028 C 
ATOM     12  C   LIG d   1      -7.225  76.801 117.494  0.00  0.00     0.006 C 
ENDBRANCH   8  11
ENDBRANCH   7   8
ENDBRANCH   1   7
BRANCH   6  13
ATOM     13  N   LIG d   1      -9.369  80.195 118.265  0.00  0.00    -0.311 N 
ATOM     14  C   LIG d   1      -8.088  80.254 118.626  0.00  0.00     0.210 C 
ATOM     15  C   LIG d   1      -7.140  80.806 117.558  0.00  0.00     0.109 C 
ATOM     16  O   LIG d   1      -7.644  79.871 119.719  0.00  0.00    -0.276 OA
ATOM     17  H   LIG d   1      -9.637  80.496 117.348  0.00  0.00     0.149 HD
ENDBRANCH   6  13
BRANCH   5  18
ATOM     18  N   LIG d   1     -10.726  81.867 120.431  0.00  0.00     0.381 N 
ATOM     19  H   LIG d   1     -11.556  82.088 120.944  0.00  0.00    -0.090 HD
ATOM     20  H   LIG d   1     -10.880  82.103 119.467  0.00  0.00    -0.090 HD
ATOM     21  H   LIG d   1      -9.957  82.389 120.790  0.00  0.00    -0.090 HD
ENDBRANCH   5  18
BRANCH   3  22
ATOM     22  C   LIG d   1     -11.883  77.784 122.651  0.00  0.00     0.382 C 
ATOM     23  O   LIG d   1     -13.103  77.789 122.947  0.00  0.00    -0.241 OA
ATOM     24  O   LIG d   1     -11.065  77.258 123.429  0.00  0.00    -0.241 OA
ENDBRANCH   3  22
TORSDOF 7
ENDMDL
MODEL 3
REMARK VINA RESULT:      -4.5      2.879      5.611
REMARK  7 active torsions:
REMARK  status: ('A' for Active; 'I' for Inactive)
REMARK    1  A    between atoms: C_2  and  C_3 
REMARK    2  A    between atoms: C_3  and  O_6 
REMARK    3  A    between atoms: C_3  and  C_4 
REMARK    4  A    between atoms: C_7  and  O_6 
REMARK    5  A    between atoms: C_9  and  C_10 
REMARK    6  A    between atoms: N_15  and  C_14 
REMARK    7  A    between atoms: N_20  and  C_19 
REMARK       I    between atoms: C_22  and  N_20 
ROOT
ATOM      1  C   LIG d   1      -7.879  79.272 118.286  0.00  0.00     0.161 C 
ATOM      2  C   LIG d   1      -8.503  78.091 117.851  0.00  0.00     0.016 C 
ATOM      3  C   LIG d   1      -9.813  77.719 118.231  0.00  0.00     0.038 C 
ATOM      4  C   LIG d   1     -10.650  78.582 118.954  0.00  0.00     0.028 C 
ATOM      5  C   LIG d   1      -9.888  79.563 119.838  0.00  0.00    -0.047 C 
ATOM      6  C   LIG d   1      -8.816  80.279 118.985  0.00  0.00     0.091 C 
ENDROOT
BRANCH   1   7
ATOM      7  O   LIG d   1      -7.202  79.902 117.180  0.00  0.00    -0.368 OA
BRANCH   7   8
ATOM      8  C   LIG d   1      -5.754  79.865 117.215  0.00  0.00     0.119 C 
BRANCH   8   9
ATOM      9  C   LIG d   1      -5.342  79.002 118.423  0.00  0.00     0.028 C 
ATOM     10  C   LIG d   1      -4.591  77.727 118.005  0.00  0.00     0.006 C 
ENDBRANCH   8   9
BRANCH   8  11
ATOM     11  C   LIG d   1      -5.167  81.253 117.488  0.00  0.00     0.028 C 
ATOM     12  C   LIG d   1      -4.358  81.311 118.794  0.00  0.00     0.006 C 
ENDBRANCH   8  11
ENDBRANCH   7   8
ENDBRANCH   1   7
BRANCH   6  13
ATOM     13  N   LIG d   1      -7.969  81.196 119.792  0.00  0.00    -0.311 N 
ATOM     14  C   LIG d   1      -7.982  82.521 119.652  0.00  0.00     0.210 C 
ATOM     15  C   LIG d   1      -7.017  83.278 120.569  0.00  0.00     0.109 C 
ATOM     16  O   LIG d   1      -8.726  83.142 118.877  0.00  0.00    -0.276 OA
ATOM     17  H   LIG d   1      -7.358  80.778 120.466  0.00  0.00     0.149 HD
ENDBRANCH   6  13
BRANCH   5  18
ATOM     18  N   LIG d   1     -10.872  80.490 120.427  0.00  0.00     0.381 N 
ATOM     19  H   LIG d   1     -11.069  80.221 121.370  0.00  0.00    -0.090 HD
ATOM     20  H   LIG d   1     -11.726  80.436 119.899  0.00  0.00    -0.090 HD
ATOM     21  H   LIG d   1     -10.519  81.421 120.406  0.00  0.00    -0.090 HD
ENDBRANCH   5  18
BRANCH   3  22
ATOM     22  C   LIG d   1     -10.285  76.452 117.919  0.00  0.00     0.382 C 
ATOM     23  O   LIG d   1     -11.518  76.220 117.939  0.00  0.00    -0.241 OA
ATOM     24  O   LIG d   1      -9.491  75.528 117.662  0.00  0.00    -0.241 OA
ENDBRANCH   3  22
TORSDOF 7
ENDMDL
MODEL 4
REMARK VINA RESULT:      -4.5      3.302      4.819
REMARK  7 active torsions:
REMARK  status: ('A' for Active; 'I' for Inactive)
REMARK    1  A    between atoms: C_2  and  C_3 
REMARK    2  A    between atoms: C_3  and  O_6 
REMARK    3  A    between atoms: C_3  and  C_4 
REMARK    4  A    between atoms: C_7  and  O_6 
REMARK    5  A    between atoms: C_9  and  C_10 
REMARK    6  A    between atoms: N_15  and  C_14 
REMARK    7  A    between atoms: N_20  and  C_19 
REMARK       I    between atoms: C_22  and  N_20 
ROOT
ATOM      1  C   LIG d   1      -6.957  76.099 117.520  0.00  0.00     0.161 C 
ATOM      2  C   LIG d   1      -5.643  75.630 117.356  0.00  0.00     0.016 C 
ATOM      3  C   LIG d   1      -4.599  75.904 118.269  0.00  0.00     0.038 C 
ATOM      4  C   LIG d   1      -4.835  76.544 119.495  0.00  0.00     0.028 C 
ATOM      5  C   LIG d   1      -6.042  77.475 119.469  0.00  0.00    -0.047 C 
ATOM      6  C   LIG d   1      -7.258  76.705 118.907  0.00  0.00     0.091 C 
ENDROOT
BRANCH   1   7
ATOM      7  O   LIG d   1      -7.893  75.046 117.219  0.00  0.00    -0.368 OA
BRANCH   7   8
ATOM      8  C   LIG d   1      -8.428  74.325 118.356  0.00  0.00     0.119 C 
BRANCH   8   9
ATOM      9  C   LIG d   1      -7.926  72.871 118.260  0.00  0.00     0.028 C 
ATOM     10  C   LIG d   1      -9.072  71.848 118.338  0.00  0.00     0.006 C 
ENDBRANCH   8   9
BRANCH   8  11
ATOM     11  C   LIG d   1      -9.955  74.232 118.288  0.00  0.00     0.028 C 
ATOM     12  C   LIG d   1     -10.557  75.110 117.180  0.00  0.00     0.006 C 
ENDBRANCH   8  11
ENDBRANCH   7   8
ENDBRANCH   1   7
BRANCH   6  13
ATOM     13  N   LIG d   1      -8.461  77.567 118.769  0.00  0.00    -0.311 N 
ATOM     14  C   LIG d   1      -9.418  77.643 119.692  0.00  0.00     0.210 C 
ATOM     15  C   LIG d   1     -10.581  78.577 119.343  0.00  0.00     0.109 C 
ATOM     16  O   LIG d   1      -9.399  77.050 120.782  0.00  0.00    -0.276 OA
ATOM     17  H   LIG d   1      -8.542  78.107 117.930  0.00  0.00     0.149 HD
ENDBRANCH   6  13
BRANCH   5  18
ATOM     18  N   LIG d   1      -6.254  77.968 120.844  0.00  0.00     0.381 N 
ATOM     19  H   LIG d   1      -7.227  78.145 120.993  0.00  0.00    -0.090 HD
ATOM     20  H   LIG d   1      -5.755  78.832 120.960  0.00  0.00    -0.090 HD
ATOM     21  H   LIG d   1      -5.926  77.295 121.501  0.00  0.00    -0.090 HD
ENDBRANCH   5  18
BRANCH   3  22
ATOM     22  C   LIG d   1      -3.293  75.571 117.940  0.00  0.00     0.382 C 
ATOM     23  O   LIG d   1      -2.373  76.409 118.102  0.00  0.00    -0.241 OA
ATOM     24  O   LIG d   1      -3.031  74.460 117.443  0.00  0.00    -0.241 OA
ENDBRANCH   3  22
TORSDOF 7
ENDMDL
MODEL 5
REMARK VINA RESULT:      -4.5     15.356     18.210
REMARK  7 active torsions:
REMARK  status: ('A' for Active; 'I' for Inactive)
REMARK    1  A    between atoms: C_2  and  C_3 
REMARK    2  A    between atoms: C_3  and  O_6 
REMARK    3  A    between atoms: C_3  and  C_4 
REMARK    4  A    between atoms: C_7  and  O_6 
REMARK    5  A    between atoms: C_9  and  C_10 
REMARK    6  A    between atoms: N_15  and  C_14 
REMARK    7  A    between atoms: N_20  and  C_19 
REMARK       I    between atoms: C_22  and  N_20 
ROOT
ATOM      1  C   LIG d   1      -2.708  92.937 120.158  0.00  0.00     0.161 C 
ATOM      2  C   LIG d   1      -2.177  91.867 119.418  0.00  0.00     0.016 C 
ATOM      3  C   LIG d   1      -2.849  91.266 118.328  0.00  0.00     0.038 C 
ATOM      4  C   LIG d   1      -4.038  91.797 117.806  0.00  0.00     0.028 C 
ATOM      5  C   LIG d   1      -4.862  92.564 118.835  0.00  0.00    -0.047 C 
ATOM      6  C   LIG d   1      -3.953  93.601 119.533  0.00  0.00     0.091 C 
ENDROOT
BRANCH   1   7
ATOM      7  O   LIG d   1      -1.682  93.921 120.397  0.00  0.00    -0.368 OA
BRANCH   7   8
ATOM      8  C   LIG d   1      -0.884  94.302 119.250  0.00  0.00     0.119 C 
BRANCH   8   9
ATOM      9  C   LIG d   1       0.595  94.260 119.681  0.00  0.00     0.028 C 
ATOM     10  C   LIG d   1       1.455  93.396 118.743  0.00  0.00     0.006 C 
ENDBRANCH   8   9
BRANCH   8  11
ATOM     11  C   LIG d   1      -1.147  95.756 118.846  0.00  0.00     0.028 C 
ATOM     12  C   LIG d   1      -1.688  96.608 120.005  0.00  0.00     0.006 C 
ENDBRANCH   8  11
ENDBRANCH   7   8
ENDBRANCH   1   7
BRANCH   6  13
ATOM     13  N   LIG d   1      -4.659  94.338 120.613  0.00  0.00    -0.311 N 
ATOM     14  C   LIG d   1      -5.237  95.524 120.434  0.00  0.00     0.210 C 
ATOM     15  C   LIG d   1      -5.894  96.119 121.684  0.00  0.00     0.109 C 
ATOM     16  O   LIG d   1      -5.297  96.126 119.352  0.00  0.00    -0.276 OA
ATOM     17  H   LIG d   1      -4.686  93.907 121.517  0.00  0.00     0.149 HD
ENDBRANCH   6  13
BRANCH   5  18
ATOM     18  N   LIG d   1      -6.000  93.178 118.125  0.00  0.00     0.381 N 
ATOM     19  H   LIG d   1      -6.704  92.488 117.953  0.00  0.00    -0.090 HD
ATOM     20  H   LIG d   1      -5.680  93.530 117.240  0.00  0.00    -0.090 HD
ATOM     21  H   LIG d   1      -6.380  93.921 118.669  0.00  0.00    -0.090 HD
ENDBRANCH   5  18
BRANCH   3  22
ATOM     22  C   LIG d   1      -2.351  90.096 117.775  0.00  0.00     0.382 C 
ATOM     23  O   LIG d   1      -3.130  89.154 117.495  0.00  0.00    -0.241 OA
ATOM     24  O   LIG d   1      -1.126  89.955 117.593  0.00  0.00    -0.241 OA
ENDBRANCH   3  22
TORSDOF 7
ENDMDL
MODEL 6
REMARK VINA RESULT:      -4.4      2.325      4.039
REMARK  7 active torsions:
REMARK  status: ('A' for Active; 'I' for Inactive)
REMARK    1  A    between atoms: C_2  and  C_3 
REMARK    2  A    between atoms: C_3  and  O_6 
REMARK    3  A    between atoms: C_3  and  C_4 
REMARK    4  A    between atoms: C_7  and  O_6 
REMARK    5  A    between atoms: C_9  and  C_10 
REMARK    6  A    between atoms: N_15  and  C_14 
REMARK    7  A    between atoms: N_20  and  C_19 
REMARK       I    between atoms: C_22  and  N_20 
ROOT
ATOM      1  C   LIG d   1      -8.311  78.220 117.605  0.00  0.00     0.161 C 
ATOM      2  C   LIG d   1      -8.345  79.601 117.864  0.00  0.00     0.016 C 
ATOM      3  C   LIG d   1      -9.316  80.215 118.687  0.00  0.00     0.038 C 
ATOM      4  C   LIG d   1     -10.236  79.465 119.434  0.00  0.00     0.028 C 
ATOM      5  C   LIG d   1     -10.561  78.111 118.812  0.00  0.00    -0.047 C 
ATOM      6  C   LIG d   1      -9.239  77.372 118.500  0.00  0.00     0.091 C 
ENDROOT
BRANCH   1   7
ATOM      7  O   LIG d   1      -6.955  77.740 117.692  0.00  0.00    -0.368 OA
BRANCH   7   8
ATOM      8  C   LIG d   1      -6.475  77.424 119.022  0.00  0.00     0.119 C 
BRANCH   8   9
ATOM      9  C   LIG d   1      -5.312  78.386 119.334  0.00  0.00     0.028 C 
ATOM     10  C   LIG d   1      -4.583  78.857 118.064  0.00  0.00     0.006 C 
ENDBRANCH   8   9
BRANCH   8  11
ATOM     11  C   LIG d   1      -5.866  76.020 119.076  0.00  0.00     0.028 C 
ATOM     12  C   LIG d   1      -5.863  75.319 117.709  0.00  0.00     0.006 C 
ENDBRANCH   8  11
ENDBRANCH   7   8
ENDBRANCH   1   7
BRANCH   6  13
ATOM     13  N   LIG d   1      -9.464  76.074 117.812  0.00  0.00    -0.311 N 
ATOM     14  C   LIG d   1      -9.495  74.904 118.446  0.00  0.00     0.210 C 
ATOM     15  C   LIG d   1      -9.720  73.685 117.546  0.00  0.00     0.109 C 
ATOM     16  O   LIG d   1      -9.390  74.762 119.674  0.00  0.00    -0.276 OA
ATOM     17  H   LIG d   1      -9.590  76.100 116.819  0.00  0.00     0.149 HD
ENDBRANCH   6  13
BRANCH   5  18
ATOM     18  N   LIG d   1     -11.422  77.379 119.760  0.00  0.00     0.381 N 
ATOM     19  H   LIG d   1     -12.061  78.014 120.196  0.00  0.00    -0.090 HD
ATOM     20  H   LIG d   1     -10.845  76.971 120.475  0.00  0.00    -0.090 HD
ATOM     21  H   LIG d   1     -11.926  76.666 119.282  0.00  0.00    -0.090 HD
ENDBRANCH   5  18
BRANCH   3  22
ATOM     22  C   LIG d   1      -9.399  81.598 118.737  0.00  0.00     0.382 C 
ATOM     23  O   LIG d   1      -9.607  82.174 119.832  0.00  0.00    -0.241 OA
ATOM     24  O   LIG d   1      -9.312  82.275 117.695  0.00  0.00    -0.241 OA
ENDBRANCH   3  22
TORSDOF 7
ENDMDL
MODEL 7
REMARK VINA RESULT:      -4.4     16.796     19.242
REMARK  7 active torsions:
REMARK  status: ('A' for Active; 'I' for Inactive)
REMARK    1  A    between atoms: C_2  and  C_3 
REMARK    2  A    between atoms: C_3  and  O_6 
REMARK    3  A    between atoms: C_3  and  C_4 
REMARK    4  A    between atoms: C_7  and  O_6 
REMARK    5  A    between atoms: C_9  and  C_10 
REMARK    6  A    between atoms: N_15  and  C_14 
REMARK    7  A    between atoms: N_20  and  C_19 
REMARK       I    between atoms: C_22  and  N_20 
ROOT
ATOM      1  C   LIG d   1      -4.644  95.015 120.049  0.00  0.00     0.161 C 
ATOM      2  C   LIG d   1      -5.919  94.491 119.776  0.00  0.00     0.016 C 
ATOM      3  C   LIG d   1      -7.023  95.289 119.397  0.00  0.00     0.038 C 
ATOM      4  C   LIG d   1      -6.887  96.657 119.115  0.00  0.00     0.028 C 
ATOM      5  C   LIG d   1      -5.735  97.318 119.864  0.00  0.00    -0.047 C 
ATOM      6  C   LIG d   1      -4.449  96.489 119.640  0.00  0.00     0.091 C 
ENDROOT
BRANCH   1   7
ATOM      7  O   LIG d   1      -3.635  94.187 119.437  0.00  0.00    -0.368 OA
BRANCH   7   8
ATOM      8  C   LIG d   1      -3.848  92.756 119.519  0.00  0.00     0.119 C 
BRANCH   8   9
ATOM      9  C   LIG d   1      -2.818  92.192 120.516  0.00  0.00     0.028 C 
ATOM     10  C   LIG d   1      -3.420  91.954 121.911  0.00  0.00     0.006 C 
ENDBRANCH   8   9
BRANCH   8  11
ATOM     11  C   LIG d   1      -3.540  92.069 118.185  0.00  0.00     0.028 C 
ATOM     12  C   LIG d   1      -4.807  91.723 117.387  0.00  0.00     0.006 C 
ENDBRANCH   8  11
ENDBRANCH   7   8
ENDBRANCH   1   7
BRANCH   6  13
ATOM     13  N   LIG d   1      -3.292  97.020 120.406  0.00  0.00    -0.311 N 
ATOM     14  C   LIG d   1      -2.404  97.872 119.897  0.00  0.00     0.210 C 
ATOM     15  C   LIG d   1      -1.276  98.278 120.851  0.00  0.00     0.109 C 
ATOM     16  O   LIG d   1      -2.461  98.356 118.757  0.00  0.00    -0.276 OA
ATOM     17  H   LIG d   1      -3.187  96.704 121.350  0.00  0.00     0.149 HD
ENDBRANCH   6  13
BRANCH   5  18
ATOM     18  N   LIG d   1      -5.622  98.705 119.374  0.00  0.00     0.381 N 
ATOM     19  H   LIG d   1      -6.315  99.277 119.814  0.00  0.00    -0.090 HD
ATOM     20  H   LIG d   1      -5.788  98.714 118.383  0.00  0.00    -0.090 HD
ATOM     21  H   LIG d   1      -4.713  99.062 119.569  0.00  0.00    -0.090 HD
ENDBRANCH   5  18
BRANCH   3  22
ATOM     22  C   LIG d   1      -8.288  94.727 119.334  0.00  0.00     0.382 C 
ATOM     23  O   LIG d   1      -8.897  94.672 118.238  0.00  0.00    -0.241 OA
ATOM     24  O   LIG d   1      -8.848  94.313 120.367  0.00  0.00    -0.241 OA
ENDBRANCH   3  22
TORSDOF 7
ENDMDL
MODEL 8
REMARK VINA RESULT:      -4.2     20.129     21.637
REMARK  7 active torsions:
REMARK  status: ('A' for Active; 'I' for Inactive)
REMARK    1  A    between atoms: C_2  and  C_3 
REMARK    2  A    between atoms: C_3  and  O_6 
REMARK    3  A    between atoms: C_3  and  C_4 
REMARK    4  A    between atoms: C_7  and  O_6 
REMARK    5  A    between atoms: C_9  and  C_10 
REMARK    6  A    between atoms: N_15  and  C_14 
REMARK    7  A    between atoms: N_20  and  C_19 
REMARK       I    between atoms: C_22  and  N_20 
ROOT
ATOM      1  C   LIG d   1       0.598  58.651 118.961  0.00  0.00     0.161 C 
ATOM      2  C   LIG d   1      -0.546  58.330 118.211  0.00  0.00     0.016 C 
ATOM      3  C   LIG d   1      -1.859  58.388 118.732  0.00  0.00     0.038 C 
ATOM      4  C   LIG d   1      -2.131  58.919 120.001  0.00  0.00     0.028 C 
ATOM      5  C   LIG d   1      -0.967  58.782 120.977  0.00  0.00    -0.047 C 
ATOM      6  C   LIG d   1       0.313  59.339 120.313  0.00  0.00     0.091 C 
ENDROOT
BRANCH   1   7
ATOM      7  O   LIG d   1       1.492  59.457 118.168  0.00  0.00    -0.368 OA
BRANCH   7   8
ATOM      8  C   LIG d   1       2.549  58.745 117.478  0.00  0.00     0.119 C 
BRANCH   8   9
ATOM      9  C   LIG d   1       2.704  57.372 118.161  0.00  0.00     0.028 C 
ATOM     10  C   LIG d   1       2.511  56.204 117.180  0.00  0.00     0.006 C 
ENDBRANCH   8   9
BRANCH   8  11
ATOM     11  C   LIG d   1       3.901  59.443 117.659  0.00  0.00     0.028 C 
ATOM     12  C   LIG d   1       4.594  59.066 118.978  0.00  0.00     0.006 C 
ENDBRANCH   8  11
ENDBRANCH   7   8
ENDBRANCH   1   7
BRANCH   6  13
ATOM     13  N   LIG d   1       1.517  59.166 121.167  0.00  0.00    -0.311 N 
ATOM     14  C   LIG d   1       2.207  60.186 121.676  0.00  0.00     0.210 C 
ATOM     15  C   LIG d   1       3.426  59.787 122.513  0.00  0.00     0.109 C 
ATOM     16  O   LIG d   1       1.906  61.381 121.541  0.00  0.00    -0.276 OA
ATOM     17  H   LIG d   1       1.813  58.228 121.354  0.00  0.00     0.149 HD
ENDBRANCH   6  13
BRANCH   5  18
ATOM     18  N   LIG d   1      -1.335  59.497 122.213  0.00  0.00     0.381 N 
ATOM     19  H   LIG d   1      -0.757  59.186 122.969  0.00  0.00    -0.090 HD
ATOM     20  H   LIG d   1      -2.291  59.285 122.439  0.00  0.00    -0.090 HD
ATOM     21  H   LIG d   1      -1.226  60.479 122.084  0.00  0.00    -0.090 HD
ENDBRANCH   5  18
BRANCH   3  22
ATOM     22  C   LIG d   1      -2.914  57.873 117.994  0.00  0.00     0.382 C 
ATOM     23  O   LIG d   1      -2.747  56.845 117.293  0.00  0.00    -0.241 OA
ATOM     24  O   LIG d   1      -4.019  58.448 117.984  0.00  0.00    -0.241 OA
ENDBRANCH   3  22
TORSDOF 7
ENDMDL
MODEL 9
REMARK VINA RESULT:      -4.2      7.679      9.414
REMARK  7 active torsions:
REMARK  status: ('A' for Active; 'I' for Inactive)
REMARK    1  A    between atoms: C_2  and  C_3 
REMARK    2  A    between atoms: C_3  and  O_6 
REMARK    3  A    between atoms: C_3  and  C_4 
REMARK    4  A    between atoms: C_7  and  O_6 
REMARK    5  A    between atoms: C_9  and  C_10 
REMARK    6  A    between atoms: N_15  and  C_14 
REMARK    7  A    between atoms: N_20  and  C_19 
REMARK       I    between atoms: C_22  and  N_20 
ROOT
ATOM      1  C   LIG d   1     -18.914  77.065 119.778  0.00  0.00     0.161 C 
ATOM      2  C   LIG d   1     -18.129  78.163 120.168  0.00  0.00     0.016 C 
ATOM      3  C   LIG d   1     -18.430  78.979 121.282  0.00  0.00     0.038 C 
ATOM      4  C   LIG d   1     -19.461  78.659 122.178  0.00  0.00     0.028 C 
ATOM      5  C   LIG d   1     -20.587  77.851 121.542  0.00  0.00    -0.047 C 
ATOM      6  C   LIG d   1     -19.979  76.634 120.808  0.00  0.00     0.091 C 
ENDROOT
BRANCH   1   7
ATOM      7  O   LIG d   1     -18.063  75.952 119.441  0.00  0.00    -0.368 OA
BRANCH   7   8
ATOM      8  C   LIG d   1     -17.766  75.028 120.516  0.00  0.00     0.119 C 
BRANCH   8   9
ATOM      9  C   LIG d   1     -16.254  75.119 120.800  0.00  0.00     0.028 C 
ATOM     10  C   LIG d   1     -15.949  75.794 122.148  0.00  0.00     0.006 C 
ENDBRANCH   8   9
BRANCH   8  11
ATOM     11  C   LIG d   1     -18.012  73.578 120.090  0.00  0.00     0.028 C 
ATOM     12  C   LIG d   1     -17.245  73.194 118.815  0.00  0.00     0.006 C 
ENDBRANCH   8  11
ENDBRANCH   7   8
ENDBRANCH   1   7
BRANCH   6  13
ATOM     13  N   LIG d   1     -21.005  75.836 120.087  0.00  0.00    -0.311 N 
ATOM     14  C   LIG d   1     -21.591  74.758 120.603  0.00  0.00     0.210 C 
ATOM     15  C   LIG d   1     -22.606  74.071 119.684  0.00  0.00     0.109 C 
ATOM     16  O   LIG d   1     -21.391  74.324 121.747  0.00  0.00    -0.276 OA
ATOM     17  H   LIG d   1     -21.250  76.137 119.163  0.00  0.00     0.149 HD
ENDBRANCH   6  13
BRANCH   5  18
ATOM     18  N   LIG d   1     -21.524  77.469 122.616  0.00  0.00     0.381 N 
ATOM     19  H   LIG d   1     -21.569  78.197 123.301  0.00  0.00    -0.090 HD
ATOM     20  H   LIG d   1     -21.183  76.636 123.063  0.00  0.00    -0.090 HD
ATOM     21  H   LIG d   1     -22.430  77.304 122.236  0.00  0.00    -0.090 HD
ENDBRANCH   5  18
BRANCH   3  22
ATOM     22  C   LIG d   1     -17.721  80.152 121.487  0.00  0.00     0.382 C 
ATOM     23  O   LIG d   1     -18.231  81.086 122.153  0.00  0.00    -0.241 OA
ATOM     24  O   LIG d   1     -16.595  80.307 120.978  0.00  0.00    -0.241 OA
ENDBRANCH   3  22
TORSDOF 7
ENDMDL
