MODEL 1
REMARK VINA RESULT:      -4.9      0.000      0.000
REMARK  7 active torsions:
REMARK  status: ('A' for Active; 'I' for Inactive)
REMARK    1  A    between atoms: C_2  and  C_3 
REMARK    2  A    between atoms: C_3  and  O_6 
REMARK    3  A    between atoms: C_3  and  C_4 
REMARK    4  A    between atoms: C_7  and  O_6 
REMARK    5  A    between atoms: C_9  and  C_10 
REMARK    6  A    between atoms: N_15  and  C_14 
REMARK    7  A    between atoms: N_20  and  C_19 
REMARK       I    between atoms: C_22  and  N_20 
ROOT
ATOM      1  C   LIG d   1      -7.884  81.482 120.188  0.00  0.00     0.161 C 
ATOM      2  C   LIG d   1      -8.180  80.122 120.001  0.00  0.00     0.016 C 
ATOM      3  C   LIG d   1      -9.168  79.656 119.103  0.00  0.00     0.038 C 
ATOM      4  C   LIG d   1      -9.827  80.519 118.214  0.00  0.00     0.028 C 
ATOM      5  C   LIG d   1      -9.923  81.954 118.721  0.00  0.00    -0.047 C 
ATOM      6  C   LIG d   1      -8.515  82.430 119.147  0.00  0.00     0.091 C 
ENDROOT
BRANCH   1   7
ATOM      7  O   LIG d   1      -6.456  81.669 120.236  0.00  0.00    -0.368 OA
BRANCH   7   8
ATOM      8  C   LIG d   1      -5.844  82.213 119.041  0.00  0.00     0.119 C 
BRANCH   8   9
ATOM      9  C   LIG d   1      -4.999  81.093 118.403  0.00  0.00     0.028 C 
ATOM     10  C   LIG d   1      -3.825  81.642 117.575  0.00  0.00     0.006 C 
ENDBRANCH   8   9
BRANCH   8  11
ATOM     11  C   LIG d   1      -4.850  83.327 119.381  0.00  0.00     0.028 C 
ATOM     12  C   LIG d   1      -5.097  83.943 120.767  0.00  0.00     0.006 C 
ENDBRANCH   8  11
ENDBRANCH   7   8
ENDBRANCH   1   7
BRANCH   6  13
ATOM     13  N   LIG d   1      -8.532  83.795 119.734  0.00  0.00    -0.311 N 
ATOM     14  C   LIG d   1      -9.230  84.117 120.822  0.00  0.00     0.210 C 
ATOM     15  C   LIG d   1      -9.124  85.585 121.248  0.00  0.00     0.109 C 
ATOM     16  O   LIG d   1      -9.901  83.319 121.494  0.00  0.00    -0.276 OA
ATOM     17  H   LIG d   1      -7.991  84.498 119.270  0.00  0.00     0.149 HD
ENDBRANCH   6  13
BRANCH   5  18
ATOM     18  N   LIG d   1     -10.507  82.770 117.641  0.00  0.00     0.381 N 
ATOM     19  H   LIG d   1     -10.035  82.580 116.780  0.00  0.00    -0.090 HD
ATOM     20  H   LIG d   1     -10.380  83.742 117.863  0.00  0.00    -0.090 HD
ATOM     21  H   LIG d   1     -11.478  82.567 117.547  0.00  0.00    -0.090 HD
ENDBRANCH   5  18
BRANCH   3  22
ATOM     22  C   LIG d   1      -9.534  78.319 119.117  0.00  0.00     0.382 C 
ATOM     23  O   LIG d   1     -10.473  77.919 118.387  0.00  0.00    -0.241 OA
ATOM     24  O   LIG d   1      -8.967  77.516 119.882  0.00  0.00    -0.241 OA
ENDBRANCH   3  22
TORSDOF 7
ENDMDL
MODEL 2
REMARK VINA RESULT:      -4.8      1.744      2.151
REMARK  7 active torsions:
REMARK  status: ('A' for Active; 'I' for Inactive)
REMARK    1  A    between atoms: C_2  and  C_3 
REMARK    2  A    between atoms: C_3  and  O_6 
REMARK    3  A    between atoms: C_3  and  C_4 
REMARK    4  A    between atoms: C_7  and  O_6 
REMARK    5  A    between atoms: C_9  and  C_10 
REMARK    6  A    between atoms: N_15  and  C_14 
REMARK    7  A    between atoms: N_20  and  C_19 
REMARK       I    between atoms: C_22  and  N_20 
ROOT
ATOM      1  C   LIG d   1      -8.184  81.494 120.727  0.00  0.00     0.161 C 
ATOM      2  C   LIG d   1      -7.509  80.561 119.923  0.00  0.00     0.016 C 
ATOM      3  C   LIG d   1      -7.814  80.343 118.560  0.00  0.00     0.038 C 
ATOM      4  C   LIG d   1      -8.721  81.156 117.864  0.00  0.00     0.028 C 
ATOM      5  C   LIG d   1      -9.789  81.776 118.758  0.00  0.00    -0.047 C 
ATOM      6  C   LIG d   1      -9.100  82.468 119.957  0.00  0.00     0.091 C 
ENDROOT
BRANCH   1   7
ATOM      7  O   LIG d   1      -7.236  82.225 121.528  0.00  0.00    -0.368 OA
BRANCH   7   8
ATOM      8  C   LIG d   1      -6.604  83.362 120.889  0.00  0.00     0.119 C 
BRANCH   8   9
ATOM      9  C   LIG d   1      -5.140  82.977 120.603  0.00  0.00     0.028 C 
ATOM     10  C   LIG d   1      -4.852  82.841 119.099  0.00  0.00     0.006 C 
ENDBRANCH   8   9
BRANCH   8  11
ATOM     11  C   LIG d   1      -6.531  84.564 121.836  0.00  0.00     0.028 C 
ATOM     12  C   LIG d   1      -5.122  85.173 121.916  0.00  0.00     0.006 C 
ENDBRANCH   8  11
ENDBRANCH   7   8
ENDBRANCH   1   7
BRANCH   6  13
ATOM     13  N   LIG d   1     -10.078  83.027 120.926  0.00  0.00    -0.311 N 
ATOM     14  C   LIG d   1     -10.220  84.332 121.154  0.00  0.00     0.210 C 
ATOM     15  C   LIG d   1     -11.271  84.694 122.208  0.00  0.00     0.109 C 
ATOM     16  O   LIG d   1      -9.597  85.225 120.561  0.00  0.00    -0.276 OA
ATOM     17  H   LIG d   1     -10.646  82.374 121.429  0.00  0.00     0.149 HD
ENDBRANCH   6  13
BRANCH   5  18
ATOM     18  N   LIG d   1     -10.580  82.705 117.930  0.00  0.00     0.381 N 
ATOM     19  H   LIG d   1     -11.119  82.190 117.263  0.00  0.00    -0.090 HD
ATOM     20  H   LIG d   1      -9.952  83.309 117.429  0.00  0.00    -0.090 HD
ATOM     21  H   LIG d   1     -11.184  83.248 118.508  0.00  0.00    -0.090 HD
ENDBRANCH   5  18
BRANCH   3  22
ATOM     22  C   LIG d   1      -7.238  79.275 117.888  0.00  0.00     0.382 C 
ATOM     23  O   LIG d   1      -6.218  79.457 117.180  0.00  0.00    -0.241 OA
ATOM     24  O   LIG d   1      -7.750  78.142 117.947  0.00  0.00    -0.241 OA
ENDBRANCH   3  22
TORSDOF 7
ENDMDL
MODEL 3
REMARK VINA RESULT:      -4.7      1.845      2.205
REMARK  7 active torsions:
REMARK  status: ('A' for Active; 'I' for Inactive)
REMARK    1  A    between atoms: C_2  and  C_3 
REMARK    2  A    between atoms: C_3  and  O_6 
REMARK    3  A    between atoms: C_3  and  C_4 
REMARK    4  A    between atoms: C_7  and  O_6 
REMARK    5  A    between atoms: C_9  and  C_10 
REMARK    6  A    between atoms: N_15  and  C_14 
REMARK    7  A    between atoms: N_20  and  C_19 
REMARK       I    between atoms: C_22  and  N_20 
ROOT
ATOM      1  C   LIG d   1      -9.454  80.535 120.971  0.00  0.00     0.161 C 
ATOM      2  C   LIG d   1      -9.228  79.330 120.285  0.00  0.00     0.016 C 
ATOM      3  C   LIG d   1      -9.358  79.196 118.884  0.00  0.00     0.038 C 
ATOM      4  C   LIG d   1      -9.579  80.302 118.051  0.00  0.00     0.028 C 
ATOM      5  C   LIG d   1     -10.312  81.446 118.743  0.00  0.00    -0.047 C 
ATOM      6  C   LIG d   1      -9.587  81.778 120.067  0.00  0.00     0.091 C 
ENDROOT
BRANCH   1   7
ATOM      7  O   LIG d   1      -8.421  80.738 121.955  0.00  0.00    -0.368 OA
BRANCH   7   8
ATOM      8  C   LIG d   1      -7.288  81.537 121.534  0.00  0.00     0.119 C 
BRANCH   8   9
ATOM      9  C   LIG d   1      -6.105  80.577 121.303  0.00  0.00     0.028 C 
ATOM     10  C   LIG d   1      -5.739  80.445 119.815  0.00  0.00     0.006 C 
ENDBRANCH   8   9
BRANCH   8  11
ATOM     11  C   LIG d   1      -6.830  82.484 122.646  0.00  0.00     0.028 C 
ATOM     12  C   LIG d   1      -7.941  82.791 123.663  0.00  0.00     0.006 C 
ENDBRANCH   8  11
ENDBRANCH   7   8
ENDBRANCH   1   7
BRANCH   6  13
ATOM     13  N   LIG d   1     -10.288  82.830 120.849  0.00  0.00    -0.311 N 
ATOM     14  C   LIG d   1      -9.946  84.117 120.818  0.00  0.00     0.210 C 
ATOM     15  C   LIG d   1     -10.787  85.031 121.715  0.00  0.00     0.109 C 
ATOM     16  O   LIG d   1      -9.047  84.593 120.109  0.00  0.00    -0.276 OA
ATOM     17  H   LIG d   1     -11.050  82.536 121.428  0.00  0.00     0.149 HD
ENDBRANCH   6  13
BRANCH   5  18
ATOM     18  N   LIG d   1     -10.353  82.583 117.805  0.00  0.00     0.381 N 
ATOM     19  H   LIG d   1     -10.048  83.416 118.268  0.00  0.00    -0.090 HD
ATOM     20  H   LIG d   1     -11.301  82.720 117.501  0.00  0.00    -0.090 HD
ATOM     21  H   LIG d   1      -9.768  82.398 117.020  0.00  0.00    -0.090 HD
ENDBRANCH   5  18
BRANCH   3  22
ATOM     22  C   LIG d   1      -9.308  77.936 118.306  0.00  0.00     0.382 C 
ATOM     23  O   LIG d   1     -10.370  77.308 118.077  0.00  0.00    -0.241 OA
ATOM     24  O   LIG d   1      -8.212  77.401 118.052  0.00  0.00    -0.241 OA
ENDBRANCH   3  22
TORSDOF 7
ENDMDL
MODEL 4
REMARK VINA RESULT:      -4.7     22.274     23.692
REMARK  7 active torsions:
REMARK  status: ('A' for Active; 'I' for Inactive)
REMARK    1  A    between atoms: C_2  and  C_3 
REMARK    2  A    between atoms: C_3  and  O_6 
REMARK    3  A    between atoms: C_3  and  C_4 
REMARK    4  A    between atoms: C_7  and  O_6 
REMARK    5  A    between atoms: C_9  and  C_10 
REMARK    6  A    between atoms: N_15  and  C_14 
REMARK    7  A    between atoms: N_20  and  C_19 
REMARK       I    between atoms: C_22  and  N_20 
ROOT
ATOM      1  C   LIG d   1      -0.238  59.191 119.513  0.00  0.00     0.161 C 
ATOM      2  C   LIG d   1      -1.222  58.705 118.636  0.00  0.00     0.016 C 
ATOM      3  C   LIG d   1      -2.609  58.819 118.883  0.00  0.00     0.038 C 
ATOM      4  C   LIG d   1      -3.112  59.567 119.958  0.00  0.00     0.028 C 
ATOM      5  C   LIG d   1      -2.153  59.645 121.142  0.00  0.00    -0.047 C 
ATOM      6  C   LIG d   1      -0.768  60.107 120.635  0.00  0.00     0.091 C 
ENDROOT
BRANCH   1   7
ATOM      7  O   LIG d   1       0.795  59.862 118.764  0.00  0.00    -0.368 OA
BRANCH   7   8
ATOM      8  C   LIG d   1       1.869  59.025 118.269  0.00  0.00     0.119 C 
BRANCH   8   9
ATOM      9  C   LIG d   1       2.197  57.995 119.367  0.00  0.00     0.028 C 
ATOM     10  C   LIG d   1       2.346  56.569 118.809  0.00  0.00     0.006 C 
ENDBRANCH   8   9
BRANCH   8  11
ATOM     11  C   LIG d   1       3.157  59.830 118.071  0.00  0.00     0.028 C 
ATOM     12  C   LIG d   1       4.036  59.868 119.331  0.00  0.00     0.006 C 
ENDBRANCH   8  11
ENDBRANCH   7   8
ENDBRANCH   1   7
BRANCH   6  13
ATOM     13  N   LIG d   1       0.252  60.130 121.716  0.00  0.00    -0.311 N 
ATOM     14  C   LIG d   1       0.522  61.210 122.448  0.00  0.00     0.210 C 
ATOM     15  C   LIG d   1       1.623  61.023 123.496  0.00  0.00     0.109 C 
ATOM     16  O   LIG d   1      -0.069  62.296 122.349  0.00  0.00    -0.276 OA
ATOM     17  H   LIG d   1       0.757  59.282 121.885  0.00  0.00     0.149 HD
ENDBRANCH   6  13
BRANCH   5  18
ATOM     18  N   LIG d   1      -2.743  60.565 122.132  0.00  0.00     0.381 N 
ATOM     19  H   LIG d   1      -3.740  60.561 122.048  0.00  0.00    -0.090 HD
ATOM     20  H   LIG d   1      -2.415  61.497 121.947  0.00  0.00    -0.090 HD
ATOM     21  H   LIG d   1      -2.479  60.290 123.053  0.00  0.00    -0.090 HD
ENDBRANCH   5  18
BRANCH   3  22
ATOM     22  C   LIG d   1      -3.510  58.147 118.070  0.00  0.00     0.382 C 
ATOM     23  O   LIG d   1      -4.519  58.745 117.624  0.00  0.00    -0.241 OA
ATOM     24  O   LIG d   1      -3.349  56.939 117.813  0.00  0.00    -0.241 OA
ENDBRANCH   3  22
TORSDOF 7
ENDMDL
MODEL 5
REMARK VINA RESULT:      -4.7     15.593     18.079
REMARK  7 active torsions:
REMARK  status: ('A' for Active; 'I' for Inactive)
REMARK    1  A    between atoms: C_2  and  C_3 
REMARK    2  A    between atoms: C_3  and  O_6 
REMARK    3  A    between atoms: C_3  and  C_4 
REMARK    4  A    between atoms: C_7  and  O_6 
REMARK    5  A    between atoms: C_9  and  C_10 
REMARK    6  A    between atoms: N_15  and  C_14 
REMARK    7  A    between atoms: N_20  and  C_19 
REMARK       I    between atoms: C_22  and  N_20 
ROOT
ATOM      1  C   LIG d   1     -14.128  65.367 121.312  0.00  0.00     0.161 C 
ATOM      2  C   LIG d   1     -12.978  65.004 122.032  0.00  0.00     0.016 C 
ATOM      3  C   LIG d   1     -12.157  63.906 121.686  0.00  0.00     0.038 C 
ATOM      4  C   LIG d   1     -12.347  63.184 120.499  0.00  0.00     0.028 C 
ATOM      5  C   LIG d   1     -13.791  63.196 120.007  0.00  0.00    -0.047 C 
ATOM      6  C   LIG d   1     -14.289  64.658 119.951  0.00  0.00     0.091 C 
ENDROOT
BRANCH   1   7
ATOM      7  O   LIG d   1     -14.165  66.798 121.140  0.00  0.00    -0.368 OA
BRANCH   7   8
ATOM      8  C   LIG d   1     -15.032  67.526 122.044  0.00  0.00     0.119 C 
BRANCH   8   9
ATOM      9  C   LIG d   1     -16.335  67.840 121.284  0.00  0.00     0.028 C 
ATOM     10  C   LIG d   1     -16.075  68.329 119.849  0.00  0.00     0.006 C 
ENDBRANCH   8   9
BRANCH   8  11
ATOM     11  C   LIG d   1     -14.437  68.890 122.408  0.00  0.00     0.028 C 
ATOM     12  C   LIG d   1     -15.386  69.745 123.263  0.00  0.00     0.006 C 
ENDBRANCH   8  11
ENDBRANCH   7   8
ENDBRANCH   1   7
BRANCH   6  13
ATOM     13  N   LIG d   1     -15.719  64.755 119.560  0.00  0.00    -0.311 N 
ATOM     14  C   LIG d   1     -16.125  64.947 118.306  0.00  0.00     0.210 C 
ATOM     15  C   LIG d   1     -17.644  65.037 118.124  0.00  0.00     0.109 C 
ATOM     16  O   LIG d   1     -15.373  65.020 117.322  0.00  0.00    -0.276 OA
ATOM     17  H   LIG d   1     -16.399  64.676 120.291  0.00  0.00     0.149 HD
ENDBRANCH   6  13
BRANCH   5  18
ATOM     18  N   LIG d   1     -13.820  62.524 118.694  0.00  0.00     0.381 N 
ATOM     19  H   LIG d   1     -12.890  62.280 118.418  0.00  0.00    -0.090 HD
ATOM     20  H   LIG d   1     -14.195  63.160 118.012  0.00  0.00    -0.090 HD
ATOM     21  H   LIG d   1     -14.386  61.706 118.743  0.00  0.00    -0.090 HD
ENDBRANCH   5  18
BRANCH   3  22
ATOM     22  C   LIG d   1     -11.155  63.497 122.553  0.00  0.00     0.382 C 
ATOM     23  O   LIG d   1     -10.788  64.250 123.487  0.00  0.00    -0.241 OA
ATOM     24  O   LIG d   1     -10.583  62.403 122.386  0.00  0.00    -0.241 OA
ENDBRANCH   3  22
TORSDOF 7
ENDMDL
MODEL 6
REMARK VINA RESULT:      -4.6     10.093     12.121
REMARK  7 active torsions:
REMARK  status: ('A' for Active; 'I' for Inactive)
REMARK    1  A    between atoms: C_2  and  C_3 
REMARK    2  A    between atoms: C_3  and  O_6 
REMARK    3  A    between atoms: C_3  and  C_4 
REMARK    4  A    between atoms: C_7  and  O_6 
REMARK    5  A    between atoms: C_9  and  C_10 
REMARK    6  A    between atoms: N_15  and  C_14 
REMARK    7  A    between atoms: N_20  and  C_19 
REMARK       I    between atoms: C_22  and  N_20 
ROOT
ATOM      1  C   LIG d   1     -18.457  78.519 120.778  0.00  0.00     0.161 C 
ATOM      2  C   LIG d   1     -19.040  79.643 120.170  0.00  0.00     0.016 C 
ATOM      3  C   LIG d   1     -18.864  80.963 120.644  0.00  0.00     0.038 C 
ATOM      4  C   LIG d   1     -17.964  81.266 121.677  0.00  0.00     0.028 C 
ATOM      5  C   LIG d   1     -17.741  80.110 122.645  0.00  0.00    -0.047 C 
ATOM      6  C   LIG d   1     -17.383  78.841 121.838  0.00  0.00     0.091 C 
ENDROOT
BRANCH   1   7
ATOM      7  O   LIG d   1     -17.918  77.642 119.769  0.00  0.00    -0.368 OA
BRANCH   7   8
ATOM      8  C   LIG d   1     -18.720  76.481 119.439  0.00  0.00     0.119 C 
BRANCH   8   9
ATOM      9  C   LIG d   1     -19.738  76.283 120.579  0.00  0.00     0.028 C 
ATOM     10  C   LIG d   1     -21.189  76.248 120.070  0.00  0.00     0.006 C 
ENDBRANCH   8   9
BRANCH   8  11
ATOM     11  C   LIG d   1     -17.873  75.205 119.425  0.00  0.00     0.028 C 
ATOM     12  C   LIG d   1     -18.199  74.260 120.592  0.00  0.00     0.006 C 
ENDBRANCH   8  11
ENDBRANCH   7   8
ENDBRANCH   1   7
BRANCH   6  13
ATOM     13  N   LIG d   1     -17.231  77.642 122.703  0.00  0.00    -0.311 N 
ATOM     14  C   LIG d   1     -16.261  76.744 122.547  0.00  0.00     0.210 C 
ATOM     15  C   LIG d   1     -16.299  75.573 123.534  0.00  0.00     0.109 C 
ATOM     16  O   LIG d   1     -15.353  76.822 121.706  0.00  0.00    -0.276 OA
ATOM     17  H   LIG d   1     -17.907  77.517 123.431  0.00  0.00     0.149 HD
ENDBRANCH   6  13
BRANCH   5  18
ATOM     18  N   LIG d   1     -16.681  80.514 123.587  0.00  0.00     0.381 N 
ATOM     19  H   LIG d   1     -17.091  80.868 124.428  0.00  0.00    -0.090 HD
ATOM     20  H   LIG d   1     -16.138  81.249 123.168  0.00  0.00    -0.090 HD
ATOM     21  H   LIG d   1     -16.095  79.736 123.796  0.00  0.00    -0.090 HD
ENDBRANCH   5  18
BRANCH   3  22
ATOM     22  C   LIG d   1     -19.624  81.993 120.110  0.00  0.00     0.382 C 
ATOM     23  O   LIG d   1     -20.731  82.287 120.623  0.00  0.00    -0.241 OA
ATOM     24  O   LIG d   1     -19.238  82.602 119.094  0.00  0.00    -0.241 OA
ENDBRANCH   3  22
TORSDOF 7
ENDMDL
MODEL 7
REMARK VINA RESULT:      -4.6     16.250     18.520
REMARK  7 active torsions:
REMARK  status: ('A' for Active; 'I' for Inactive)
REMARK    1  A    between atoms: C_2  and  C_3 
REMARK    2  A    between atoms: C_3  and  O_6 
REMARK    3  A    between atoms: C_3  and  C_4 
REMARK    4  A    between atoms: C_7  and  O_6 
REMARK    5  A    between atoms: C_9  and  C_10 
REMARK    6  A    between atoms: N_15  and  C_14 
REMARK    7  A    between atoms: N_20  and  C_19 
REMARK       I    between atoms: C_22  and  N_20 
ROOT
ATOM      1  C   LIG d   1     -14.860  64.783 121.330  0.00  0.00     0.161 C 
ATOM      2  C   LIG d   1     -13.796  64.832 122.246  0.00  0.00     0.016 C 
ATOM      3  C   LIG d   1     -12.581  64.132 122.066  0.00  0.00     0.038 C 
ATOM      4  C   LIG d   1     -12.287  63.451 120.875  0.00  0.00     0.028 C 
ATOM      5  C   LIG d   1     -13.527  62.957 120.138  0.00  0.00    -0.047 C 
ATOM      6  C   LIG d   1     -14.515  64.135 119.973  0.00  0.00     0.091 C 
ENDROOT
BRANCH   1   7
ATOM      7  O   LIG d   1     -15.395  66.106 121.132  0.00  0.00    -0.368 OA
BRANCH   7   8
ATOM      8  C   LIG d   1     -14.473  67.096 120.614  0.00  0.00     0.119 C 
BRANCH   8   9
ATOM      9  C   LIG d   1     -14.782  68.431 121.319  0.00  0.00     0.028 C 
ATOM     10  C   LIG d   1     -14.502  68.375 122.830  0.00  0.00     0.006 C 
ENDBRANCH   8   9
BRANCH   8  11
ATOM     11  C   LIG d   1     -14.715  67.358 119.125  0.00  0.00     0.028 C 
ATOM     12  C   LIG d   1     -16.204  67.538 118.786  0.00  0.00     0.006 C 
ENDBRANCH   8  11
ENDBRANCH   7   8
ENDBRANCH   1   7
BRANCH   6  13
ATOM     13  N   LIG d   1     -15.791  63.719 119.335  0.00  0.00    -0.311 N 
ATOM     14  C   LIG d   1     -16.004  63.766 118.021  0.00  0.00     0.210 C 
ATOM     15  C   LIG d   1     -17.397  63.310 117.575  0.00  0.00     0.109 C 
ATOM     16  O   LIG d   1     -15.161  64.111 117.180  0.00  0.00    -0.276 OA
ATOM     17  H   LIG d   1     -16.520  63.396 119.942  0.00  0.00     0.149 HD
ENDBRANCH   6  13
BRANCH   5  18
ATOM     18  N   LIG d   1     -13.084  62.390 118.851  0.00  0.00     0.381 N 
ATOM     19  H   LIG d   1     -13.527  62.875 118.096  0.00  0.00    -0.090 HD
ATOM     20  H   LIG d   1     -13.359  61.424 118.809  0.00  0.00    -0.090 HD
ATOM     21  H   LIG d   1     -12.094  62.465 118.768  0.00  0.00    -0.090 HD
ENDBRANCH   5  18
BRANCH   3  22
ATOM     22  C   LIG d   1     -11.660  64.075 123.101  0.00  0.00     0.382 C 
ATOM     23  O   LIG d   1     -10.617  63.389 122.976  0.00  0.00    -0.241 OA
ATOM     24  O   LIG d   1     -11.881  64.666 124.176  0.00  0.00    -0.241 OA
ENDBRANCH   3  22
TORSDOF 7
ENDMDL
MODEL 8
REMARK VINA RESULT:      -4.5      2.682      4.265
REMARK  7 active torsions:
REMARK  status: ('A' for Active; 'I' for Inactive)
REMARK    1  A    between atoms: C_2  and  C_3 
REMARK    2  A    between atoms: C_3  and  O_6 
REMARK    3  A    between atoms: C_3  and  C_4 
REMARK    4  A    between atoms: C_7  and  O_6 
REMARK    5  A    between atoms: C_9  and  C_10 
REMARK    6  A    between atoms: N_15  and  C_14 
REMARK    7  A    between atoms: N_20  and  C_19 
REMARK       I    between atoms: C_22  and  N_20 
ROOT
ATOM      1  C   LIG d   1     -10.118  80.910 120.734  0.00  0.00     0.161 C 
ATOM      2  C   LIG d   1      -9.957  79.623 120.196  0.00  0.00     0.016 C 
ATOM      3  C   LIG d   1      -9.576  79.382 118.856  0.00  0.00     0.038 C 
ATOM      4  C   LIG d   1      -9.182  80.420 117.999  0.00  0.00     0.028 C 
ATOM      5  C   LIG d   1      -9.814  81.764 118.345  0.00  0.00    -0.047 C 
ATOM      6  C   LIG d   1      -9.585  82.054 119.846  0.00  0.00     0.091 C 
ENDROOT
BRANCH   1   7
ATOM      7  O   LIG d   1      -9.519  80.972 122.043  0.00  0.00    -0.368 OA
BRANCH   7   8
ATOM      8  C   LIG d   1     -10.360  80.560 123.149  0.00  0.00     0.119 C 
BRANCH   8   9
ATOM      9  C   LIG d   1     -11.664  81.376 123.068  0.00  0.00     0.028 C 
ATOM     10  C   LIG d   1     -11.524  82.771 123.700  0.00  0.00     0.006 C 
ENDBRANCH   8   9
BRANCH   8  11
ATOM     11  C   LIG d   1      -9.731  80.932 124.495  0.00  0.00     0.028 C 
ATOM     12  C   LIG d   1     -10.022  79.898 125.595  0.00  0.00     0.006 C 
ENDBRANCH   8  11
ENDBRANCH   7   8
ENDBRANCH   1   7
BRANCH   6  13
ATOM     13  N   LIG d   1     -10.245  83.311 120.287  0.00  0.00    -0.311 N 
ATOM     14  C   LIG d   1      -9.598  84.304 120.895  0.00  0.00     0.210 C 
ATOM     15  C   LIG d   1     -10.471  85.501 121.284  0.00  0.00     0.109 C 
ATOM     16  O   LIG d   1      -8.378  84.320 121.119  0.00  0.00    -0.276 OA
ATOM     17  H   LIG d   1     -11.228  83.394 120.116  0.00  0.00     0.149 HD
ENDBRANCH   6  13
BRANCH   5  18
ATOM     18  N   LIG d   1      -9.212  82.780 117.461  0.00  0.00     0.381 N 
ATOM     19  H   LIG d   1      -9.893  83.475 117.231  0.00  0.00    -0.090 HD
ATOM     20  H   LIG d   1      -8.915  82.336 116.610  0.00  0.00    -0.090 HD
ATOM     21  H   LIG d   1      -8.432  83.206 117.912  0.00  0.00    -0.090 HD
ENDBRANCH   5  18
BRANCH   3  22
ATOM     22  C   LIG d   1      -9.625  78.092 118.349  0.00  0.00     0.382 C 
ATOM     23  O   LIG d   1     -10.730  77.514 118.213  0.00  0.00    -0.241 OA
ATOM     24  O   LIG d   1      -8.576  77.483 118.067  0.00  0.00    -0.241 OA
ENDBRANCH   3  22
TORSDOF 7
ENDMDL
MODEL 9
REMARK VINA RESULT:      -4.5     21.691     23.945
REMARK  7 active torsions:
REMARK  status: ('A' for Active; 'I' for Inactive)
REMARK    1  A    between atoms: C_2  and  C_3 
REMARK    2  A    between atoms: C_3  and  O_6 
REMARK    3  A    between atoms: C_3  and  C_4 
REMARK    4  A    between atoms: C_7  and  O_6 
REMARK    5  A    between atoms: C_9  and  C_10 
REMARK    6  A    between atoms: N_15  and  C_14 
REMARK    7  A    between atoms: N_20  and  C_19 
REMARK       I    between atoms: C_22  and  N_20 
ROOT
ATOM      1  C   LIG d   1       0.353  59.641 120.674  0.00  0.00     0.161 C 
ATOM      2  C   LIG d   1       1.650  60.000 120.269  0.00  0.00     0.016 C 
ATOM      3  C   LIG d   1       2.288  59.457 119.131  0.00  0.00     0.038 C 
ATOM      4  C   LIG d   1       1.610  58.625 118.228  0.00  0.00     0.028 C 
ATOM      5  C   LIG d   1       0.470  57.839 118.867  0.00  0.00    -0.047 C 
ATOM      6  C   LIG d   1      -0.443  58.818 119.640  0.00  0.00     0.091 C 
ENDROOT
BRANCH   1   7
ATOM      7  O   LIG d   1      -0.385  60.820 121.052  0.00  0.00    -0.368 OA
BRANCH   7   8
ATOM      8  C   LIG d   1      -0.532  61.052 122.474  0.00  0.00     0.119 C 
BRANCH   8   9
ATOM      9  C   LIG d   1      -2.041  61.070 122.787  0.00  0.00     0.028 C 
ATOM     10  C   LIG d   1      -2.424  62.195 123.763  0.00  0.00     0.006 C 
ENDBRANCH   8   9
BRANCH   8  11
ATOM     11  C   LIG d   1      -0.019  62.440 122.869  0.00  0.00     0.028 C 
ATOM     12  C   LIG d   1       1.480  62.447 123.206  0.00  0.00     0.006 C 
ENDBRANCH   8  11
ENDBRANCH   7   8
ENDBRANCH   1   7
BRANCH   6  13
ATOM     13  N   LIG d   1      -1.537  58.121 120.365  0.00  0.00    -0.311 N 
ATOM     14  C   LIG d   1      -2.827  58.397 120.186  0.00  0.00     0.210 C 
ATOM     15  C   LIG d   1      -3.790  57.575 121.049  0.00  0.00     0.109 C 
ATOM     16  O   LIG d   1      -3.268  59.222 119.372  0.00  0.00    -0.276 OA
ATOM     17  H   LIG d   1      -1.270  57.415 121.023  0.00  0.00     0.149 HD
ENDBRANCH   6  13
BRANCH   5  18
ATOM     18  N   LIG d   1      -0.235  57.120 117.789  0.00  0.00     0.381 N 
ATOM     19  H   LIG d   1      -0.342  56.157 118.037  0.00  0.00    -0.090 HD
ATOM     20  H   LIG d   1       0.316  57.171 116.950  0.00  0.00    -0.090 HD
ATOM     21  H   LIG d   1      -1.129  57.532 117.633  0.00  0.00    -0.090 HD
ENDBRANCH   5  18
BRANCH   3  22
ATOM     22  C   LIG d   1       3.632  59.715 118.908  0.00  0.00     0.382 C 
ATOM     23  O   LIG d   1       3.988  60.340 117.880  0.00  0.00    -0.241 OA
ATOM     24  O   LIG d   1       4.496  59.292 119.699  0.00  0.00    -0.241 OA
ENDBRANCH   3  22
TORSDOF 7
ENDMDL
