MODEL 1
REMARK VINA RESULT:      -4.9      0.000      0.000
REMARK  7 active torsions:
REMARK  status: ('A' for Active; 'I' for Inactive)
REMARK    1  A    between atoms: C_2  and  C_3 
REMARK    2  A    between atoms: C_3  and  O_6 
REMARK    3  A    between atoms: C_3  and  C_4 
REMARK    4  A    between atoms: C_7  and  O_6 
REMARK    5  A    between atoms: C_9  and  C_10 
REMARK    6  A    between atoms: N_15  and  C_14 
REMARK    7  A    between atoms: N_20  and  C_19 
REMARK       I    between atoms: C_22  and  N_20 
ROOT
ATOM      1  C   LIG d   1      -7.237  78.788 118.412  0.00  0.00     0.161 C 
ATOM      2  C   LIG d   1      -7.932  77.667 117.929  0.00  0.00     0.016 C 
ATOM      3  C   LIG d   1      -9.301  77.429 118.188  0.00  0.00     0.038 C 
ATOM      4  C   LIG d   1     -10.111  78.379 118.828  0.00  0.00     0.028 C 
ATOM      5  C   LIG d   1      -9.340  79.295 119.773  0.00  0.00    -0.047 C 
ATOM      6  C   LIG d   1      -8.130  79.891 119.018  0.00  0.00     0.091 C 
ENDROOT
BRANCH   1   7
ATOM      7  O   LIG d   1      -6.404  79.334 117.370  0.00  0.00    -0.368 OA
BRANCH   7   8
ATOM      8  C   LIG d   1      -4.978  79.127 117.520  0.00  0.00     0.119 C 
BRANCH   8   9
ATOM      9  C   LIG d   1      -4.761  78.314 118.811  0.00  0.00     0.028 C 
ATOM     10  C   LIG d   1      -4.105  76.949 118.541  0.00  0.00     0.006 C 
ENDBRANCH   8   9
BRANCH   8  11
ATOM     11  C   LIG d   1      -4.244  80.452 117.747  0.00  0.00     0.028 C 
ATOM     12  C   LIG d   1      -3.710  80.599 119.181  0.00  0.00     0.006 C 
ENDBRANCH   8  11
ENDBRANCH   7   8
ENDBRANCH   1   7
BRANCH   6  13
ATOM     13  N   LIG d   1      -7.274  80.733 119.893  0.00  0.00    -0.311 N 
ATOM     14  C   LIG d   1      -7.397  82.056 119.986  0.00  0.00     0.210 C 
ATOM     15  C   LIG d   1      -6.400  82.733 120.932  0.00  0.00     0.109 C 
ATOM     16  O   LIG d   1      -8.257  82.729 119.399  0.00  0.00    -0.276 OA
ATOM     17  H   LIG d   1      -6.570  80.264 120.429  0.00  0.00     0.149 HD
ENDBRANCH   6  13
BRANCH   5  18
ATOM     18  N   LIG d   1     -10.278  80.321 120.264  0.00  0.00     0.381 N 
ATOM     19  H   LIG d   1     -11.210  79.958 120.259  0.00  0.00    -0.090 HD
ATOM     20  H   LIG d   1     -10.245  81.114 119.647  0.00  0.00    -0.090 HD
ATOM     21  H   LIG d   1     -10.027  80.599 121.187  0.00  0.00    -0.090 HD
ENDBRANCH   5  18
BRANCH   3  22
ATOM     22  C   LIG d   1      -9.864  76.210 117.842  0.00  0.00     0.382 C 
ATOM     23  O   LIG d   1      -9.133  75.273 117.440  0.00  0.00    -0.241 OA
ATOM     24  O   LIG d   1     -11.099  76.050 117.883  0.00  0.00    -0.241 OA
ENDBRANCH   3  22
TORSDOF 7
ENDMDL
MODEL 2
REMARK VINA RESULT:      -4.9     11.730     14.545
REMARK  7 active torsions:
REMARK  status: ('A' for Active; 'I' for Inactive)
REMARK    1  A    between atoms: C_2  and  C_3 
REMARK    2  A    between atoms: C_3  and  O_6 
REMARK    3  A    between atoms: C_3  and  C_4 
REMARK    4  A    between atoms: C_7  and  O_6 
REMARK    5  A    between atoms: C_9  and  C_10 
REMARK    6  A    between atoms: N_15  and  C_14 
REMARK    7  A    between atoms: N_20  and  C_19 
REMARK       I    between atoms: C_22  and  N_20 
ROOT
ATOM      1  C   LIG d   1     -13.353  67.152 122.092  0.00  0.00     0.161 C 
ATOM      2  C   LIG d   1     -12.228  66.914 122.898  0.00  0.00     0.016 C 
ATOM      3  C   LIG d   1     -11.379  65.795 122.739  0.00  0.00     0.038 C 
ATOM      4  C   LIG d   1     -11.513  64.911 121.657  0.00  0.00     0.028 C 
ATOM      5  C   LIG d   1     -12.936  64.828 121.115  0.00  0.00    -0.047 C 
ATOM      6  C   LIG d   1     -13.451  66.259 120.837  0.00  0.00     0.091 C 
ENDROOT
BRANCH   1   7
ATOM      7  O   LIG d   1     -13.403  68.544 121.720  0.00  0.00    -0.368 OA
BRANCH   7   8
ATOM      8  C   LIG d   1     -14.225  69.397 122.554  0.00  0.00     0.119 C 
BRANCH   8   9
ATOM      9  C   LIG d   1     -15.576  69.583 121.836  0.00  0.00     0.028 C 
ATOM     10  C   LIG d   1     -15.412  70.153 120.417  0.00  0.00     0.006 C 
ENDBRANCH   8   9
BRANCH   8  11
ATOM     11  C   LIG d   1     -13.630  70.803 122.670  0.00  0.00     0.028 C 
ATOM     12  C   LIG d   1     -12.096  70.796 122.762  0.00  0.00     0.006 C 
ENDBRANCH   8  11
ENDBRANCH   7   8
ENDBRANCH   1   7
BRANCH   6  13
ATOM     13  N   LIG d   1     -14.866  66.273 120.384  0.00  0.00    -0.311 N 
ATOM     14  C   LIG d   1     -15.246  66.700 119.180  0.00  0.00     0.210 C 
ATOM     15  C   LIG d   1     -16.755  66.649 118.923  0.00  0.00     0.109 C 
ATOM     16  O   LIG d   1     -14.473  67.085 118.290  0.00  0.00    -0.276 OA
ATOM     17  H   LIG d   1     -15.556  65.948 121.032  0.00  0.00     0.149 HD
ENDBRANCH   6  13
BRANCH   5  18
ATOM     18  N   LIG d   1     -12.904  63.980 119.908  0.00  0.00     0.381 N 
ATOM     19  H   LIG d   1     -12.901  64.556 119.090  0.00  0.00    -0.090 HD
ATOM     20  H   LIG d   1     -13.731  63.410 119.890  0.00  0.00    -0.090 HD
ATOM     21  H   LIG d   1     -12.093  63.402 119.919  0.00  0.00    -0.090 HD
ENDBRANCH   5  18
BRANCH   3  22
ATOM     22  C   LIG d   1     -10.407  65.528 123.691  0.00  0.00     0.382 C 
ATOM     23  O   LIG d   1      -9.584  64.600 123.504  0.00  0.00    -0.241 OA
ATOM     24  O   LIG d   1     -10.370  66.175 124.754  0.00  0.00    -0.241 OA
ENDBRANCH   3  22
TORSDOF 7
ENDMDL
MODEL 3
REMARK VINA RESULT:      -4.6      9.248     11.079
REMARK  7 active torsions:
REMARK  status: ('A' for Active; 'I' for Inactive)
REMARK    1  A    between atoms: C_2  and  C_3 
REMARK    2  A    between atoms: C_3  and  O_6 
REMARK    3  A    between atoms: C_3  and  C_4 
REMARK    4  A    between atoms: C_7  and  O_6 
REMARK    5  A    between atoms: C_9  and  C_10 
REMARK    6  A    between atoms: N_15  and  C_14 
REMARK    7  A    between atoms: N_20  and  C_19 
REMARK       I    between atoms: C_22  and  N_20 
ROOT
ATOM      1  C   LIG d   1     -16.080  71.980 121.531  0.00  0.00     0.161 C 
ATOM      2  C   LIG d   1     -15.637  70.698 121.164  0.00  0.00     0.016 C 
ATOM      3  C   LIG d   1     -15.756  70.180 119.854  0.00  0.00     0.038 C 
ATOM      4  C   LIG d   1     -16.192  70.971 118.780  0.00  0.00     0.028 C 
ATOM      5  C   LIG d   1     -17.121  72.105 119.201  0.00  0.00    -0.047 C 
ATOM      6  C   LIG d   1     -16.457  72.898 120.350  0.00  0.00     0.091 C 
ENDROOT
BRANCH   1   7
ATOM      7  O   LIG d   1     -15.093  72.617 122.366  0.00  0.00    -0.368 OA
BRANCH   7   8
ATOM      8  C   LIG d   1     -13.718  72.516 121.918  0.00  0.00     0.119 C 
BRANCH   8   9
ATOM      9  C   LIG d   1     -12.896  71.924 123.079  0.00  0.00     0.028 C 
ATOM     10  C   LIG d   1     -12.187  70.616 122.690  0.00  0.00     0.006 C 
ENDBRANCH   8   9
BRANCH   8  11
ATOM     11  C   LIG d   1     -13.114  73.898 121.657  0.00  0.00     0.028 C 
ATOM     12  C   LIG d   1     -13.951  75.038 122.257  0.00  0.00     0.006 C 
ENDBRANCH   8  11
ENDBRANCH   7   8
ENDBRANCH   1   7
BRANCH   6  13
ATOM     13  N   LIG d   1     -17.335  73.974 120.878  0.00  0.00    -0.311 N 
ATOM     14  C   LIG d   1     -17.253  75.245 120.488  0.00  0.00     0.210 C 
ATOM     15  C   LIG d   1     -18.239  76.196 121.173  0.00  0.00     0.109 C 
ATOM     16  O   LIG d   1     -16.479  75.669 119.617  0.00  0.00    -0.276 OA
ATOM     17  H   LIG d   1     -18.013  73.712 121.566  0.00  0.00     0.149 HD
ENDBRANCH   6  13
BRANCH   5  18
ATOM     18  N   LIG d   1     -17.388  72.929 118.008  0.00  0.00     0.381 N 
ATOM     19  H   LIG d   1     -18.359  73.163 117.968  0.00  0.00    -0.090 HD
ATOM     20  H   LIG d   1     -17.158  72.397 117.187  0.00  0.00    -0.090 HD
ATOM     21  H   LIG d   1     -16.839  73.760 118.038  0.00  0.00    -0.090 HD
ENDBRANCH   5  18
BRANCH   3  22
ATOM     22  C   LIG d   1     -15.475  68.843 119.616  0.00  0.00     0.382 C 
ATOM     23  O   LIG d   1     -14.825  68.180 120.459  0.00  0.00    -0.241 OA
ATOM     24  O   LIG d   1     -15.824  68.305 118.548  0.00  0.00    -0.241 OA
ENDBRANCH   3  22
TORSDOF 7
ENDMDL
MODEL 4
REMARK VINA RESULT:      -4.5     11.624     13.888
REMARK  7 active torsions:
REMARK  status: ('A' for Active; 'I' for Inactive)
REMARK    1  A    between atoms: C_2  and  C_3 
REMARK    2  A    between atoms: C_3  and  O_6 
REMARK    3  A    between atoms: C_3  and  C_4 
REMARK    4  A    between atoms: C_7  and  O_6 
REMARK    5  A    between atoms: C_9  and  C_10 
REMARK    6  A    between atoms: N_15  and  C_14 
REMARK    7  A    between atoms: N_20  and  C_19 
REMARK       I    between atoms: C_22  and  N_20 
ROOT
ATOM      1  C   LIG d   1     -15.233  68.972 120.554  0.00  0.00     0.161 C 
ATOM      2  C   LIG d   1     -14.345  69.537 121.485  0.00  0.00     0.016 C 
ATOM      3  C   LIG d   1     -13.223  68.851 122.005  0.00  0.00     0.038 C 
ATOM      4  C   LIG d   1     -12.825  67.600 121.512  0.00  0.00     0.028 C 
ATOM      5  C   LIG d   1     -13.976  66.781 120.938  0.00  0.00    -0.047 C 
ATOM      6  C   LIG d   1     -14.752  67.650 119.921  0.00  0.00     0.091 C 
ENDROOT
BRANCH   1   7
ATOM      7  O   LIG d   1     -15.542  69.935 119.527  0.00  0.00    -0.368 OA
BRANCH   7   8
ATOM      8  C   LIG d   1     -15.782  71.292 119.977  0.00  0.00     0.119 C 
BRANCH   8   9
ATOM      9  C   LIG d   1     -17.289  71.424 120.266  0.00  0.00     0.028 C 
ATOM     10  C   LIG d   1     -17.571  72.003 121.663  0.00  0.00     0.006 C 
ENDBRANCH   8   9
BRANCH   8  11
ATOM     11  C   LIG d   1     -15.491  72.306 118.867  0.00  0.00     0.028 C 
ATOM     12  C   LIG d   1     -16.095  71.899 117.514  0.00  0.00     0.006 C 
ENDBRANCH   8  11
ENDBRANCH   7   8
ENDBRANCH   1   7
BRANCH   6  13
ATOM     13  N   LIG d   1     -15.945  66.952 119.374  0.00  0.00    -0.311 N 
ATOM     14  C   LIG d   1     -16.125  66.717 118.076  0.00  0.00     0.210 C 
ATOM     15  C   LIG d   1     -17.434  66.002 117.724  0.00  0.00     0.109 C 
ATOM     16  O   LIG d   1     -15.311  67.003 117.185  0.00  0.00    -0.276 OA
ATOM     17  H   LIG d   1     -16.642  66.658 120.030  0.00  0.00     0.149 HD
ENDBRANCH   6  13
BRANCH   5  18
ATOM     18  N   LIG d   1     -13.400  65.563 120.336  0.00  0.00     0.381 N 
ATOM     19  H   LIG d   1     -13.611  64.770 120.909  0.00  0.00    -0.090 HD
ATOM     20  H   LIG d   1     -12.401  65.664 120.292  0.00  0.00    -0.090 HD
ATOM     21  H   LIG d   1     -13.768  65.428 119.421  0.00  0.00    -0.090 HD
ENDBRANCH   5  18
BRANCH   3  22
ATOM     22  C   LIG d   1     -12.510  69.402 123.059  0.00  0.00     0.382 C 
ATOM     23  O   LIG d   1     -11.770  70.396 122.864  0.00  0.00    -0.241 OA
ATOM     24  O   LIG d   1     -12.562  68.889 124.193  0.00  0.00    -0.241 OA
ENDBRANCH   3  22
TORSDOF 7
ENDMDL
MODEL 5
REMARK VINA RESULT:      -4.5      2.933      5.316
REMARK  7 active torsions:
REMARK  status: ('A' for Active; 'I' for Inactive)
REMARK    1  A    between atoms: C_2  and  C_3 
REMARK    2  A    between atoms: C_3  and  O_6 
REMARK    3  A    between atoms: C_3  and  C_4 
REMARK    4  A    between atoms: C_7  and  O_6 
REMARK    5  A    between atoms: C_9  and  C_10 
REMARK    6  A    between atoms: N_15  and  C_14 
REMARK    7  A    between atoms: N_20  and  C_19 
REMARK       I    between atoms: C_22  and  N_20 
ROOT
ATOM      1  C   LIG d   1      -7.112  77.172 119.482  0.00  0.00     0.161 C 
ATOM      2  C   LIG d   1      -5.831  77.181 118.903  0.00  0.00     0.016 C 
ATOM      3  C   LIG d   1      -5.414  76.251 117.923  0.00  0.00     0.038 C 
ATOM      4  C   LIG d   1      -6.304  75.337 117.341  0.00  0.00     0.028 C 
ATOM      5  C   LIG d   1      -7.467  74.960 118.253  0.00  0.00    -0.047 C 
ATOM      6  C   LIG d   1      -8.132  76.252 118.780  0.00  0.00     0.091 C 
ENDROOT
BRANCH   1   7
ATOM      7  O   LIG d   1      -7.621  78.517 119.561  0.00  0.00    -0.368 OA
BRANCH   7   8
ATOM      8  C   LIG d   1      -7.741  79.229 118.304  0.00  0.00     0.119 C 
BRANCH   8   9
ATOM      9  C   LIG d   1      -7.067  80.603 118.484  0.00  0.00     0.028 C 
ATOM     10  C   LIG d   1      -6.248  80.689 119.783  0.00  0.00     0.006 C 
ENDBRANCH   8   9
BRANCH   8  11
ATOM     11  C   LIG d   1      -9.205  79.535 117.975  0.00  0.00     0.028 C 
ATOM     12  C   LIG d   1      -9.434  81.006 117.592  0.00  0.00     0.006 C 
ENDBRANCH   8  11
ENDBRANCH   7   8
ENDBRANCH   1   7
BRANCH   6  13
ATOM     13  N   LIG d   1      -9.226  75.973 119.746  0.00  0.00    -0.311 N 
ATOM     14  C   LIG d   1     -10.517  76.134 119.459  0.00  0.00     0.210 C 
ATOM     15  C   LIG d   1     -11.480  75.809 120.605  0.00  0.00     0.109 C 
ATOM     16  O   LIG d   1     -10.957  76.484 118.354  0.00  0.00    -0.276 OA
ATOM     17  H   LIG d   1      -8.960  75.655 120.657  0.00  0.00     0.149 HD
ENDBRANCH   6  13
BRANCH   5  18
ATOM     18  N   LIG d   1      -8.388  74.111 117.474  0.00  0.00     0.381 N 
ATOM     19  H   LIG d   1      -8.643  73.306 118.010  0.00  0.00    -0.090 HD
ATOM     20  H   LIG d   1      -7.918  73.800 116.642  0.00  0.00    -0.090 HD
ATOM     21  H   LIG d   1      -9.203  74.629 117.229  0.00  0.00    -0.090 HD
ENDBRANCH   5  18
BRANCH   3  22
ATOM     22  C   LIG d   1      -4.081  76.205 117.544  0.00  0.00     0.382 C 
ATOM     23  O   LIG d   1      -3.570  75.118 117.180  0.00  0.00    -0.241 OA
ATOM     24  O   LIG d   1      -3.371  77.227 117.603  0.00  0.00    -0.241 OA
ENDBRANCH   3  22
TORSDOF 7
ENDMDL
MODEL 6
REMARK VINA RESULT:      -4.4      8.663     10.763
REMARK  7 active torsions:
REMARK  status: ('A' for Active; 'I' for Inactive)
REMARK    1  A    between atoms: C_2  and  C_3 
REMARK    2  A    between atoms: C_3  and  O_6 
REMARK    3  A    between atoms: C_3  and  C_4 
REMARK    4  A    between atoms: C_7  and  O_6 
REMARK    5  A    between atoms: C_9  and  C_10 
REMARK    6  A    between atoms: N_15  and  C_14 
REMARK    7  A    between atoms: N_20  and  C_19 
REMARK       I    between atoms: C_22  and  N_20 
ROOT
ATOM      1  C   LIG d   1     -17.053  75.464 120.580  0.00  0.00     0.161 C 
ATOM      2  C   LIG d   1     -18.122  76.145 119.974  0.00  0.00     0.016 C 
ATOM      3  C   LIG d   1     -18.405  77.511 120.204  0.00  0.00     0.038 C 
ATOM      4  C   LIG d   1     -17.542  78.332 120.944  0.00  0.00     0.028 C 
ATOM      5  C   LIG d   1     -16.728  77.573 121.986  0.00  0.00    -0.047 C 
ATOM      6  C   LIG d   1     -16.035  76.371 121.303  0.00  0.00     0.091 C 
ENDROOT
BRANCH   1   7
ATOM      7  O   LIG d   1     -16.384  74.638 119.606  0.00  0.00    -0.368 OA
BRANCH   7   8
ATOM      8  C   LIG d   1     -16.506  73.207 119.793  0.00  0.00     0.119 C 
BRANCH   8   9
ATOM      9  C   LIG d   1     -15.080  72.626 119.861  0.00  0.00     0.028 C 
ATOM     10  C   LIG d   1     -14.839  71.812 121.144  0.00  0.00     0.006 C 
ENDBRANCH   8   9
BRANCH   8  11
ATOM     11  C   LIG d   1     -17.158  72.539 118.578  0.00  0.00     0.028 C 
ATOM     12  C   LIG d   1     -16.132  71.909 117.623  0.00  0.00     0.006 C 
ENDBRANCH   8  11
ENDBRANCH   7   8
ENDBRANCH   1   7
BRANCH   6  13
ATOM     13  N   LIG d   1     -15.285  75.526 122.268  0.00  0.00    -0.311 N 
ATOM     14  C   LIG d   1     -13.965  75.354 122.221  0.00  0.00     0.210 C 
ATOM     15  C   LIG d   1     -13.395  74.426 123.298  0.00  0.00     0.109 C 
ATOM     16  O   LIG d   1     -13.209  75.907 121.408  0.00  0.00    -0.276 OA
ATOM     17  H   LIG d   1     -15.817  75.065 122.980  0.00  0.00     0.149 HD
ENDBRANCH   6  13
BRANCH   5  18
ATOM     18  N   LIG d   1     -15.774  78.525 122.586  0.00  0.00     0.381 N 
ATOM     19  H   LIG d   1     -15.112  78.030 123.150  0.00  0.00    -0.090 HD
ATOM     20  H   LIG d   1     -16.279  79.161 123.178  0.00  0.00    -0.090 HD
ATOM     21  H   LIG d   1     -15.300  79.030 121.871  0.00  0.00    -0.090 HD
ENDBRANCH   5  18
BRANCH   3  22
ATOM     22  C   LIG d   1     -19.585  78.058 119.723  0.00  0.00     0.382 C 
ATOM     23  O   LIG d   1     -20.612  77.345 119.623  0.00  0.00    -0.241 OA
ATOM     24  O   LIG d   1     -19.623  79.245 119.347  0.00  0.00    -0.241 OA
ENDBRANCH   3  22
TORSDOF 7
ENDMDL
MODEL 7
REMARK VINA RESULT:      -4.4      2.182      5.305
REMARK  7 active torsions:
REMARK  status: ('A' for Active; 'I' for Inactive)
REMARK    1  A    between atoms: C_2  and  C_3 
REMARK    2  A    between atoms: C_3  and  O_6 
REMARK    3  A    between atoms: C_3  and  C_4 
REMARK    4  A    between atoms: C_7  and  O_6 
REMARK    5  A    between atoms: C_9  and  C_10 
REMARK    6  A    between atoms: N_15  and  C_14 
REMARK    7  A    between atoms: N_20  and  C_19 
REMARK       I    between atoms: C_22  and  N_20 
ROOT
ATOM      1  C   LIG d   1      -7.415  81.166 120.087  0.00  0.00     0.161 C 
ATOM      2  C   LIG d   1      -7.098  82.419 120.638  0.00  0.00     0.016 C 
ATOM      3  C   LIG d   1      -8.010  83.187 121.399  0.00  0.00     0.038 C 
ATOM      4  C   LIG d   1      -9.258  82.682 121.791  0.00  0.00     0.028 C 
ATOM      5  C   LIG d   1      -9.813  81.631 120.835  0.00  0.00    -0.047 C 
ATOM      6  C   LIG d   1      -8.734  80.550 120.597  0.00  0.00     0.091 C 
ENDROOT
BRANCH   1   7
ATOM      7  O   LIG d   1      -6.321  80.251 120.295  0.00  0.00    -0.368 OA
BRANCH   7   8
ATOM      8  C   LIG d   1      -5.607  79.830 119.107  0.00  0.00     0.119 C 
BRANCH   8   9
ATOM      9  C   LIG d   1      -5.243  78.343 119.287  0.00  0.00     0.028 C 
ATOM     10  C   LIG d   1      -6.117  77.650 120.346  0.00  0.00     0.006 C 
ENDBRANCH   8   9
BRANCH   8  11
ATOM     11  C   LIG d   1      -4.268  80.561 118.972  0.00  0.00     0.028 C 
ATOM     12  C   LIG d   1      -3.463  80.574 120.281  0.00  0.00     0.006 C 
ENDBRANCH   8  11
ENDBRANCH   7   8
ENDBRANCH   1   7
BRANCH   6  13
ATOM     13  N   LIG d   1      -9.165  79.527 119.608  0.00  0.00    -0.311 N 
ATOM     14  C   LIG d   1      -9.839  78.427 119.937  0.00  0.00     0.210 C 
ATOM     15  C   LIG d   1     -10.167  77.495 118.767  0.00  0.00     0.109 C 
ATOM     16  O   LIG d   1     -10.225  78.150 121.083  0.00  0.00    -0.276 OA
ATOM     17  H   LIG d   1      -8.921  79.688 118.650  0.00  0.00     0.149 HD
ENDBRANCH   6  13
BRANCH   5  18
ATOM     18  N   LIG d   1     -11.049  81.092 121.434  0.00  0.00     0.381 N 
ATOM     19  H   LIG d   1     -11.182  80.145 121.141  0.00  0.00    -0.090 HD
ATOM     20  H   LIG d   1     -11.830  81.635 121.111  0.00  0.00    -0.090 HD
ATOM     21  H   LIG d   1     -10.993  81.135 122.428  0.00  0.00    -0.090 HD
ENDBRANCH   5  18
BRANCH   3  22
ATOM     22  C   LIG d   1      -7.689  84.491 121.743  0.00  0.00     0.382 C 
ATOM     23  O   LIG d   1      -6.548  84.760 122.190  0.00  0.00    -0.241 OA
ATOM     24  O   LIG d   1      -8.542  85.395 121.653  0.00  0.00    -0.241 OA
ENDBRANCH   3  22
TORSDOF 7
ENDMDL
MODEL 8
REMARK VINA RESULT:      -4.4     12.432     14.945
REMARK  7 active torsions:
REMARK  status: ('A' for Active; 'I' for Inactive)
REMARK    1  A    between atoms: C_2  and  C_3 
REMARK    2  A    between atoms: C_3  and  O_6 
REMARK    3  A    between atoms: C_3  and  C_4 
REMARK    4  A    between atoms: C_7  and  O_6 
REMARK    5  A    between atoms: C_9  and  C_10 
REMARK    6  A    between atoms: N_15  and  C_14 
REMARK    7  A    between atoms: N_20  and  C_19 
REMARK       I    between atoms: C_22  and  N_20 
ROOT
ATOM      1  C   LIG d   1     -13.137  66.574 121.203  0.00  0.00     0.161 C 
ATOM      2  C   LIG d   1     -13.939  67.272 120.284  0.00  0.00     0.016 C 
ATOM      3  C   LIG d   1     -14.780  66.634 119.344  0.00  0.00     0.038 C 
ATOM      4  C   LIG d   1     -14.993  65.248 119.359  0.00  0.00     0.028 C 
ATOM      5  C   LIG d   1     -13.820  64.462 119.937  0.00  0.00    -0.047 C 
ATOM      6  C   LIG d   1     -13.440  65.065 121.309  0.00  0.00     0.091 C 
ENDROOT
BRANCH   1   7
ATOM      7  O   LIG d   1     -13.227  67.195 122.500  0.00  0.00    -0.368 OA
BRANCH   7   8
ATOM      8  C   LIG d   1     -12.011  67.804 123.001  0.00  0.00     0.119 C 
BRANCH   8   9
ATOM      9  C   LIG d   1     -12.182  67.999 124.520  0.00  0.00     0.028 C 
ATOM     10  C   LIG d   1     -11.362  66.986 125.337  0.00  0.00     0.006 C 
ENDBRANCH   8   9
BRANCH   8  11
ATOM     11  C   LIG d   1     -11.818  69.212 122.431  0.00  0.00     0.028 C 
ATOM     12  C   LIG d   1     -12.075  70.316 123.469  0.00  0.00     0.006 C 
ENDBRANCH   8  11
ENDBRANCH   7   8
ENDBRANCH   1   7
BRANCH   6  13
ATOM     13  N   LIG d   1     -12.247  64.408 121.905  0.00  0.00    -0.311 N 
ATOM     14  C   LIG d   1     -12.191  64.000 123.172  0.00  0.00     0.210 C 
ATOM     15  C   LIG d   1     -10.861  63.366 123.589  0.00  0.00     0.109 C 
ATOM     16  O   LIG d   1     -13.129  64.075 123.981  0.00  0.00    -0.276 OA
ATOM     17  H   LIG d   1     -11.452  64.279 121.310  0.00  0.00     0.149 HD
ENDBRANCH   6  13
BRANCH   5  18
ATOM     18  N   LIG d   1     -14.230  63.047 120.021  0.00  0.00     0.381 N 
ATOM     19  H   LIG d   1     -15.222  62.988 120.137  0.00  0.00    -0.090 HD
ATOM     20  H   LIG d   1     -13.793  62.629 120.823  0.00  0.00    -0.090 HD
ATOM     21  H   LIG d   1     -13.956  62.563 119.194  0.00  0.00    -0.090 HD
ENDBRANCH   5  18
BRANCH   3  22
ATOM     22  C   LIG d   1     -15.390  67.383 118.348  0.00  0.00     0.382 C 
ATOM     23  O   LIG d   1     -15.920  68.485 118.628  0.00  0.00    -0.241 OA
ATOM     24  O   LIG d   1     -15.454  66.949 117.182  0.00  0.00    -0.241 OA
ENDBRANCH   3  22
TORSDOF 7
ENDMDL
MODEL 9
REMARK VINA RESULT:      -4.3     12.833     15.909
REMARK  7 active torsions:
REMARK  status: ('A' for Active; 'I' for Inactive)
REMARK    1  A    between atoms: C_2  and  C_3 
REMARK    2  A    between atoms: C_3  and  O_6 
REMARK    3  A    between atoms: C_3  and  C_4 
REMARK    4  A    between atoms: C_7  and  O_6 
REMARK    5  A    between atoms: C_9  and  C_10 
REMARK    6  A    between atoms: N_15  and  C_14 
REMARK    7  A    between atoms: N_20  and  C_19 
REMARK       I    between atoms: C_22  and  N_20 
ROOT
ATOM      1  C   LIG d   1      -0.982  92.685 118.411  0.00  0.00     0.161 C 
ATOM      2  C   LIG d   1       0.174  91.979 118.037  0.00  0.00     0.016 C 
ATOM      3  C   LIG d   1       1.485  92.450 118.277  0.00  0.00     0.038 C 
ATOM      4  C   LIG d   1       1.732  93.596 119.047  0.00  0.00     0.028 C 
ATOM      5  C   LIG d   1       0.590  94.607 119.011  0.00  0.00    -0.047 C 
ATOM      6  C   LIG d   1      -0.732  93.883 119.350  0.00  0.00     0.091 C 
ENDROOT
BRANCH   1   7
ATOM      7  O   LIG d   1      -1.939  91.780 118.996  0.00  0.00    -0.368 OA
BRANCH   7   8
ATOM      8  C   LIG d   1      -3.022  91.351 118.134  0.00  0.00     0.119 C 
BRANCH   8   9
ATOM      9  C   LIG d   1      -4.344  91.710 118.838  0.00  0.00     0.028 C 
ATOM     10  C   LIG d   1      -5.575  91.202 118.068  0.00  0.00     0.006 C 
ENDBRANCH   8   9
BRANCH   8  11
ATOM     11  C   LIG d   1      -3.043  89.828 117.982  0.00  0.00     0.028 C 
ATOM     12  C   LIG d   1      -2.262  89.107 119.092  0.00  0.00     0.006 C 
ENDBRANCH   8  11
ENDBRANCH   7   8
ENDBRANCH   1   7
BRANCH   6  13
ATOM     13  N   LIG d   1      -1.912  94.783 119.255  0.00  0.00    -0.311 N 
ATOM     14  C   LIG d   1      -2.770  94.975 120.255  0.00  0.00     0.210 C 
ATOM     15  C   LIG d   1      -3.928  95.927 119.940  0.00  0.00     0.109 C 
ATOM     16  O   LIG d   1      -2.664  94.472 121.384  0.00  0.00    -0.276 OA
ATOM     17  H   LIG d   1      -2.056  95.255 118.384  0.00  0.00     0.149 HD
ENDBRANCH   6  13
BRANCH   5  18
ATOM     18  N   LIG d   1       0.920  95.685 119.962  0.00  0.00     0.381 N 
ATOM     19  H   LIG d   1       0.124  95.888 120.534  0.00  0.00    -0.090 HD
ATOM     20  H   LIG d   1       1.156  96.514 119.445  0.00  0.00    -0.090 HD
ATOM     21  H   LIG d   1       1.688  95.412 120.535  0.00  0.00    -0.090 HD
ENDBRANCH   5  18
BRANCH   3  22
ATOM     22  C   LIG d   1       2.566  91.793 117.709  0.00  0.00     0.382 C 
ATOM     23  O   LIG d   1       3.493  92.452 117.181  0.00  0.00    -0.241 OA
ATOM     24  O   LIG d   1       2.604  90.548 117.679  0.00  0.00    -0.241 OA
ENDBRANCH   3  22
TORSDOF 7
ENDMDL
