MODEL 1
REMARK VINA RESULT:      -4.8      0.000      0.000
REMARK  7 active torsions:
REMARK  status: ('A' for Active; 'I' for Inactive)
REMARK    1  A    between atoms: C_2  and  C_3 
REMARK    2  A    between atoms: C_3  and  O_6 
REMARK    3  A    between atoms: C_3  and  C_4 
REMARK    4  A    between atoms: C_7  and  O_6 
REMARK    5  A    between atoms: C_9  and  C_10 
REMARK    6  A    between atoms: N_15  and  C_14 
REMARK    7  A    between atoms: N_20  and  C_19 
REMARK       I    between atoms: C_22  and  N_20 
ROOT
ATOM      1  C   LIG d   1     -11.255  77.227 119.353  0.00  0.00     0.161 C 
ATOM      2  C   LIG d   1     -10.301  77.961 118.630  0.00  0.00     0.016 C 
ATOM      3  C   LIG d   1      -9.867  79.254 119.003  0.00  0.00     0.038 C 
ATOM      4  C   LIG d   1     -10.250  79.843 120.217  0.00  0.00     0.028 C 
ATOM      5  C   LIG d   1     -11.600  79.352 120.729  0.00  0.00    -0.047 C 
ATOM      6  C   LIG d   1     -11.601  77.806 120.741  0.00  0.00     0.091 C 
ENDROOT
BRANCH   1   7
ATOM      7  O   LIG d   1     -10.827  75.856 119.475  0.00  0.00    -0.368 OA
BRANCH   7   8
ATOM      8  C   LIG d   1      -9.976  75.357 118.414  0.00  0.00     0.119 C 
BRANCH   8   9
ATOM      9  C   LIG d   1     -10.828  74.415 117.542  0.00  0.00     0.028 C 
ATOM     10  C   LIG d   1     -10.181  73.030 117.370  0.00  0.00     0.006 C 
ENDBRANCH   8   9
BRANCH   8  11
ATOM     11  C   LIG d   1      -8.847  74.485 118.970  0.00  0.00     0.028 C 
ATOM     12  C   LIG d   1      -8.665  74.641 120.488  0.00  0.00     0.006 C 
ENDBRANCH   8  11
ENDBRANCH   7   8
ENDBRANCH   1   7
BRANCH   6  13
ATOM     13  N   LIG d   1     -12.915  77.243 121.148  0.00  0.00    -0.311 N 
ATOM     14  C   LIG d   1     -13.211  76.908 122.403  0.00  0.00     0.210 C 
ATOM     15  C   LIG d   1     -14.614  76.327 122.603  0.00  0.00     0.109 C 
ATOM     16  O   LIG d   1     -12.457  77.066 123.374  0.00  0.00    -0.276 OA
ATOM     17  H   LIG d   1     -13.598  77.111 120.428  0.00  0.00     0.149 HD
ENDBRANCH   6  13
BRANCH   5  18
ATOM     18  N   LIG d   1     -11.811  79.941 122.065  0.00  0.00     0.381 N 
ATOM     19  H   LIG d   1     -12.791  79.998 122.259  0.00  0.00    -0.090 HD
ATOM     20  H   LIG d   1     -11.433  80.871 122.074  0.00  0.00    -0.090 HD
ATOM     21  H   LIG d   1     -11.360  79.384 122.758  0.00  0.00    -0.090 HD
ENDBRANCH   5  18
BRANCH   3  22
ATOM     22  C   LIG d   1      -9.072  79.989 118.137  0.00  0.00     0.382 C 
ATOM     23  O   LIG d   1      -9.502  81.061 117.648  0.00  0.00    -0.241 OA
ATOM     24  O   LIG d   1      -7.947  79.570 117.804  0.00  0.00    -0.241 OA
ENDBRANCH   3  22
TORSDOF 7
ENDMDL
MODEL 2
REMARK VINA RESULT:      -4.7     10.278     13.362
REMARK  7 active torsions:
REMARK  status: ('A' for Active; 'I' for Inactive)
REMARK    1  A    between atoms: C_2  and  C_3 
REMARK    2  A    between atoms: C_3  and  O_6 
REMARK    3  A    between atoms: C_3  and  C_4 
REMARK    4  A    between atoms: C_7  and  O_6 
REMARK    5  A    between atoms: C_9  and  C_10 
REMARK    6  A    between atoms: N_15  and  C_14 
REMARK    7  A    between atoms: N_20  and  C_19 
REMARK       I    between atoms: C_22  and  N_20 
ROOT
ATOM      1  C   LIG d   1     -13.355  65.607 121.873  0.00  0.00     0.161 C 
ATOM      2  C   LIG d   1     -12.249  65.108 122.580  0.00  0.00     0.016 C 
ATOM      3  C   LIG d   1     -11.548  63.939 122.204  0.00  0.00     0.038 C 
ATOM      4  C   LIG d   1     -11.815  63.270 121.001  0.00  0.00     0.028 C 
ATOM      5  C   LIG d   1     -13.249  63.445 120.515  0.00  0.00    -0.047 C 
ATOM      6  C   LIG d   1     -13.591  64.953 120.496  0.00  0.00     0.091 C 
ENDROOT
BRANCH   1   7
ATOM      7  O   LIG d   1     -13.243  67.038 121.735  0.00  0.00    -0.368 OA
BRANCH   7   8
ATOM      8  C   LIG d   1     -13.864  67.829 122.777  0.00  0.00     0.119 C 
BRANCH   8   9
ATOM      9  C   LIG d   1     -15.261  68.242 122.275  0.00  0.00     0.028 C 
ATOM     10  C   LIG d   1     -16.375  67.339 122.831  0.00  0.00     0.006 C 
ENDBRANCH   8   9
BRANCH   8  11
ATOM     11  C   LIG d   1     -13.110  69.143 123.003  0.00  0.00     0.028 C 
ATOM     12  C   LIG d   1     -13.993  70.382 122.786  0.00  0.00     0.006 C 
ENDBRANCH   8  11
ENDBRANCH   7   8
ENDBRANCH   1   7
BRANCH   6  13
ATOM     13  N   LIG d   1     -15.004  65.208 120.112  0.00  0.00    -0.311 N 
ATOM     14  C   LIG d   1     -15.360  66.043 119.137  0.00  0.00     0.210 C 
ATOM     15  C   LIG d   1     -16.870  66.176 118.919  0.00  0.00     0.109 C 
ATOM     16  O   LIG d   1     -14.567  66.661 118.411  0.00  0.00    -0.276 OA
ATOM     17  H   LIG d   1     -15.712  64.724 120.629  0.00  0.00     0.149 HD
ENDBRANCH   6  13
BRANCH   5  18
ATOM     18  N   LIG d   1     -13.351  62.812 119.186  0.00  0.00     0.381 N 
ATOM     19  H   LIG d   1     -12.435  62.618 118.833  0.00  0.00    -0.090 HD
ATOM     20  H   LIG d   1     -13.803  63.451 118.556  0.00  0.00    -0.090 HD
ATOM     21  H   LIG d   1     -13.876  61.968 119.250  0.00  0.00    -0.090 HD
ENDBRANCH   5  18
BRANCH   3  22
ATOM     22  C   LIG d   1     -10.593  63.406 123.057  0.00  0.00     0.382 C 
ATOM     23  O   LIG d   1      -9.866  62.459 122.671  0.00  0.00    -0.241 OA
ATOM     24  O   LIG d   1     -10.480  63.830 124.223  0.00  0.00    -0.241 OA
ENDBRANCH   3  22
TORSDOF 7
ENDMDL
MODEL 3
REMARK VINA RESULT:      -4.7      1.577      4.704
REMARK  7 active torsions:
REMARK  status: ('A' for Active; 'I' for Inactive)
REMARK    1  A    between atoms: C_2  and  C_3 
REMARK    2  A    between atoms: C_3  and  O_6 
REMARK    3  A    between atoms: C_3  and  C_4 
REMARK    4  A    between atoms: C_7  and  O_6 
REMARK    5  A    between atoms: C_9  and  C_10 
REMARK    6  A    between atoms: N_15  and  C_14 
REMARK    7  A    between atoms: N_20  and  C_19 
REMARK       I    between atoms: C_22  and  N_20 
ROOT
ATOM      1  C   LIG d   1     -10.955  77.567 119.825  0.00  0.00     0.161 C 
ATOM      2  C   LIG d   1     -11.881  76.839 120.590  0.00  0.00     0.016 C 
ATOM      3  C   LIG d   1     -12.642  77.407 121.638  0.00  0.00     0.038 C 
ATOM      4  C   LIG d   1     -12.637  78.786 121.894  0.00  0.00     0.028 C 
ATOM      5  C   LIG d   1     -11.341  79.475 121.479  0.00  0.00    -0.047 C 
ATOM      6  C   LIG d   1     -11.018  79.097 120.016  0.00  0.00     0.091 C 
ENDROOT
BRANCH   1   7
ATOM      7  O   LIG d   1     -11.101  77.230 118.431  0.00  0.00    -0.368 OA
BRANCH   7   8
ATOM      8  C   LIG d   1     -10.073  76.377 117.870  0.00  0.00     0.119 C 
BRANCH   8   9
ATOM      9  C   LIG d   1     -10.596  74.928 117.918  0.00  0.00     0.028 C 
ATOM     10  C   LIG d   1      -9.458  73.893 117.919  0.00  0.00     0.006 C 
ENDBRANCH   8   9
BRANCH   8  11
ATOM     11  C   LIG d   1      -8.811  76.381 118.738  0.00  0.00     0.028 C 
ATOM     12  C   LIG d   1      -7.629  77.100 118.068  0.00  0.00     0.006 C 
ENDBRANCH   8  11
ENDBRANCH   7   8
ENDBRANCH   1   7
BRANCH   6  13
ATOM     13  N   LIG d   1      -9.722  79.661 119.558  0.00  0.00    -0.311 N 
ATOM     14  C   LIG d   1      -9.582  80.356 118.430  0.00  0.00     0.210 C 
ATOM     15  C   LIG d   1      -8.156  80.830 118.134  0.00  0.00     0.109 C 
ATOM     16  O   LIG d   1     -10.511  80.652 117.663  0.00  0.00    -0.276 OA
ATOM     17  H   LIG d   1      -8.922  79.494 120.136  0.00  0.00     0.149 HD
ENDBRANCH   6  13
BRANCH   5  18
ATOM     18  N   LIG d   1     -11.525  80.926 121.674  0.00  0.00     0.381 N 
ATOM     19  H   LIG d   1     -11.804  81.351 120.812  0.00  0.00    -0.090 HD
ATOM     20  H   LIG d   1     -10.649  81.330 121.956  0.00  0.00    -0.090 HD
ATOM     21  H   LIG d   1     -12.216  81.091 122.373  0.00  0.00    -0.090 HD
ENDBRANCH   5  18
BRANCH   3  22
ATOM     22  C   LIG d   1     -13.388  76.586 122.469  0.00  0.00     0.382 C 
ATOM     23  O   LIG d   1     -14.324  75.898 121.995  0.00  0.00    -0.241 OA
ATOM     24  O   LIG d   1     -13.165  76.556 123.695  0.00  0.00    -0.241 OA
ENDBRANCH   3  22
TORSDOF 7
ENDMDL
MODEL 4
REMARK VINA RESULT:      -4.5      3.080      5.969
REMARK  7 active torsions:
REMARK  status: ('A' for Active; 'I' for Inactive)
REMARK    1  A    between atoms: C_2  and  C_3 
REMARK    2  A    between atoms: C_3  and  O_6 
REMARK    3  A    between atoms: C_3  and  C_4 
REMARK    4  A    between atoms: C_7  and  O_6 
REMARK    5  A    between atoms: C_9  and  C_10 
REMARK    6  A    between atoms: N_15  and  C_14 
REMARK    7  A    between atoms: N_20  and  C_19 
REMARK       I    between atoms: C_22  and  N_20 
ROOT
ATOM      1  C   LIG d   1      -7.971  76.777 118.038  0.00  0.00     0.161 C 
ATOM      2  C   LIG d   1      -9.300  76.494 117.681  0.00  0.00     0.016 C 
ATOM      3  C   LIG d   1     -10.229  75.891 118.559  0.00  0.00     0.038 C 
ATOM      4  C   LIG d   1      -9.934  75.665 119.911  0.00  0.00     0.028 C 
ATOM      5  C   LIG d   1      -8.445  75.470 120.181  0.00  0.00    -0.047 C 
ATOM      6  C   LIG d   1      -7.662  76.640 119.543  0.00  0.00     0.091 C 
ENDROOT
BRANCH   1   7
ATOM      7  O   LIG d   1      -7.608  78.091 117.569  0.00  0.00    -0.368 OA
BRANCH   7   8
ATOM      8  C   LIG d   1      -7.764  79.172 118.521  0.00  0.00     0.119 C 
BRANCH   8   9
ATOM      9  C   LIG d   1      -8.956  80.030 118.054  0.00  0.00     0.028 C 
ATOM     10  C   LIG d   1     -10.194  79.853 118.950  0.00  0.00     0.006 C 
ENDBRANCH   8   9
BRANCH   8  11
ATOM     11  C   LIG d   1      -6.555  80.112 118.500  0.00  0.00     0.028 C 
ATOM     12  C   LIG d   1      -6.852  81.449 117.804  0.00  0.00     0.006 C 
ENDBRANCH   8  11
ENDBRANCH   7   8
ENDBRANCH   1   7
BRANCH   6  13
ATOM     13  N   LIG d   1      -6.191  76.483 119.688  0.00  0.00    -0.311 N 
ATOM     14  C   LIG d   1      -5.489  77.035 120.677  0.00  0.00     0.210 C 
ATOM     15  C   LIG d   1      -3.982  76.764 120.628  0.00  0.00     0.109 C 
ATOM     16  O   LIG d   1      -5.976  77.695 121.607  0.00  0.00    -0.276 OA
ATOM     17  H   LIG d   1      -5.720  75.936 118.994  0.00  0.00     0.149 HD
ENDBRANCH   6  13
BRANCH   5  18
ATOM     18  N   LIG d   1      -8.266  75.383 121.643  0.00  0.00     0.381 N 
ATOM     19  H   LIG d   1      -8.073  76.291 122.015  0.00  0.00    -0.090 HD
ATOM     20  H   LIG d   1      -7.479  74.788 121.839  0.00  0.00    -0.090 HD
ATOM     21  H   LIG d   1      -9.087  75.010 122.066  0.00  0.00    -0.090 HD
ENDBRANCH   5  18
BRANCH   3  22
ATOM     22  C   LIG d   1     -11.458  75.469 118.074  0.00  0.00     0.382 C 
ATOM     23  O   LIG d   1     -12.473  76.192 118.224  0.00  0.00    -0.241 OA
ATOM     24  O   LIG d   1     -11.574  74.356 117.528  0.00  0.00    -0.241 OA
ENDBRANCH   3  22
TORSDOF 7
ENDMDL
MODEL 5
REMARK VINA RESULT:      -4.5     17.195     19.166
REMARK  7 active torsions:
REMARK  status: ('A' for Active; 'I' for Inactive)
REMARK    1  A    between atoms: C_2  and  C_3 
REMARK    2  A    between atoms: C_3  and  O_6 
REMARK    3  A    between atoms: C_3  and  C_4 
REMARK    4  A    between atoms: C_7  and  O_6 
REMARK    5  A    between atoms: C_9  and  C_10 
REMARK    6  A    between atoms: N_15  and  C_14 
REMARK    7  A    between atoms: N_20  and  C_19 
REMARK       I    between atoms: C_22  and  N_20 
ROOT
ATOM      1  C   LIG d   1      -5.532  94.850 120.596  0.00  0.00     0.161 C 
ATOM      2  C   LIG d   1      -6.839  94.582 120.157  0.00  0.00     0.016 C 
ATOM      3  C   LIG d   1      -7.855  95.563 120.091  0.00  0.00     0.038 C 
ATOM      4  C   LIG d   1      -7.588  96.922 120.319  0.00  0.00     0.028 C 
ATOM      5  C   LIG d   1      -6.406  97.159 121.253  0.00  0.00    -0.047 C 
ATOM      6  C   LIG d   1      -5.193  96.348 120.742  0.00  0.00     0.091 C 
ENDROOT
BRANCH   1   7
ATOM      7  O   LIG d   1      -4.582  94.204 119.725  0.00  0.00    -0.368 OA
BRANCH   7   8
ATOM      8  C   LIG d   1      -4.115  92.899 120.146  0.00  0.00     0.119 C 
BRANCH   8   9
ATOM      9  C   LIG d   1      -4.073  92.898 121.686  0.00  0.00     0.028 C 
ATOM     10  C   LIG d   1      -2.643  93.038 122.234  0.00  0.00     0.006 C 
ENDBRANCH   8   9
BRANCH   8  11
ATOM     11  C   LIG d   1      -2.671  92.653 119.701  0.00  0.00     0.028 C 
ATOM     12  C   LIG d   1      -2.532  91.432 118.777  0.00  0.00     0.006 C 
ENDBRANCH   8  11
ENDBRANCH   7   8
ENDBRANCH   1   7
BRANCH   6  13
ATOM     13  N   LIG d   1      -4.018  96.457 121.645  0.00  0.00    -0.311 N 
ATOM     14  C   LIG d   1      -2.798  96.785 121.224  0.00  0.00     0.210 C 
ATOM     15  C   LIG d   1      -1.724  96.821 122.316  0.00  0.00     0.109 C 
ATOM     16  O   LIG d   1      -2.509  97.080 120.055  0.00  0.00    -0.276 OA
ATOM     17  H   LIG d   1      -4.169  96.264 122.616  0.00  0.00     0.149 HD
ENDBRANCH   6  13
BRANCH   5  18
ATOM     18  N   LIG d   1      -6.155  98.612 121.293  0.00  0.00     0.381 N 
ATOM     19  H   LIG d   1      -5.189  98.794 121.103  0.00  0.00    -0.090 HD
ATOM     20  H   LIG d   1      -6.365  98.953 122.214  0.00  0.00    -0.090 HD
ATOM     21  H   LIG d   1      -6.726  99.075 120.621  0.00  0.00    -0.090 HD
ENDBRANCH   5  18
BRANCH   3  22
ATOM     22  C   LIG d   1      -9.163  95.183 119.834  0.00  0.00     0.382 C 
ATOM     23  O   LIG d   1      -9.423  94.469 118.835  0.00  0.00    -0.241 OA
ATOM     24  O   LIG d   1     -10.092  95.581 120.562  0.00  0.00    -0.241 OA
ENDBRANCH   3  22
TORSDOF 7
ENDMDL
MODEL 6
REMARK VINA RESULT:      -4.4     20.258     22.792
REMARK  7 active torsions:
REMARK  status: ('A' for Active; 'I' for Inactive)
REMARK    1  A    between atoms: C_2  and  C_3 
REMARK    2  A    between atoms: C_3  and  O_6 
REMARK    3  A    between atoms: C_3  and  C_4 
REMARK    4  A    between atoms: C_7  and  O_6 
REMARK    5  A    between atoms: C_9  and  C_10 
REMARK    6  A    between atoms: N_15  and  C_14 
REMARK    7  A    between atoms: N_20  and  C_19 
REMARK       I    between atoms: C_22  and  N_20 
ROOT
ATOM      1  C   LIG d   1       0.084  57.845 119.678  0.00  0.00     0.161 C 
ATOM      2  C   LIG d   1      -1.211  57.389 119.382  0.00  0.00     0.016 C 
ATOM      3  C   LIG d   1      -2.181  58.176 118.720  0.00  0.00     0.038 C 
ATOM      4  C   LIG d   1      -1.871  59.429 118.172  0.00  0.00     0.028 C 
ATOM      5  C   LIG d   1      -0.725  60.137 118.888  0.00  0.00    -0.047 C 
ATOM      6  C   LIG d   1       0.476  59.170 118.990  0.00  0.00     0.091 C 
ENDROOT
BRANCH   1   7
ATOM      7  O   LIG d   1       1.047  56.818 119.373  0.00  0.00    -0.368 OA
BRANCH   7   8
ATOM      8  C   LIG d   1       1.556  56.065 120.501  0.00  0.00     0.119 C 
BRANCH   8   9
ATOM      9  C   LIG d   1       3.033  56.463 120.694  0.00  0.00     0.028 C 
ATOM     10  C   LIG d   1       3.945  55.243 120.910  0.00  0.00     0.006 C 
ENDBRANCH   8   9
BRANCH   8  11
ATOM     11  C   LIG d   1       1.576  54.562 120.206  0.00  0.00     0.028 C 
ATOM     12  C   LIG d   1       0.704  54.181 118.999  0.00  0.00     0.006 C 
ENDBRANCH   8  11
ENDBRANCH   7   8
ENDBRANCH   1   7
BRANCH   6  13
ATOM     13  N   LIG d   1       1.611  59.754 119.752  0.00  0.00    -0.311 N 
ATOM     14  C   LIG d   1       2.740  60.171 119.181  0.00  0.00     0.210 C 
ATOM     15  C   LIG d   1       3.790  60.721 120.151  0.00  0.00     0.109 C 
ATOM     16  O   LIG d   1       2.958  60.166 117.960  0.00  0.00    -0.276 OA
ATOM     17  H   LIG d   1       1.506  59.823 120.745  0.00  0.00     0.149 HD
ENDBRANCH   6  13
BRANCH   5  18
ATOM     18  N   LIG d   1      -0.417  61.364 118.131  0.00  0.00     0.381 N 
ATOM     19  H   LIG d   1       0.411  61.228 117.587  0.00  0.00    -0.090 HD
ATOM     20  H   LIG d   1      -0.248  62.113 118.780  0.00  0.00    -0.090 HD
ATOM     21  H   LIG d   1      -1.180  61.598 117.535  0.00  0.00    -0.090 HD
ENDBRANCH   5  18
BRANCH   3  22
ATOM     22  C   LIG d   1      -3.490  57.726 118.636  0.00  0.00     0.382 C 
ATOM     23  O   LIG d   1      -3.874  56.775 119.359  0.00  0.00    -0.241 OA
ATOM     24  O   LIG d   1      -4.280  58.230 117.815  0.00  0.00    -0.241 OA
ENDBRANCH   3  22
TORSDOF 7
ENDMDL
MODEL 7
REMARK VINA RESULT:      -4.4     20.165     21.868
REMARK  7 active torsions:
REMARK  status: ('A' for Active; 'I' for Inactive)
REMARK    1  A    between atoms: C_2  and  C_3 
REMARK    2  A    between atoms: C_3  and  O_6 
REMARK    3  A    between atoms: C_3  and  C_4 
REMARK    4  A    between atoms: C_7  and  O_6 
REMARK    5  A    between atoms: C_9  and  C_10 
REMARK    6  A    between atoms: N_15  and  C_14 
REMARK    7  A    between atoms: N_20  and  C_19 
REMARK       I    between atoms: C_22  and  N_20 
ROOT
ATOM      1  C   LIG d   1      -0.500  58.656 120.174  0.00  0.00     0.161 C 
ATOM      2  C   LIG d   1      -1.759  58.304 119.659  0.00  0.00     0.016 C 
ATOM      3  C   LIG d   1      -2.251  58.771 118.419  0.00  0.00     0.038 C 
ATOM      4  C   LIG d   1      -1.450  59.505 117.532  0.00  0.00     0.028 C 
ATOM      5  C   LIG d   1      -0.354  60.306 118.228  0.00  0.00    -0.047 C 
ATOM      6  C   LIG d   1       0.433  59.366 119.170  0.00  0.00     0.091 C 
ENDROOT
BRANCH   1   7
ATOM      7  O   LIG d   1       0.148  57.490 120.720  0.00  0.00    -0.368 OA
BRANCH   7   8
ATOM      8  C   LIG d   1       0.366  57.495 122.153  0.00  0.00     0.119 C 
BRANCH   8   9
ATOM      9  C   LIG d   1      -0.284  58.774 122.715  0.00  0.00     0.028 C 
ATOM     10  C   LIG d   1       0.688  59.594 123.581  0.00  0.00     0.006 C 
ENDBRANCH   8   9
BRANCH   8  11
ATOM     11  C   LIG d   1       1.855  57.615 122.489  0.00  0.00     0.028 C 
ATOM     12  C   LIG d   1       2.749  56.815 121.529  0.00  0.00     0.006 C 
ENDBRANCH   8  11
ENDBRANCH   7   8
ENDBRANCH   1   7
BRANCH   6  13
ATOM     13  N   LIG d   1       1.470  60.087 119.953  0.00  0.00    -0.311 N 
ATOM     14  C   LIG d   1       2.720  60.262 119.529  0.00  0.00     0.210 C 
ATOM     15  C   LIG d   1       3.634  61.016 120.500  0.00  0.00     0.109 C 
ATOM     16  O   LIG d   1       3.150  59.891 118.426  0.00  0.00    -0.276 OA
ATOM     17  H   LIG d   1       1.198  60.448 120.847  0.00  0.00     0.149 HD
ENDBRANCH   6  13
BRANCH   5  18
ATOM     18  N   LIG d   1       0.489  60.912 117.180  0.00  0.00     0.381 N 
ATOM     19  H   LIG d   1       0.826  61.802 117.489  0.00  0.00    -0.090 HD
ATOM     20  H   LIG d   1      -0.069  61.054 116.356  0.00  0.00    -0.090 HD
ATOM     21  H   LIG d   1       1.257  60.312 116.971  0.00  0.00    -0.090 HD
ENDBRANCH   5  18
BRANCH   3  22
ATOM     22  C   LIG d   1      -3.573  58.536 118.072  0.00  0.00     0.382 C 
ATOM     23  O   LIG d   1      -4.242  59.436 117.509  0.00  0.00    -0.241 OA
ATOM     24  O   LIG d   1      -4.118  57.452 118.355  0.00  0.00    -0.241 OA
ENDBRANCH   3  22
TORSDOF 7
ENDMDL
MODEL 8
REMARK VINA RESULT:      -4.2      3.506      6.803
REMARK  7 active torsions:
REMARK  status: ('A' for Active; 'I' for Inactive)
REMARK    1  A    between atoms: C_2  and  C_3 
REMARK    2  A    between atoms: C_3  and  O_6 
REMARK    3  A    between atoms: C_3  and  C_4 
REMARK    4  A    between atoms: C_7  and  O_6 
REMARK    5  A    between atoms: C_9  and  C_10 
REMARK    6  A    between atoms: N_15  and  C_14 
REMARK    7  A    between atoms: N_20  and  C_19 
REMARK       I    between atoms: C_22  and  N_20 
ROOT
ATOM      1  C   LIG d   1      -8.884  78.123 118.326  0.00  0.00     0.161 C 
ATOM      2  C   LIG d   1     -10.100  77.421 118.374  0.00  0.00     0.016 C 
ATOM      3  C   LIG d   1     -10.219  76.049 118.055  0.00  0.00     0.038 C 
ATOM      4  C   LIG d   1      -9.096  75.244 117.811  0.00  0.00     0.028 C 
ATOM      5  C   LIG d   1      -7.905  76.019 117.258  0.00  0.00    -0.047 C 
ATOM      6  C   LIG d   1      -7.631  77.237 118.170  0.00  0.00     0.091 C 
ENDROOT
BRANCH   1   7
ATOM      7  O   LIG d   1      -8.760  78.966 119.489  0.00  0.00    -0.368 OA
BRANCH   7   8
ATOM      8  C   LIG d   1      -9.230  80.328 119.342  0.00  0.00     0.119 C 
BRANCH   8   9
ATOM      9  C   LIG d   1      -8.054  81.169 118.809  0.00  0.00     0.028 C 
ATOM     10  C   LIG d   1      -8.443  82.012 117.583  0.00  0.00     0.006 C 
ENDBRANCH   8   9
BRANCH   8  11
ATOM     11  C   LIG d   1      -9.587  80.944 120.698  0.00  0.00     0.028 C 
ATOM     12  C   LIG d   1      -9.589  82.480 120.674  0.00  0.00     0.006 C 
ENDBRANCH   8  11
ENDBRANCH   7   8
ENDBRANCH   1   7
BRANCH   6  13
ATOM     13  N   LIG d   1      -6.534  78.096 117.653  0.00  0.00    -0.311 N 
ATOM     14  C   LIG d   1      -5.255  77.930 117.985  0.00  0.00     0.210 C 
ATOM     15  C   LIG d   1      -4.288  78.938 117.356  0.00  0.00     0.109 C 
ATOM     16  O   LIG d   1      -4.825  77.025 118.716  0.00  0.00    -0.276 OA
ATOM     17  H   LIG d   1      -6.789  78.837 117.029  0.00  0.00     0.149 HD
ENDBRANCH   6  13
BRANCH   5  18
ATOM     18  N   LIG d   1      -6.764  75.087 117.181  0.00  0.00     0.381 N 
ATOM     19  H   LIG d   1      -6.627  74.644 118.067  0.00  0.00    -0.090 HD
ATOM     20  H   LIG d   1      -5.934  75.607 116.957  0.00  0.00    -0.090 HD
ATOM     21  H   LIG d   1      -6.933  74.398 116.480  0.00  0.00    -0.090 HD
ENDBRANCH   5  18
BRANCH   3  22
ATOM     22  C   LIG d   1     -11.477  75.477 117.940  0.00  0.00     0.382 C 
ATOM     23  O   LIG d   1     -12.495  76.127 118.278  0.00  0.00    -0.241 OA
ATOM     24  O   LIG d   1     -11.603  74.303 117.543  0.00  0.00    -0.241 OA
ENDBRANCH   3  22
TORSDOF 7
ENDMDL
MODEL 9
REMARK VINA RESULT:      -4.2      1.700      2.167
REMARK  7 active torsions:
REMARK  status: ('A' for Active; 'I' for Inactive)
REMARK    1  A    between atoms: C_2  and  C_3 
REMARK    2  A    between atoms: C_3  and  O_6 
REMARK    3  A    between atoms: C_3  and  C_4 
REMARK    4  A    between atoms: C_7  and  O_6 
REMARK    5  A    between atoms: C_9  and  C_10 
REMARK    6  A    between atoms: N_15  and  C_14 
REMARK    7  A    between atoms: N_20  and  C_19 
REMARK       I    between atoms: C_22  and  N_20 
ROOT
ATOM      1  C   LIG d   1      -9.114  78.401 119.300  0.00  0.00     0.161 C 
ATOM      2  C   LIG d   1      -8.089  79.226 118.809  0.00  0.00     0.016 C 
ATOM      3  C   LIG d   1      -7.994  80.606 119.100  0.00  0.00     0.038 C 
ATOM      4  C   LIG d   1      -8.839  81.227 120.031  0.00  0.00     0.028 C 
ATOM      5  C   LIG d   1     -10.198  80.548 120.163  0.00  0.00    -0.047 C 
ATOM      6  C   LIG d   1      -9.982  79.037 120.406  0.00  0.00     0.091 C 
ENDROOT
BRANCH   1   7
ATOM      7  O   LIG d   1      -8.560  77.150 119.754  0.00  0.00    -0.368 OA
BRANCH   7   8
ATOM      8  C   LIG d   1      -8.681  76.031 118.842  0.00  0.00     0.119 C 
BRANCH   8   9
ATOM      9  C   LIG d   1      -9.854  76.334 117.890  0.00  0.00     0.028 C 
ATOM     10  C   LIG d   1     -11.000  75.318 118.028  0.00  0.00     0.006 C 
ENDBRANCH   8   9
BRANCH   8  11
ATOM     11  C   LIG d   1      -9.080  74.750 119.582  0.00  0.00     0.028 C 
ATOM     12  C   LIG d   1      -8.886  74.856 121.103  0.00  0.00     0.006 C 
ENDBRANCH   8  11
ENDBRANCH   7   8
ENDBRANCH   1   7
BRANCH   6  13
ATOM     13  N   LIG d   1     -11.262  78.283 120.463  0.00  0.00    -0.311 N 
ATOM     14  C   LIG d   1     -11.614  77.513 121.491  0.00  0.00     0.210 C 
ATOM     15  C   LIG d   1     -12.966  76.809 121.338  0.00  0.00     0.109 C 
ATOM     16  O   LIG d   1     -10.951  77.372 122.529  0.00  0.00    -0.276 OA
ATOM     17  H   LIG d   1     -11.875  78.365 119.675  0.00  0.00     0.149 HD
ENDBRANCH   6  13
BRANCH   5  18
ATOM     18  N   LIG d   1     -10.924  81.212 121.262  0.00  0.00     0.381 N 
ATOM     19  H   LIG d   1     -11.450  80.536 121.778  0.00  0.00    -0.090 HD
ATOM     20  H   LIG d   1     -11.565  81.880 120.871  0.00  0.00    -0.090 HD
ATOM     21  H   LIG d   1     -10.280  81.674 121.865  0.00  0.00    -0.090 HD
ENDBRANCH   5  18
BRANCH   3  22
ATOM     22  C   LIG d   1      -7.069  81.388 118.425  0.00  0.00     0.382 C 
ATOM     23  O   LIG d   1      -6.277  82.119 119.069  0.00  0.00    -0.241 OA
ATOM     24  O   LIG d   1      -7.045  81.407 117.180  0.00  0.00    -0.241 OA
ENDBRANCH   3  22
TORSDOF 7
ENDMDL
