MODEL 1
REMARK VINA RESULT:      -4.7      0.000      0.000
REMARK  7 active torsions:
REMARK  status: ('A' for Active; 'I' for Inactive)
REMARK    1  A    between atoms: C_2  and  C_3 
REMARK    2  A    between atoms: C_3  and  O_6 
REMARK    3  A    between atoms: C_3  and  C_4 
REMARK    4  A    between atoms: C_7  and  O_6 
REMARK    5  A    between atoms: C_9  and  C_10 
REMARK    6  A    between atoms: N_15  and  C_14 
REMARK    7  A    between atoms: N_20  and  C_19 
REMARK       I    between atoms: C_22  and  N_20 
ROOT
ATOM      1  C   LIG d   1      -6.510  81.811 117.996  0.00  0.00     0.161 C 
ATOM      2  C   LIG d   1      -5.229  81.458 117.541  0.00  0.00     0.016 C 
ATOM      3  C   LIG d   1      -4.075  81.498 118.357  0.00  0.00     0.038 C 
ATOM      4  C   LIG d   1      -4.149  81.751 119.735  0.00  0.00     0.028 C 
ATOM      5  C   LIG d   1      -5.349  82.605 120.130  0.00  0.00    -0.047 C 
ATOM      6  C   LIG d   1      -6.629  81.983 119.525  0.00  0.00     0.091 C 
ENDROOT
BRANCH   1   7
ATOM      7  O   LIG d   1      -7.478  80.853 117.523  0.00  0.00    -0.368 OA
BRANCH   7   8
ATOM      8  C   LIG d   1      -7.833  79.796 118.448  0.00  0.00     0.119 C 
BRANCH   8   9
ATOM      9  C   LIG d   1      -7.260  78.479 117.888  0.00  0.00     0.028 C 
ATOM     10  C   LIG d   1      -8.272  77.323 117.954  0.00  0.00     0.006 C 
ENDBRANCH   8   9
BRANCH   8  11
ATOM     11  C   LIG d   1      -9.349  79.588 118.501  0.00  0.00     0.028 C 
ATOM     12  C   LIG d   1     -10.134  80.783 117.938  0.00  0.00     0.006 C 
ENDBRANCH   8  11
ENDBRANCH   7   8
ENDBRANCH   1   7
BRANCH   6  13
ATOM     13  N   LIG d   1      -7.839  82.803 119.793  0.00  0.00    -0.311 N 
ATOM     14  C   LIG d   1      -8.656  82.590 120.823  0.00  0.00     0.210 C 
ATOM     15  C   LIG d   1      -9.856  83.538 120.903  0.00  0.00     0.109 C 
ATOM     16  O   LIG d   1      -8.482  81.727 121.696  0.00  0.00    -0.276 OA
ATOM     17  H   LIG d   1      -8.038  83.545 119.151  0.00  0.00     0.149 HD
ENDBRANCH   6  13
BRANCH   5  18
ATOM     18  N   LIG d   1      -5.381  82.676 121.603  0.00  0.00     0.381 N 
ATOM     19  H   LIG d   1      -6.304  82.473 121.932  0.00  0.00    -0.090 HD
ATOM     20  H   LIG d   1      -5.142  83.609 121.889  0.00  0.00    -0.090 HD
ATOM     21  H   LIG d   1      -4.733  82.025 121.989  0.00  0.00    -0.090 HD
ENDBRANCH   5  18
BRANCH   3  22
ATOM     22  C   LIG d   1      -2.823  81.322 117.787  0.00  0.00     0.382 C 
ATOM     23  O   LIG d   1      -2.555  80.257 117.180  0.00  0.00    -0.241 OA
ATOM     24  O   LIG d   1      -1.945  82.196 117.909  0.00  0.00    -0.241 OA
ENDBRANCH   3  22
TORSDOF 7
ENDMDL
MODEL 2
REMARK VINA RESULT:      -4.6     10.559     12.422
REMARK  7 active torsions:
REMARK  status: ('A' for Active; 'I' for Inactive)
REMARK    1  A    between atoms: C_2  and  C_3 
REMARK    2  A    between atoms: C_3  and  O_6 
REMARK    3  A    between atoms: C_3  and  C_4 
REMARK    4  A    between atoms: C_7  and  O_6 
REMARK    5  A    between atoms: C_9  and  C_10 
REMARK    6  A    between atoms: N_15  and  C_14 
REMARK    7  A    between atoms: N_20  and  C_19 
REMARK       I    between atoms: C_22  and  N_20 
ROOT
ATOM      1  C   LIG d   1      -4.770  92.728 119.315  0.00  0.00     0.161 C 
ATOM      2  C   LIG d   1      -3.611  92.083 118.851  0.00  0.00     0.016 C 
ATOM      3  C   LIG d   1      -3.631  91.033 117.904  0.00  0.00     0.038 C 
ATOM      4  C   LIG d   1      -4.808  90.656 117.240  0.00  0.00     0.028 C 
ATOM      5  C   LIG d   1      -6.073  90.935 118.044  0.00  0.00    -0.047 C 
ATOM      6  C   LIG d   1      -6.052  92.406 118.519  0.00  0.00     0.091 C 
ENDROOT
BRANCH   1   7
ATOM      7  O   LIG d   1      -4.552  94.152 119.359  0.00  0.00    -0.368 OA
BRANCH   7   8
ATOM      8  C   LIG d   1      -4.449  94.741 120.678  0.00  0.00     0.119 C 
BRANCH   8   9
ATOM      9  C   LIG d   1      -5.632  95.715 120.844  0.00  0.00     0.028 C 
ATOM     10  C   LIG d   1      -6.127  96.271 119.498  0.00  0.00     0.006 C 
ENDBRANCH   8   9
BRANCH   8  11
ATOM     11  C   LIG d   1      -3.192  95.605 120.807  0.00  0.00     0.028 C 
ATOM     12  C   LIG d   1      -1.908  94.772 120.949  0.00  0.00     0.006 C 
ENDBRANCH   8  11
ENDBRANCH   7   8
ENDBRANCH   1   7
BRANCH   6  13
ATOM     13  N   LIG d   1      -7.214  92.739 119.384  0.00  0.00    -0.311 N 
ATOM     14  C   LIG d   1      -8.322  93.321 118.930  0.00  0.00     0.210 C 
ATOM     15  C   LIG d   1      -9.390  93.595 119.994  0.00  0.00     0.109 C 
ATOM     16  O   LIG d   1      -8.536  93.607 117.743  0.00  0.00    -0.276 OA
ATOM     17  H   LIG d   1      -7.138  92.513 120.357  0.00  0.00     0.149 HD
ENDBRANCH   6  13
BRANCH   5  18
ATOM     18  N   LIG d   1      -7.228  90.623 117.181  0.00  0.00     0.381 N 
ATOM     19  H   LIG d   1      -7.677  91.470 116.897  0.00  0.00    -0.090 HD
ATOM     20  H   LIG d   1      -7.888  90.076 117.705  0.00  0.00    -0.090 HD
ATOM     21  H   LIG d   1      -6.926  90.114 116.379  0.00  0.00    -0.090 HD
ENDBRANCH   5  18
BRANCH   3  22
ATOM     22  C   LIG d   1      -2.470  90.321 117.643  0.00  0.00     0.382 C 
ATOM     23  O   LIG d   1      -1.355  90.889 117.724  0.00  0.00    -0.241 OA
ATOM     24  O   LIG d   1      -2.527  89.129 117.285  0.00  0.00    -0.241 OA
ENDBRANCH   3  22
TORSDOF 7
ENDMDL
MODEL 3
REMARK VINA RESULT:      -4.4      2.033      4.973
REMARK  7 active torsions:
REMARK  status: ('A' for Active; 'I' for Inactive)
REMARK    1  A    between atoms: C_2  and  C_3 
REMARK    2  A    between atoms: C_3  and  O_6 
REMARK    3  A    between atoms: C_3  and  C_4 
REMARK    4  A    between atoms: C_7  and  O_6 
REMARK    5  A    between atoms: C_9  and  C_10 
REMARK    6  A    between atoms: N_15  and  C_14 
REMARK    7  A    between atoms: N_20  and  C_19 
REMARK       I    between atoms: C_22  and  N_20 
ROOT
ATOM      1  C   LIG d   1      -6.795  80.433 118.423  0.00  0.00     0.161 C 
ATOM      2  C   LIG d   1      -7.532  79.270 118.144  0.00  0.00     0.016 C 
ATOM      3  C   LIG d   1      -8.936  79.187 118.285  0.00  0.00     0.038 C 
ATOM      4  C   LIG d   1      -9.721  80.314 118.571  0.00  0.00     0.028 C 
ATOM      5  C   LIG d   1      -8.974  81.389 119.353  0.00  0.00    -0.047 C 
ATOM      6  C   LIG d   1      -7.645  81.704 118.629  0.00  0.00     0.091 C 
ENDROOT
BRANCH   1   7
ATOM      7  O   LIG d   1      -5.814  80.648 117.389  0.00  0.00    -0.368 OA
BRANCH   7   8
ATOM      8  C   LIG d   1      -4.445  80.319 117.730  0.00  0.00     0.119 C 
BRANCH   8   9
ATOM      9  C   LIG d   1      -4.442  79.798 119.180  0.00  0.00     0.028 C 
ATOM     10  C   LIG d   1      -3.775  78.417 119.307  0.00  0.00     0.006 C 
ENDBRANCH   8   9
BRANCH   8  11
ATOM     11  C   LIG d   1      -3.558  81.567 117.746  0.00  0.00     0.028 C 
ATOM     12  C   LIG d   1      -3.022  81.899 119.148  0.00  0.00     0.006 C 
ENDBRANCH   8  11
ENDBRANCH   7   8
ENDBRANCH   1   7
BRANCH   6  13
ATOM     13  N   LIG d   1      -6.813  82.686 119.372  0.00  0.00    -0.311 N 
ATOM     14  C   LIG d   1      -6.462  82.533 120.648  0.00  0.00     0.210 C 
ATOM     15  C   LIG d   1      -5.619  83.672 121.228  0.00  0.00     0.109 C 
ATOM     16  O   LIG d   1      -6.742  81.546 121.344  0.00  0.00    -0.276 OA
ATOM     17  H   LIG d   1      -6.516  83.502 118.873  0.00  0.00     0.149 HD
ENDBRANCH   6  13
BRANCH   5  18
ATOM     18  N   LIG d   1      -9.864  82.560 119.462  0.00  0.00     0.381 N 
ATOM     19  H   LIG d   1      -9.336  83.400 119.331  0.00  0.00    -0.090 HD
ATOM     20  H   LIG d   1     -10.264  82.580 120.383  0.00  0.00    -0.090 HD
ATOM     21  H   LIG d   1     -10.587  82.504 118.779  0.00  0.00    -0.090 HD
ENDBRANCH   5  18
BRANCH   3  22
ATOM     22  C   LIG d   1      -9.566  77.956 118.179  0.00  0.00     0.382 C 
ATOM     23  O   LIG d   1     -10.774  77.840 118.498  0.00  0.00    -0.241 OA
ATOM     24  O   LIG d   1      -8.930  76.951 117.809  0.00  0.00    -0.241 OA
ENDBRANCH   3  22
TORSDOF 7
ENDMDL
MODEL 4
REMARK VINA RESULT:      -4.3      2.492      4.772
REMARK  7 active torsions:
REMARK  status: ('A' for Active; 'I' for Inactive)
REMARK    1  A    between atoms: C_2  and  C_3 
REMARK    2  A    between atoms: C_3  and  O_6 
REMARK    3  A    between atoms: C_3  and  C_4 
REMARK    4  A    between atoms: C_7  and  O_6 
REMARK    5  A    between atoms: C_9  and  C_10 
REMARK    6  A    between atoms: N_15  and  C_14 
REMARK    7  A    between atoms: N_20  and  C_19 
REMARK       I    between atoms: C_22  and  N_20 
ROOT
ATOM      1  C   LIG d   1      -8.420  80.634 120.744  0.00  0.00     0.161 C 
ATOM      2  C   LIG d   1      -7.880  79.581 119.987  0.00  0.00     0.016 C 
ATOM      3  C   LIG d   1      -8.154  79.390 118.613  0.00  0.00     0.038 C 
ATOM      4  C   LIG d   1      -8.870  80.334 117.861  0.00  0.00     0.028 C 
ATOM      5  C   LIG d   1      -9.855  81.149 118.693  0.00  0.00    -0.047 C 
ATOM      6  C   LIG d   1      -9.114  81.736 119.916  0.00  0.00     0.091 C 
ENDROOT
BRANCH   1   7
ATOM      7  O   LIG d   1      -7.397  81.207 121.583  0.00  0.00    -0.368 OA
BRANCH   7   8
ATOM      8  C   LIG d   1      -6.038  81.102 121.092  0.00  0.00     0.119 C 
BRANCH   8   9
ATOM      9  C   LIG d   1      -5.114  80.956 122.316  0.00  0.00     0.028 C 
ATOM     10  C   LIG d   1      -4.455  82.286 122.717  0.00  0.00     0.006 C 
ENDBRANCH   8   9
BRANCH   8  11
ATOM     11  C   LIG d   1      -5.594  82.395 120.401  0.00  0.00     0.028 C 
ATOM     12  C   LIG d   1      -5.523  82.259 118.872  0.00  0.00     0.006 C 
ENDBRANCH   8  11
ENDBRANCH   7   8
ENDBRANCH   1   7
BRANCH   6  13
ATOM     13  N   LIG d   1     -10.024  82.478 120.828  0.00  0.00    -0.311 N 
ATOM     14  C   LIG d   1      -9.707  83.643 121.390  0.00  0.00     0.210 C 
ATOM     15  C   LIG d   1     -10.781  84.228 122.313  0.00  0.00     0.109 C 
ATOM     16  O   LIG d   1      -8.653  84.263 121.188  0.00  0.00    -0.276 OA
ATOM     17  H   LIG d   1     -10.913  82.061 121.022  0.00  0.00     0.149 HD
ENDBRANCH   6  13
BRANCH   5  18
ATOM     18  N   LIG d   1     -10.431  82.184 117.814  0.00  0.00     0.381 N 
ATOM     19  H   LIG d   1      -9.733  82.864 117.590  0.00  0.00    -0.090 HD
ATOM     20  H   LIG d   1     -11.177  82.647 118.303  0.00  0.00    -0.090 HD
ATOM     21  H   LIG d   1     -10.780  81.767 116.979  0.00  0.00    -0.090 HD
ENDBRANCH   5  18
BRANCH   3  22
ATOM     22  C   LIG d   1      -7.742  78.225 117.985  0.00  0.00     0.382 C 
ATOM     23  O   LIG d   1      -8.482  77.212 117.994  0.00  0.00    -0.241 OA
ATOM     24  O   LIG d   1      -6.620  78.159 117.448  0.00  0.00    -0.241 OA
ENDBRANCH   3  22
TORSDOF 7
ENDMDL
MODEL 5
REMARK VINA RESULT:      -4.3     11.087     12.388
REMARK  7 active torsions:
REMARK  status: ('A' for Active; 'I' for Inactive)
REMARK    1  A    between atoms: C_2  and  C_3 
REMARK    2  A    between atoms: C_3  and  O_6 
REMARK    3  A    between atoms: C_3  and  C_4 
REMARK    4  A    between atoms: C_7  and  O_6 
REMARK    5  A    between atoms: C_9  and  C_10 
REMARK    6  A    between atoms: N_15  and  C_14 
REMARK    7  A    between atoms: N_20  and  C_19 
REMARK       I    between atoms: C_22  and  N_20 
ROOT
ATOM      1  C   LIG d   1      -2.733  92.858 118.287  0.00  0.00     0.161 C 
ATOM      2  C   LIG d   1      -1.424  92.387 118.091  0.00  0.00     0.016 C 
ATOM      3  C   LIG d   1      -0.281  93.016 118.636  0.00  0.00     0.038 C 
ATOM      4  C   LIG d   1      -0.383  94.079 119.545  0.00  0.00     0.028 C 
ATOM      5  C   LIG d   1      -1.655  94.903 119.374  0.00  0.00    -0.047 C 
ATOM      6  C   LIG d   1      -2.873  93.951 119.367  0.00  0.00     0.091 C 
ENDROOT
BRANCH   1   7
ATOM      7  O   LIG d   1      -3.612  91.752 118.576  0.00  0.00    -0.368 OA
BRANCH   7   8
ATOM      8  C   LIG d   1      -4.002  90.935 117.446  0.00  0.00     0.119 C 
BRANCH   8   9
ATOM      9  C   LIG d   1      -5.521  90.697 117.549  0.00  0.00     0.028 C 
ATOM     10  C   LIG d   1      -6.314  92.010 117.666  0.00  0.00     0.006 C 
ENDBRANCH   8   9
BRANCH   8  11
ATOM     11  C   LIG d   1      -3.368  89.543 117.519  0.00  0.00     0.028 C 
ATOM     12  C   LIG d   1      -2.947  89.154 118.945  0.00  0.00     0.006 C 
ENDBRANCH   8  11
ENDBRANCH   7   8
ENDBRANCH   1   7
BRANCH   6  13
ATOM     13  N   LIG d   1      -4.151  94.667 119.119  0.00  0.00    -0.311 N 
ATOM     14  C   LIG d   1      -5.163  94.682 119.985  0.00  0.00     0.210 C 
ATOM     15  C   LIG d   1      -6.397  95.464 119.524  0.00  0.00     0.109 C 
ATOM     16  O   LIG d   1      -5.144  94.148 121.104  0.00  0.00    -0.276 OA
ATOM     17  H   LIG d   1      -4.240  95.153 118.248  0.00  0.00     0.149 HD
ENDBRANCH   6  13
BRANCH   5  18
ATOM     18  N   LIG d   1      -1.699  95.889 120.471  0.00  0.00     0.381 N 
ATOM     19  H   LIG d   1      -0.832  96.388 120.512  0.00  0.00    -0.090 HD
ATOM     20  H   LIG d   1      -1.824  95.402 121.341  0.00  0.00    -0.090 HD
ATOM     21  H   LIG d   1      -2.451  96.526 120.327  0.00  0.00    -0.090 HD
ENDBRANCH   5  18
BRANCH   3  22
ATOM     22  C   LIG d   1       0.983  92.606 118.240  0.00  0.00     0.382 C 
ATOM     23  O   LIG d   1       2.000  93.189 118.689  0.00  0.00    -0.241 OA
ATOM     24  O   LIG d   1       1.118  91.691 117.407  0.00  0.00    -0.241 OA
ENDBRANCH   3  22
TORSDOF 7
ENDMDL
MODEL 6
REMARK VINA RESULT:      -4.3      2.328      5.177
REMARK  7 active torsions:
REMARK  status: ('A' for Active; 'I' for Inactive)
REMARK    1  A    between atoms: C_2  and  C_3 
REMARK    2  A    between atoms: C_3  and  O_6 
REMARK    3  A    between atoms: C_3  and  C_4 
REMARK    4  A    between atoms: C_7  and  O_6 
REMARK    5  A    between atoms: C_9  and  C_10 
REMARK    6  A    between atoms: N_15  and  C_14 
REMARK    7  A    between atoms: N_20  and  C_19 
REMARK       I    between atoms: C_22  and  N_20 
ROOT
ATOM      1  C   LIG d   1      -7.191  81.012 120.708  0.00  0.00     0.161 C 
ATOM      2  C   LIG d   1      -8.035  80.533 119.692  0.00  0.00     0.016 C 
ATOM      3  C   LIG d   1      -9.115  81.277 119.163  0.00  0.00     0.038 C 
ATOM      4  C   LIG d   1      -9.331  82.619 119.509  0.00  0.00     0.028 C 
ATOM      5  C   LIG d   1      -8.813  82.977 120.898  0.00  0.00    -0.047 C 
ATOM      6  C   LIG d   1      -7.343  82.515 121.020  0.00  0.00     0.091 C 
ENDROOT
BRANCH   1   7
ATOM      7  O   LIG d   1      -5.820  80.703 120.389  0.00  0.00    -0.368 OA
BRANCH   7   8
ATOM      8  C   LIG d   1      -5.064  81.754 119.739  0.00  0.00     0.119 C 
BRANCH   8   9
ATOM      9  C   LIG d   1      -4.833  81.323 118.278  0.00  0.00     0.028 C 
ATOM     10  C   LIG d   1      -5.842  81.965 117.310  0.00  0.00     0.006 C 
ENDBRANCH   8   9
BRANCH   8  11
ATOM     11  C   LIG d   1      -3.665  81.891 120.346  0.00  0.00     0.028 C 
ATOM     12  C   LIG d   1      -2.553  81.912 119.285  0.00  0.00     0.006 C 
ENDBRANCH   8  11
ENDBRANCH   7   8
ENDBRANCH   1   7
BRANCH   6  13
ATOM     13  N   LIG d   1      -6.785  82.752 122.377  0.00  0.00    -0.311 N 
ATOM     14  C   LIG d   1      -6.060  83.823 122.695  0.00  0.00     0.210 C 
ATOM     15  C   LIG d   1      -5.565  83.861 124.145  0.00  0.00     0.109 C 
ATOM     16  O   LIG d   1      -5.808  84.760 121.924  0.00  0.00    -0.276 OA
ATOM     17  H   LIG d   1      -6.968  82.056 123.073  0.00  0.00     0.149 HD
ENDBRANCH   6  13
BRANCH   5  18
ATOM     18  N   LIG d   1      -8.979  84.432 121.074  0.00  0.00     0.381 N 
ATOM     19  H   LIG d   1      -8.588  84.713 121.951  0.00  0.00    -0.090 HD
ATOM     20  H   LIG d   1      -9.960  84.648 121.082  0.00  0.00    -0.090 HD
ATOM     21  H   LIG d   1      -8.530  84.919 120.330  0.00  0.00    -0.090 HD
ENDBRANCH   5  18
BRANCH   3  22
ATOM     22  C   LIG d   1     -10.016  80.665 118.305  0.00  0.00     0.382 C 
ATOM     23  O   LIG d   1     -10.565  81.330 117.394  0.00  0.00    -0.241 OA
ATOM     24  O   LIG d   1     -10.320  79.466 118.458  0.00  0.00    -0.241 OA
ENDBRANCH   3  22
TORSDOF 7
ENDMDL
MODEL 7
REMARK VINA RESULT:      -4.2     10.958     13.890
REMARK  7 active torsions:
REMARK  status: ('A' for Active; 'I' for Inactive)
REMARK    1  A    between atoms: C_2  and  C_3 
REMARK    2  A    between atoms: C_3  and  O_6 
REMARK    3  A    between atoms: C_3  and  C_4 
REMARK    4  A    between atoms: C_7  and  O_6 
REMARK    5  A    between atoms: C_9  and  C_10 
REMARK    6  A    between atoms: N_15  and  C_14 
REMARK    7  A    between atoms: N_20  and  C_19 
REMARK       I    between atoms: C_22  and  N_20 
ROOT
ATOM      1  C   LIG d   1     -17.402  72.963 121.571  0.00  0.00     0.161 C 
ATOM      2  C   LIG d   1     -17.148  71.587 121.452  0.00  0.00     0.016 C 
ATOM      3  C   LIG d   1     -16.984  70.930 120.210  0.00  0.00     0.038 C 
ATOM      4  C   LIG d   1     -16.913  71.637 119.001  0.00  0.00     0.028 C 
ATOM      5  C   LIG d   1     -17.667  72.962 119.029  0.00  0.00    -0.047 C 
ATOM      6  C   LIG d   1     -17.217  73.770 120.268  0.00  0.00     0.091 C 
ENDROOT
BRANCH   1   7
ATOM      7  O   LIG d   1     -16.592  73.520 122.624  0.00  0.00    -0.368 OA
BRANCH   7   8
ATOM      8  C   LIG d   1     -15.159  73.481 122.415  0.00  0.00     0.119 C 
BRANCH   8   9
ATOM      9  C   LIG d   1     -14.543  72.675 123.574  0.00  0.00     0.028 C 
ATOM     10  C   LIG d   1     -13.865  71.380 123.094  0.00  0.00     0.006 C 
ENDBRANCH   8   9
BRANCH   8  11
ATOM     11  C   LIG d   1     -14.542  74.879 122.521  0.00  0.00     0.028 C 
ATOM     12  C   LIG d   1     -13.277  75.039 121.662  0.00  0.00     0.006 C 
ENDBRANCH   8  11
ENDBRANCH   7   8
ENDBRANCH   1   7
BRANCH   6  13
ATOM     13  N   LIG d   1     -17.968  75.044 120.418  0.00  0.00    -0.311 N 
ATOM     14  C   LIG d   1     -17.406  76.245 120.293  0.00  0.00     0.210 C 
ATOM     15  C   LIG d   1     -18.356  77.428 120.506  0.00  0.00     0.109 C 
ATOM     16  O   LIG d   1     -16.219  76.442 119.995  0.00  0.00    -0.276 OA
ATOM     17  H   LIG d   1     -18.944  74.976 120.629  0.00  0.00     0.149 HD
ENDBRANCH   6  13
BRANCH   5  18
ATOM     18  N   LIG d   1     -17.395  73.657 117.757  0.00  0.00     0.381 N 
ATOM     19  H   LIG d   1     -17.360  72.993 117.009  0.00  0.00    -0.090 HD
ATOM     20  H   LIG d   1     -16.501  74.110 117.818  0.00  0.00    -0.090 HD
ATOM     21  H   LIG d   1     -18.106  74.332 117.578  0.00  0.00    -0.090 HD
ENDBRANCH   5  18
BRANCH   3  22
ATOM     22  C   LIG d   1     -16.929  69.545 120.168  0.00  0.00     0.382 C 
ATOM     23  O   LIG d   1     -17.903  68.893 119.720  0.00  0.00    -0.241 OA
ATOM     24  O   LIG d   1     -15.936  68.938 120.611  0.00  0.00    -0.241 OA
ENDBRANCH   3  22
TORSDOF 7
ENDMDL
MODEL 8
REMARK VINA RESULT:      -4.2     14.365     15.953
REMARK  7 active torsions:
REMARK  status: ('A' for Active; 'I' for Inactive)
REMARK    1  A    between atoms: C_2  and  C_3 
REMARK    2  A    between atoms: C_3  and  O_6 
REMARK    3  A    between atoms: C_3  and  C_4 
REMARK    4  A    between atoms: C_7  and  O_6 
REMARK    5  A    between atoms: C_9  and  C_10 
REMARK    6  A    between atoms: N_15  and  C_14 
REMARK    7  A    between atoms: N_20  and  C_19 
REMARK       I    between atoms: C_22  and  N_20 
ROOT
ATOM      1  C   LIG d   1     -15.530  68.792 121.168  0.00  0.00     0.161 C 
ATOM      2  C   LIG d   1     -14.476  68.820 122.096  0.00  0.00     0.016 C 
ATOM      3  C   LIG d   1     -13.329  67.999 121.996  0.00  0.00     0.038 C 
ATOM      4  C   LIG d   1     -13.088  67.197 120.871  0.00  0.00     0.028 C 
ATOM      5  C   LIG d   1     -14.360  66.759 120.154  0.00  0.00    -0.047 C 
ATOM      6  C   LIG d   1     -15.233  68.004 119.875  0.00  0.00     0.091 C 
ENDROOT
BRANCH   1   7
ATOM      7  O   LIG d   1     -15.938  70.138 120.852  0.00  0.00    -0.368 OA
BRANCH   7   8
ATOM      8  C   LIG d   1     -17.224  70.553 121.374  0.00  0.00     0.119 C 
BRANCH   8   9
ATOM      9  C   LIG d   1     -17.954  71.319 120.254  0.00  0.00     0.028 C 
ATOM     10  C   LIG d   1     -17.053  71.571 119.033  0.00  0.00     0.006 C 
ENDBRANCH   8   9
BRANCH   8  11
ATOM     11  C   LIG d   1     -17.062  71.562 122.516  0.00  0.00     0.028 C 
ATOM     12  C   LIG d   1     -15.756  72.366 122.420  0.00  0.00     0.006 C 
ENDBRANCH   8  11
ENDBRANCH   7   8
ENDBRANCH   1   7
BRANCH   6  13
ATOM     13  N   LIG d   1     -16.536  67.655 119.251  0.00  0.00    -0.311 N 
ATOM     14  C   LIG d   1     -16.860  67.980 118.001  0.00  0.00     0.210 C 
ATOM     15  C   LIG d   1     -18.261  67.541 117.562  0.00  0.00     0.109 C 
ATOM     16  O   LIG d   1     -16.109  68.562 117.204  0.00  0.00    -0.276 OA
ATOM     17  H   LIG d   1     -17.193  67.155 119.817  0.00  0.00     0.149 HD
ENDBRANCH   6  13
BRANCH   5  18
ATOM     18  N   LIG d   1     -13.958  66.047 118.926  0.00  0.00     0.381 N 
ATOM     19  H   LIG d   1     -12.963  65.948 118.903  0.00  0.00    -0.090 HD
ATOM     20  H   LIG d   1     -14.240  66.590 118.129  0.00  0.00    -0.090 HD
ATOM     21  H   LIG d   1     -14.390  65.150 118.895  0.00  0.00    -0.090 HD
ENDBRANCH   5  18
BRANCH   3  22
ATOM     22  C   LIG d   1     -12.429  67.945 123.049  0.00  0.00     0.382 C 
ATOM     23  O   LIG d   1     -12.575  68.703 124.038  0.00  0.00    -0.241 OA
ATOM     24  O   LIG d   1     -11.447  67.181 123.002  0.00  0.00    -0.241 OA
ENDBRANCH   3  22
TORSDOF 7
ENDMDL
MODEL 9
REMARK VINA RESULT:      -4.2      2.297      5.764
REMARK  7 active torsions:
REMARK  status: ('A' for Active; 'I' for Inactive)
REMARK    1  A    between atoms: C_2  and  C_3 
REMARK    2  A    between atoms: C_3  and  O_6 
REMARK    3  A    between atoms: C_3  and  C_4 
REMARK    4  A    between atoms: C_7  and  O_6 
REMARK    5  A    between atoms: C_9  and  C_10 
REMARK    6  A    between atoms: N_15  and  C_14 
REMARK    7  A    between atoms: N_20  and  C_19 
REMARK       I    between atoms: C_22  and  N_20 
ROOT
ATOM      1  C   LIG d   1      -6.907  81.819 119.596  0.00  0.00     0.161 C 
ATOM      2  C   LIG d   1      -8.229  81.393 119.387  0.00  0.00     0.016 C 
ATOM      3  C   LIG d   1      -8.570  80.269 118.600  0.00  0.00     0.038 C 
ATOM      4  C   LIG d   1      -7.596  79.400 118.088  0.00  0.00     0.028 C 
ATOM      5  C   LIG d   1      -6.248  80.073 117.850  0.00  0.00    -0.047 C 
ATOM      6  C   LIG d   1      -5.825  80.818 119.136  0.00  0.00     0.091 C 
ENDROOT
BRANCH   1   7
ATOM      7  O   LIG d   1      -6.716  82.160 120.983  0.00  0.00    -0.368 OA
BRANCH   7   8
ATOM      8  C   LIG d   1      -6.789  83.571 121.308  0.00  0.00     0.119 C 
BRANCH   8   9
ATOM      9  C   LIG d   1      -5.470  83.954 122.005  0.00  0.00     0.028 C 
ATOM     10  C   LIG d   1      -4.650  82.723 122.427  0.00  0.00     0.006 C 
ENDBRANCH   8   9
BRANCH   8  11
ATOM     11  C   LIG d   1      -7.888  83.849 122.337  0.00  0.00     0.028 C 
ATOM     12  C   LIG d   1      -9.026  84.716 121.775  0.00  0.00     0.006 C 
ENDBRANCH   8  11
ENDBRANCH   7   8
ENDBRANCH   1   7
BRANCH   6  13
ATOM     13  N   LIG d   1      -4.558  81.574 118.963  0.00  0.00    -0.311 N 
ATOM     14  C   LIG d   1      -3.362  81.085 119.289  0.00  0.00     0.210 C 
ATOM     15  C   LIG d   1      -2.187  82.037 119.048  0.00  0.00     0.109 C 
ATOM     16  O   LIG d   1      -3.160  79.942 119.724  0.00  0.00    -0.276 OA
ATOM     17  H   LIG d   1      -4.626  82.499 118.587  0.00  0.00     0.149 HD
ENDBRANCH   6  13
BRANCH   5  18
ATOM     18  N   LIG d   1      -5.291  79.024 117.448  0.00  0.00     0.381 N 
ATOM     19  H   LIG d   1      -4.516  79.012 118.081  0.00  0.00    -0.090 HD
ATOM     20  H   LIG d   1      -4.944  79.236 116.529  0.00  0.00    -0.090 HD
ATOM     21  H   LIG d   1      -5.741  78.135 117.445  0.00  0.00    -0.090 HD
ENDBRANCH   5  18
BRANCH   3  22
ATOM     22  C   LIG d   1      -9.899  80.029 118.285  0.00  0.00     0.382 C 
ATOM     23  O   LIG d   1     -10.558  80.887 117.649  0.00  0.00    -0.241 OA
ATOM     24  O   LIG d   1     -10.459  78.984 118.666  0.00  0.00    -0.241 OA
ENDBRANCH   3  22
TORSDOF 7
ENDMDL
