MODEL 1
REMARK VINA RESULT:      -5.7      0.000      0.000
REMARK  7 active torsions:
REMARK  status: ('A' for Active; 'I' for Inactive)
REMARK    1  A    between atoms: C_2  and  C_3 
REMARK    2  A    between atoms: C_3  and  O_6 
REMARK    3  A    between atoms: C_3  and  C_4 
REMARK    4  A    between atoms: C_7  and  O_6 
REMARK    5  A    between atoms: C_9  and  C_10 
REMARK    6  A    between atoms: N_15  and  C_14 
REMARK    7  A    between atoms: N_20  and  C_19 
REMARK       I    between atoms: C_22  and  N_20 
ROOT
ATOM      1  C   LIG d   1      -5.056  92.300 117.927  0.00  0.00     0.161 C 
ATOM      2  C   LIG d   1      -5.128  91.435 116.822  0.00  0.00     0.016 C 
ATOM      3  C   LIG d   1      -6.257  91.345 115.976  0.00  0.00     0.038 C 
ATOM      4  C   LIG d   1      -7.340  92.229 116.088  0.00  0.00     0.028 C 
ATOM      5  C   LIG d   1      -7.529  92.779 117.498  0.00  0.00    -0.047 C 
ATOM      6  C   LIG d   1      -6.184  93.351 117.999  0.00  0.00     0.091 C 
ENDROOT
BRANCH   1   7
ATOM      7  O   LIG d   1      -3.768  92.945 117.960  0.00  0.00    -0.368 OA
BRANCH   7   8
ATOM      8  C   LIG d   1      -2.677  92.161 118.503  0.00  0.00     0.119 C 
BRANCH   8   9
ATOM      9  C   LIG d   1      -3.046  91.796 119.954  0.00  0.00     0.028 C 
ATOM     10  C   LIG d   1      -2.476  90.432 120.379  0.00  0.00     0.006 C 
ENDBRANCH   8   9
BRANCH   8  11
ATOM     11  C   LIG d   1      -1.393  92.990 118.607  0.00  0.00     0.028 C 
ATOM     12  C   LIG d   1      -1.244  94.004 117.462  0.00  0.00     0.006 C 
ENDBRANCH   8  11
ENDBRANCH   7   8
ENDBRANCH   1   7
BRANCH   6  13
ATOM     13  N   LIG d   1      -6.260  93.834 119.403  0.00  0.00    -0.311 N 
ATOM     14  C   LIG d   1      -6.583  95.083 119.732  0.00  0.00     0.210 C 
ATOM     15  C   LIG d   1      -6.584  95.376 121.236  0.00  0.00     0.109 C 
ATOM     16  O   LIG d   1      -6.901  95.968 118.923  0.00  0.00    -0.276 OA
ATOM     17  H   LIG d   1      -6.048  93.173 120.124  0.00  0.00     0.149 HD
ENDBRANCH   6  13
BRANCH   5  18
ATOM     18  N   LIG d   1      -8.603  93.789 117.442  0.00  0.00     0.381 N 
ATOM     19  H   LIG d   1      -8.289  94.589 116.929  0.00  0.00    -0.090 HD
ATOM     20  H   LIG d   1      -8.823  94.081 118.378  0.00  0.00    -0.090 HD
ATOM     21  H   LIG d   1      -9.412  93.403 117.008  0.00  0.00    -0.090 HD
ENDBRANCH   5  18
BRANCH   3  22
ATOM     22  C   LIG d   1      -6.326  90.335 115.029  0.00  0.00     0.382 C 
ATOM     23  O   LIG d   1      -7.406  90.110 114.430  0.00  0.00    -0.241 OA
ATOM     24  O   LIG d   1      -5.335  89.617 114.797  0.00  0.00    -0.241 OA
ENDBRANCH   3  22
TORSDOF 7
ENDMDL
MODEL 2
REMARK VINA RESULT:      -5.4      0.841      1.654
REMARK  7 active torsions:
REMARK  status: ('A' for Active; 'I' for Inactive)
REMARK    1  A    between atoms: C_2  and  C_3 
REMARK    2  A    between atoms: C_3  and  O_6 
REMARK    3  A    between atoms: C_3  and  C_4 
REMARK    4  A    between atoms: C_7  and  O_6 
REMARK    5  A    between atoms: C_9  and  C_10 
REMARK    6  A    between atoms: N_15  and  C_14 
REMARK    7  A    between atoms: N_20  and  C_19 
REMARK       I    between atoms: C_22  and  N_20 
ROOT
ATOM      1  C   LIG d   1      -4.858  92.231 117.877  0.00  0.00     0.161 C 
ATOM      2  C   LIG d   1      -5.125  91.447 116.743  0.00  0.00     0.016 C 
ATOM      3  C   LIG d   1      -6.336  91.515 116.017  0.00  0.00     0.038 C 
ATOM      4  C   LIG d   1      -7.310  92.488 116.289  0.00  0.00     0.028 C 
ATOM      5  C   LIG d   1      -7.302  92.964 117.738  0.00  0.00    -0.047 C 
ATOM      6  C   LIG d   1      -5.863  93.376 118.123  0.00  0.00     0.091 C 
ENDROOT
BRANCH   1   7
ATOM      7  O   LIG d   1      -3.515  92.750 117.808  0.00  0.00    -0.368 OA
BRANCH   7   8
ATOM      8  C   LIG d   1      -2.600  92.289 118.832  0.00  0.00     0.119 C 
BRANCH   8   9
ATOM      9  C   LIG d   1      -1.660  93.461 119.174  0.00  0.00     0.028 C 
ATOM     10  C   LIG d   1      -2.273  94.827 118.822  0.00  0.00     0.006 C 
ENDBRANCH   8   9
BRANCH   8  11
ATOM     11  C   LIG d   1      -1.687  91.178 118.305  0.00  0.00     0.028 C 
ATOM     12  C   LIG d   1      -2.271  89.773 118.524  0.00  0.00     0.006 C 
ENDBRANCH   8  11
ENDBRANCH   7   8
ENDBRANCH   1   7
BRANCH   6  13
ATOM     13  N   LIG d   1      -5.750  93.775 119.550  0.00  0.00    -0.311 N 
ATOM     14  C   LIG d   1      -5.882  95.031 119.973  0.00  0.00     0.210 C 
ATOM     15  C   LIG d   1      -5.709  95.227 121.482  0.00  0.00     0.109 C 
ATOM     16  O   LIG d   1      -6.159  95.997 119.245  0.00  0.00    -0.276 OA
ATOM     17  H   LIG d   1      -5.557  93.050 120.213  0.00  0.00     0.149 HD
ENDBRANCH   6  13
BRANCH   5  18
ATOM     18  N   LIG d   1      -8.270  94.071 117.849  0.00  0.00     0.381 N 
ATOM     19  H   LIG d   1      -8.452  94.267 118.813  0.00  0.00    -0.090 HD
ATOM     20  H   LIG d   1      -9.133  93.794 117.415  0.00  0.00    -0.090 HD
ATOM     21  H   LIG d   1      -7.910  94.885 117.400  0.00  0.00    -0.090 HD
ENDBRANCH   5  18
BRANCH   3  22
ATOM     22  C   LIG d   1      -6.601  90.577 115.031  0.00  0.00     0.382 C 
ATOM     23  O   LIG d   1      -7.702  90.592 114.430  0.00  0.00    -0.241 OA
ATOM     24  O   LIG d   1      -5.769  89.688 114.765  0.00  0.00    -0.241 OA
ENDBRANCH   3  22
TORSDOF 7
ENDMDL
MODEL 3
REMARK VINA RESULT:      -5.3      1.471      2.275
REMARK  7 active torsions:
REMARK  status: ('A' for Active; 'I' for Inactive)
REMARK    1  A    between atoms: C_2  and  C_3 
REMARK    2  A    between atoms: C_3  and  O_6 
REMARK    3  A    between atoms: C_3  and  C_4 
REMARK    4  A    between atoms: C_7  and  O_6 
REMARK    5  A    between atoms: C_9  and  C_10 
REMARK    6  A    between atoms: N_15  and  C_14 
REMARK    7  A    between atoms: N_20  and  C_19 
REMARK       I    between atoms: C_22  and  N_20 
ROOT
ATOM      1  C   LIG d   1      -4.541  92.154 117.965  0.00  0.00     0.161 C 
ATOM      2  C   LIG d   1      -5.094  91.505 116.849  0.00  0.00     0.016 C 
ATOM      3  C   LIG d   1      -6.398  91.762 116.366  0.00  0.00     0.038 C 
ATOM      4  C   LIG d   1      -7.187  92.803 116.879  0.00  0.00     0.028 C 
ATOM      5  C   LIG d   1      -6.868  93.146 118.330  0.00  0.00    -0.047 C 
ATOM      6  C   LIG d   1      -5.345  93.371 118.470  0.00  0.00     0.091 C 
ENDROOT
BRANCH   1   7
ATOM      7  O   LIG d   1      -3.180  92.535 117.684  0.00  0.00    -0.368 OA
BRANCH   7   8
ATOM      8  C   LIG d   1      -2.175  92.030 118.599  0.00  0.00     0.119 C 
BRANCH   8   9
ATOM      9  C   LIG d   1      -1.048  93.078 118.672  0.00  0.00     0.028 C 
ATOM     10  C   LIG d   1      -1.253  94.232 117.676  0.00  0.00     0.006 C 
ENDBRANCH   8   9
BRANCH   8  11
ATOM     11  C   LIG d   1      -1.514  90.761 118.054  0.00  0.00     0.028 C 
ATOM     12  C   LIG d   1      -2.146  89.475 118.609  0.00  0.00     0.006 C 
ENDBRANCH   8  11
ENDBRANCH   7   8
ENDBRANCH   1   7
BRANCH   6  13
ATOM     13  N   LIG d   1      -4.937  93.629 119.875  0.00  0.00    -0.311 N 
ATOM     14  C   LIG d   1      -4.233  94.695 120.250  0.00  0.00     0.210 C 
ATOM     15  C   LIG d   1      -3.900  94.758 121.744  0.00  0.00     0.109 C 
ATOM     16  O   LIG d   1      -3.880  95.612 119.493  0.00  0.00    -0.276 OA
ATOM     17  H   LIG d   1      -5.208  92.951 120.561  0.00  0.00     0.149 HD
ENDBRANCH   6  13
BRANCH   5  18
ATOM     18  N   LIG d   1      -7.664  94.333 118.693  0.00  0.00     0.381 N 
ATOM     19  H   LIG d   1      -7.172  95.164 118.430  0.00  0.00    -0.090 HD
ATOM     20  H   LIG d   1      -7.794  94.346 119.689  0.00  0.00    -0.090 HD
ATOM     21  H   LIG d   1      -8.549  94.304 118.236  0.00  0.00    -0.090 HD
ENDBRANCH   5  18
BRANCH   3  22
ATOM     22  C   LIG d   1      -6.940  90.947 115.384  0.00  0.00     0.382 C 
ATOM     23  O   LIG d   1      -6.311  89.935 114.992  0.00  0.00    -0.241 OA
ATOM     24  O   LIG d   1      -8.030  91.236 114.854  0.00  0.00    -0.241 OA
ENDBRANCH   3  22
TORSDOF 7
ENDMDL
MODEL 4
REMARK VINA RESULT:      -5.2      2.267      4.372
REMARK  7 active torsions:
REMARK  status: ('A' for Active; 'I' for Inactive)
REMARK    1  A    between atoms: C_2  and  C_3 
REMARK    2  A    between atoms: C_3  and  O_6 
REMARK    3  A    between atoms: C_3  and  C_4 
REMARK    4  A    between atoms: C_7  and  O_6 
REMARK    5  A    between atoms: C_9  and  C_10 
REMARK    6  A    between atoms: N_15  and  C_14 
REMARK    7  A    between atoms: N_20  and  C_19 
REMARK       I    between atoms: C_22  and  N_20 
ROOT
ATOM      1  C   LIG d   1      -6.031  93.490 118.537  0.00  0.00     0.161 C 
ATOM      2  C   LIG d   1      -6.648  92.816 117.469  0.00  0.00     0.016 C 
ATOM      3  C   LIG d   1      -5.989  91.851 116.674  0.00  0.00     0.038 C 
ATOM      4  C   LIG d   1      -4.705  91.381 116.990  0.00  0.00     0.028 C 
ATOM      5  C   LIG d   1      -3.860  92.394 117.753  0.00  0.00    -0.047 C 
ATOM      6  C   LIG d   1      -4.667  92.910 118.966  0.00  0.00     0.091 C 
ENDROOT
BRANCH   1   7
ATOM      7  O   LIG d   1      -6.929  93.546 119.663  0.00  0.00    -0.368 OA
BRANCH   7   8
ATOM      8  C   LIG d   1      -7.462  94.853 119.989  0.00  0.00     0.119 C 
BRANCH   8   9
ATOM      9  C   LIG d   1      -8.899  94.918 119.436  0.00  0.00     0.028 C 
ATOM     10  C   LIG d   1      -9.008  95.818 118.193  0.00  0.00     0.006 C 
ENDBRANCH   8   9
BRANCH   8  11
ATOM     11  C   LIG d   1      -6.697  95.963 119.264  0.00  0.00     0.028 C 
ATOM     12  C   LIG d   1      -6.023  96.951 120.229  0.00  0.00     0.006 C 
ENDBRANCH   8  11
ENDBRANCH   7   8
ENDBRANCH   1   7
BRANCH   6  13
ATOM     13  N   LIG d   1      -3.945  93.968 119.719  0.00  0.00    -0.311 N 
ATOM     14  C   LIG d   1      -3.758  93.932 121.038  0.00  0.00     0.210 C 
ATOM     15  C   LIG d   1      -3.005  95.134 121.617  0.00  0.00     0.109 C 
ATOM     16  O   LIG d   1      -4.114  93.002 121.777  0.00  0.00    -0.276 OA
ATOM     17  H   LIG d   1      -3.595  94.744 119.193  0.00  0.00     0.149 HD
ENDBRANCH   6  13
BRANCH   5  18
ATOM     18  N   LIG d   1      -2.602  91.727 118.137  0.00  0.00     0.381 N 
ATOM     19  H   LIG d   1      -2.500  91.743 119.132  0.00  0.00    -0.090 HD
ATOM     20  H   LIG d   1      -1.831  92.228 117.733  0.00  0.00    -0.090 HD
ATOM     21  H   LIG d   1      -2.602  90.785 117.812  0.00  0.00    -0.090 HD
ENDBRANCH   5  18
BRANCH   3  22
ATOM     22  C   LIG d   1      -6.600  91.374 115.524  0.00  0.00     0.382 C 
ATOM     23  O   LIG d   1      -7.028  90.195 115.485  0.00  0.00    -0.241 OA
ATOM     24  O   LIG d   1      -6.689  92.094 114.512  0.00  0.00    -0.241 OA
ENDBRANCH   3  22
TORSDOF 7
ENDMDL
MODEL 5
REMARK VINA RESULT:      -4.3      6.192      8.391
REMARK  7 active torsions:
REMARK  status: ('A' for Active; 'I' for Inactive)
REMARK    1  A    between atoms: C_2  and  C_3 
REMARK    2  A    between atoms: C_3  and  O_6 
REMARK    3  A    between atoms: C_3  and  C_4 
REMARK    4  A    between atoms: C_7  and  O_6 
REMARK    5  A    between atoms: C_9  and  C_10 
REMARK    6  A    between atoms: N_15  and  C_14 
REMARK    7  A    between atoms: N_20  and  C_19 
REMARK       I    between atoms: C_22  and  N_20 
ROOT
ATOM      1  C   LIG d   1       0.907  88.975 117.137  0.00  0.00     0.161 C 
ATOM      2  C   LIG d   1      -0.487  88.816 117.074  0.00  0.00     0.016 C 
ATOM      3  C   LIG d   1      -1.398  89.646 117.768  0.00  0.00     0.038 C 
ATOM      4  C   LIG d   1      -0.978  90.793 118.458  0.00  0.00     0.028 C 
ATOM      5  C   LIG d   1       0.457  90.702 118.966  0.00  0.00    -0.047 C 
ATOM      6  C   LIG d   1       1.379  90.289 117.796  0.00  0.00     0.091 C 
ENDROOT
BRANCH   1   7
ATOM      7  O   LIG d   1       1.475  88.844 115.819  0.00  0.00    -0.368 OA
BRANCH   7   8
ATOM      8  C   LIG d   1       2.496  87.828 115.663  0.00  0.00     0.119 C 
BRANCH   8   9
ATOM      9  C   LIG d   1       3.573  88.394 114.718  0.00  0.00     0.028 C 
ATOM     10  C   LIG d   1       4.999  88.135 115.231  0.00  0.00     0.006 C 
ENDBRANCH   8   9
BRANCH   8  11
ATOM     11  C   LIG d   1       1.944  86.588 114.953  0.00  0.00     0.028 C 
ATOM     12  C   LIG d   1       1.569  85.460 115.927  0.00  0.00     0.006 C 
ENDBRANCH   8  11
ENDBRANCH   7   8
ENDBRANCH   1   7
BRANCH   6  13
ATOM     13  N   LIG d   1       2.788  90.096 118.225  0.00  0.00    -0.311 N 
ATOM     14  C   LIG d   1       3.813  90.765 117.699  0.00  0.00     0.210 C 
ATOM     15  C   LIG d   1       5.186  90.399 118.272  0.00  0.00     0.109 C 
ATOM     16  O   LIG d   1       3.712  91.649 116.836  0.00  0.00    -0.276 OA
ATOM     17  H   LIG d   1       2.958  89.419 118.944  0.00  0.00     0.149 HD
ENDBRANCH   6  13
BRANCH   5  18
ATOM     18  N   LIG d   1       0.809  92.014 119.543  0.00  0.00     0.381 N 
ATOM     19  H   LIG d   1       1.727  92.279 119.246  0.00  0.00    -0.090 HD
ATOM     20  H   LIG d   1       0.811  91.938 120.545  0.00  0.00    -0.090 HD
ATOM     21  H   LIG d   1       0.147  92.701 119.256  0.00  0.00    -0.090 HD
ENDBRANCH   5  18
BRANCH   3  22
ATOM     22  C   LIG d   1      -2.742  89.307 117.809  0.00  0.00     0.382 C 
ATOM     23  O   LIG d   1      -3.528  89.757 116.941  0.00  0.00    -0.241 OA
ATOM     24  O   LIG d   1      -3.186  88.594 118.729  0.00  0.00    -0.241 OA
ENDBRANCH   3  22
TORSDOF 7
ENDMDL
MODEL 6
REMARK VINA RESULT:      -4.3      3.188      4.741
REMARK  7 active torsions:
REMARK  status: ('A' for Active; 'I' for Inactive)
REMARK    1  A    between atoms: C_2  and  C_3 
REMARK    2  A    between atoms: C_3  and  O_6 
REMARK    3  A    between atoms: C_3  and  C_4 
REMARK    4  A    between atoms: C_7  and  O_6 
REMARK    5  A    between atoms: C_9  and  C_10 
REMARK    6  A    between atoms: N_15  and  C_14 
REMARK    7  A    between atoms: N_20  and  C_19 
REMARK       I    between atoms: C_22  and  N_20 
ROOT
ATOM      1  C   LIG d   1      -2.669  90.328 118.167  0.00  0.00     0.161 C 
ATOM      2  C   LIG d   1      -3.746  90.440 117.272  0.00  0.00     0.016 C 
ATOM      3  C   LIG d   1      -4.598  91.567 117.217  0.00  0.00     0.038 C 
ATOM      4  C   LIG d   1      -4.338  92.730 117.956  0.00  0.00     0.028 C 
ATOM      5  C   LIG d   1      -3.558  92.470 119.240  0.00  0.00    -0.047 C 
ATOM      6  C   LIG d   1      -2.302  91.634 118.904  0.00  0.00     0.091 C 
ENDROOT
BRANCH   1   7
ATOM      7  O   LIG d   1      -1.517  89.799 117.482  0.00  0.00    -0.368 OA
BRANCH   7   8
ATOM      8  C   LIG d   1      -1.364  88.359 117.511  0.00  0.00     0.119 C 
BRANCH   8   9
ATOM      9  C   LIG d   1      -1.201  87.941 118.986  0.00  0.00     0.028 C 
ATOM     10  C   LIG d   1      -0.936  86.434 119.143  0.00  0.00     0.006 C 
ENDBRANCH   8   9
BRANCH   8  11
ATOM     11  C   LIG d   1      -0.068  87.922 116.821  0.00  0.00     0.028 C 
ATOM     12  C   LIG d   1       1.056  88.962 116.950  0.00  0.00     0.006 C 
ENDBRANCH   8  11
ENDBRANCH   7   8
ENDBRANCH   1   7
BRANCH   6  13
ATOM     13  N   LIG d   1      -1.527  91.263 120.116  0.00  0.00    -0.311 N 
ATOM     14  C   LIG d   1      -0.503  91.979 120.579  0.00  0.00     0.210 C 
ATOM     15  C   LIG d   1       0.171  91.409 121.830  0.00  0.00     0.109 C 
ATOM     16  O   LIG d   1      -0.110  93.048 120.090  0.00  0.00    -0.276 OA
ATOM     17  H   LIG d   1      -1.798  90.426 120.593  0.00  0.00     0.149 HD
ENDBRANCH   6  13
BRANCH   5  18
ATOM     18  N   LIG d   1      -3.237  93.779 119.839  0.00  0.00     0.381 N 
ATOM     19  H   LIG d   1      -3.359  94.503 119.159  0.00  0.00    -0.090 HD
ATOM     20  H   LIG d   1      -2.275  93.778 120.128  0.00  0.00    -0.090 HD
ATOM     21  H   LIG d   1      -3.827  93.949 120.624  0.00  0.00    -0.090 HD
ENDBRANCH   5  18
BRANCH   3  22
ATOM     22  C   LIG d   1      -5.749  91.521 116.444  0.00  0.00     0.382 C 
ATOM     23  O   LIG d   1      -6.006  90.500 115.762  0.00  0.00    -0.241 OA
ATOM     24  O   LIG d   1      -6.511  92.504 116.387  0.00  0.00    -0.241 OA
ENDBRANCH   3  22
TORSDOF 7
ENDMDL
MODEL 7
REMARK VINA RESULT:      -4.3      2.618      4.901
REMARK  7 active torsions:
REMARK  status: ('A' for Active; 'I' for Inactive)
REMARK    1  A    between atoms: C_2  and  C_3 
REMARK    2  A    between atoms: C_3  and  O_6 
REMARK    3  A    between atoms: C_3  and  C_4 
REMARK    4  A    between atoms: C_7  and  O_6 
REMARK    5  A    between atoms: C_9  and  C_10 
REMARK    6  A    between atoms: N_15  and  C_14 
REMARK    7  A    between atoms: N_20  and  C_19 
REMARK       I    between atoms: C_22  and  N_20 
ROOT
ATOM      1  C   LIG d   1      -4.445  92.754 118.592  0.00  0.00     0.161 C 
ATOM      2  C   LIG d   1      -5.573  92.742 117.754  0.00  0.00     0.016 C 
ATOM      3  C   LIG d   1      -5.775  91.784 116.735  0.00  0.00     0.038 C 
ATOM      4  C   LIG d   1      -4.930  90.675 116.581  0.00  0.00     0.028 C 
ATOM      5  C   LIG d   1      -3.509  90.924 117.074  0.00  0.00    -0.047 C 
ATOM      6  C   LIG d   1      -3.568  91.487 118.512  0.00  0.00     0.091 C 
ENDROOT
BRANCH   1   7
ATOM      7  O   LIG d   1      -4.850  92.999 119.953  0.00  0.00    -0.368 OA
BRANCH   7   8
ATOM      8  C   LIG d   1      -5.770  94.099 120.157  0.00  0.00     0.119 C 
BRANCH   8   9
ATOM      9  C   LIG d   1      -4.928  95.371 120.378  0.00  0.00     0.028 C 
ATOM     10  C   LIG d   1      -5.510  96.594 119.648  0.00  0.00     0.006 C 
ENDBRANCH   8   9
BRANCH   8  11
ATOM     11  C   LIG d   1      -6.578  93.919 121.445  0.00  0.00     0.028 C 
ATOM     12  C   LIG d   1      -8.071  94.238 121.262  0.00  0.00     0.006 C 
ENDBRANCH   8  11
ENDBRANCH   7   8
ENDBRANCH   1   7
BRANCH   6  13
ATOM     13  N   LIG d   1      -2.223  91.838 119.039  0.00  0.00    -0.311 N 
ATOM     14  C   LIG d   1      -1.481  91.006 119.767  0.00  0.00     0.210 C 
ATOM     15  C   LIG d   1      -0.135  91.574 120.227  0.00  0.00     0.109 C 
ATOM     16  O   LIG d   1      -1.796  89.840 120.048  0.00  0.00    -0.276 OA
ATOM     17  H   LIG d   1      -1.877  92.754 118.832  0.00  0.00     0.149 HD
ENDBRANCH   6  13
BRANCH   5  18
ATOM     18  N   LIG d   1      -2.775  89.648 116.982  0.00  0.00     0.381 N 
ATOM     19  H   LIG d   1      -1.843  89.767 117.327  0.00  0.00    -0.090 HD
ATOM     20  H   LIG d   1      -2.721  89.372 116.018  0.00  0.00    -0.090 HD
ATOM     21  H   LIG d   1      -3.245  88.946 117.510  0.00  0.00    -0.090 HD
ENDBRANCH   5  18
BRANCH   3  22
ATOM     22  C   LIG d   1      -6.812  91.952 115.829  0.00  0.00     0.382 C 
ATOM     23  O   LIG d   1      -8.002  91.893 116.220  0.00  0.00    -0.241 OA
ATOM     24  O   LIG d   1      -6.572  92.119 114.618  0.00  0.00    -0.241 OA
ENDBRANCH   3  22
TORSDOF 7
ENDMDL
MODEL 8
REMARK VINA RESULT:      -4.3      4.191      6.758
REMARK  7 active torsions:
REMARK  status: ('A' for Active; 'I' for Inactive)
REMARK    1  A    between atoms: C_2  and  C_3 
REMARK    2  A    between atoms: C_3  and  O_6 
REMARK    3  A    between atoms: C_3  and  C_4 
REMARK    4  A    between atoms: C_7  and  O_6 
REMARK    5  A    between atoms: C_9  and  C_10 
REMARK    6  A    between atoms: N_15  and  C_14 
REMARK    7  A    between atoms: N_20  and  C_19 
REMARK       I    between atoms: C_22  and  N_20 
ROOT
ATOM      1  C   LIG d   1      -0.748  89.769 117.053  0.00  0.00     0.161 C 
ATOM      2  C   LIG d   1       0.649  89.618 117.027  0.00  0.00     0.016 C 
ATOM      3  C   LIG d   1       1.546  90.604 117.498  0.00  0.00     0.038 C 
ATOM      4  C   LIG d   1       1.101  91.752 118.170  0.00  0.00     0.028 C 
ATOM      5  C   LIG d   1      -0.306  92.182 117.768  0.00  0.00    -0.047 C 
ATOM      6  C   LIG d   1      -1.254  90.966 117.884  0.00  0.00     0.091 C 
ENDROOT
BRANCH   1   7
ATOM      7  O   LIG d   1      -1.363  88.547 117.508  0.00  0.00    -0.368 OA
BRANCH   7   8
ATOM      8  C   LIG d   1      -1.135  88.198 118.896  0.00  0.00     0.119 C 
BRANCH   8   9
ATOM      9  C   LIG d   1      -0.592  86.757 118.928  0.00  0.00     0.028 C 
ATOM     10  C   LIG d   1      -1.525  85.794 119.680  0.00  0.00     0.006 C 
ENDBRANCH   8   9
BRANCH   8  11
ATOM     11  C   LIG d   1      -2.449  88.154 119.682  0.00  0.00     0.028 C 
ATOM     12  C   LIG d   1      -2.457  89.111 120.884  0.00  0.00     0.006 C 
ENDBRANCH   8  11
ENDBRANCH   7   8
ENDBRANCH   1   7
BRANCH   6  13
ATOM     13  N   LIG d   1      -2.634  91.279 117.429  0.00  0.00    -0.311 N 
ATOM     14  C   LIG d   1      -3.559  91.827 118.215  0.00  0.00     0.210 C 
ATOM     15  C   LIG d   1      -4.922  92.047 117.552  0.00  0.00     0.109 C 
ATOM     16  O   LIG d   1      -3.370  92.181 119.388  0.00  0.00    -0.276 OA
ATOM     17  H   LIG d   1      -2.863  91.053 116.481  0.00  0.00     0.149 HD
ENDBRANCH   6  13
BRANCH   5  18
ATOM     18  N   LIG d   1      -0.695  93.304 118.642  0.00  0.00     0.381 N 
ATOM     19  H   LIG d   1      -1.267  93.948 118.132  0.00  0.00    -0.090 HD
ATOM     20  H   LIG d   1       0.134  93.787 118.941  0.00  0.00    -0.090 HD
ATOM     21  H   LIG d   1      -1.193  92.963 119.435  0.00  0.00    -0.090 HD
ENDBRANCH   5  18
BRANCH   3  22
ATOM     22  C   LIG d   1       2.906  90.464 117.262  0.00  0.00     0.382 C 
ATOM     23  O   LIG d   1       3.565  91.429 116.806  0.00  0.00    -0.241 OA
ATOM     24  O   LIG d   1       3.472  89.372 117.459  0.00  0.00    -0.241 OA
ENDBRANCH   3  22
TORSDOF 7
ENDMDL
MODEL 9
REMARK VINA RESULT:      -4.3      4.776      7.591
REMARK  7 active torsions:
REMARK  status: ('A' for Active; 'I' for Inactive)
REMARK    1  A    between atoms: C_2  and  C_3 
REMARK    2  A    between atoms: C_3  and  O_6 
REMARK    3  A    between atoms: C_3  and  C_4 
REMARK    4  A    between atoms: C_7  and  O_6 
REMARK    5  A    between atoms: C_9  and  C_10 
REMARK    6  A    between atoms: N_15  and  C_14 
REMARK    7  A    between atoms: N_20  and  C_19 
REMARK       I    between atoms: C_22  and  N_20 
ROOT
ATOM      1  C   LIG d   1       0.547  90.732 119.058  0.00  0.00     0.161 C 
ATOM      2  C   LIG d   1       1.715  91.163 118.407  0.00  0.00     0.016 C 
ATOM      3  C   LIG d   1       2.297  90.474 117.318  0.00  0.00     0.038 C 
ATOM      4  C   LIG d   1       1.663  89.383 116.706  0.00  0.00     0.028 C 
ATOM      5  C   LIG d   1       0.743  88.611 117.647  0.00  0.00    -0.047 C 
ATOM      6  C   LIG d   1      -0.220  89.606 118.334  0.00  0.00     0.091 C 
ENDROOT
BRANCH   1   7
ATOM      7  O   LIG d   1      -0.322  91.857 119.297  0.00  0.00    -0.368 OA
BRANCH   7   8
ATOM      8  C   LIG d   1      -1.330  92.109 118.287  0.00  0.00     0.119 C 
BRANCH   8   9
ATOM      9  C   LIG d   1      -0.962  93.432 117.587  0.00  0.00     0.028 C 
ATOM     10  C   LIG d   1      -1.645  94.648 118.235  0.00  0.00     0.006 C 
ENDBRANCH   8   9
BRANCH   8  11
ATOM     11  C   LIG d   1      -2.704  92.353 118.919  0.00  0.00     0.028 C 
ATOM     12  C   LIG d   1      -2.743  91.999 120.414  0.00  0.00     0.006 C 
ENDBRANCH   8  11
ENDBRANCH   7   8
ENDBRANCH   1   7
BRANCH   6  13
ATOM     13  N   LIG d   1      -1.098  88.945 119.334  0.00  0.00    -0.311 N 
ATOM     14  C   LIG d   1      -2.358  88.593 119.084  0.00  0.00     0.210 C 
ATOM     15  C   LIG d   1      -3.094  87.942 120.260  0.00  0.00     0.109 C 
ATOM     16  O   LIG d   1      -2.926  88.728 117.989  0.00  0.00    -0.276 OA
ATOM     17  H   LIG d   1      -0.708  88.769 120.239  0.00  0.00     0.149 HD
ENDBRANCH   6  13
BRANCH   5  18
ATOM     18  N   LIG d   1       0.044  87.588 116.846  0.00  0.00     0.381 N 
ATOM     19  H   LIG d   1       0.137  87.798 115.873  0.00  0.00    -0.090 HD
ATOM     20  H   LIG d   1      -0.933  87.604 117.081  0.00  0.00    -0.090 HD
ATOM     21  H   LIG d   1       0.424  86.688 117.037  0.00  0.00    -0.090 HD
ENDBRANCH   5  18
BRANCH   3  22
ATOM     22  C   LIG d   1       3.549  90.853 116.856  0.00  0.00     0.382 C 
ATOM     23  O   LIG d   1       4.031  91.962 117.189  0.00  0.00    -0.241 OA
ATOM     24  O   LIG d   1       4.183  90.118 116.075  0.00  0.00    -0.241 OA
ENDBRANCH   3  22
TORSDOF 7
ENDMDL
