MODEL 1
REMARK VINA RESULT:      -5.3      0.000      0.000
REMARK  7 active torsions:
REMARK  status: ('A' for Active; 'I' for Inactive)
REMARK    1  A    between atoms: C_2  and  C_3 
REMARK    2  A    between atoms: C_3  and  O_6 
REMARK    3  A    between atoms: C_3  and  C_4 
REMARK    4  A    between atoms: C_7  and  O_6 
REMARK    5  A    between atoms: C_9  and  C_10 
REMARK    6  A    between atoms: N_15  and  C_14 
REMARK    7  A    between atoms: N_20  and  C_19 
REMARK       I    between atoms: C_22  and  N_20 
ROOT
ATOM      1  C   LIG d   1      -3.562  89.762 117.718  0.00  0.00     0.161 C 
ATOM      2  C   LIG d   1      -4.355  89.370 116.626  0.00  0.00     0.016 C 
ATOM      3  C   LIG d   1      -5.438  90.135 116.137  0.00  0.00     0.038 C 
ATOM      4  C   LIG d   1      -5.710  91.426 116.614  0.00  0.00     0.028 C 
ATOM      5  C   LIG d   1      -5.253  91.649 118.052  0.00  0.00    -0.047 C 
ATOM      6  C   LIG d   1      -3.774  91.219 118.181  0.00  0.00     0.091 C 
ENDROOT
BRANCH   1   7
ATOM      7  O   LIG d   1      -2.171  89.528 117.421  0.00  0.00    -0.368 OA
BRANCH   7   8
ATOM      8  C   LIG d   1      -1.542  88.437 118.137  0.00  0.00     0.119 C 
BRANCH   8   9
ATOM      9  C   LIG d   1      -1.405  87.257 117.155  0.00  0.00     0.028 C 
ATOM     10  C   LIG d   1       0.063  86.919 116.845  0.00  0.00     0.006 C 
ENDBRANCH   8   9
BRANCH   8  11
ATOM     11  C   LIG d   1      -2.438  87.922 119.267  0.00  0.00     0.028 C 
ATOM     12  C   LIG d   1      -1.799  88.087 120.656  0.00  0.00     0.006 C 
ENDBRANCH   8  11
ENDBRANCH   7   8
ENDBRANCH   1   7
BRANCH   6  13
ATOM     13  N   LIG d   1      -3.272  91.326 119.575  0.00  0.00    -0.311 N 
ATOM     14  C   LIG d   1      -2.126  91.923 119.899  0.00  0.00     0.210 C 
ATOM     15  C   LIG d   1      -1.786  91.904 121.392  0.00  0.00     0.109 C 
ATOM     16  O   LIG d   1      -1.375  92.495 119.094  0.00  0.00    -0.276 OA
ATOM     17  H   LIG d   1      -3.834  90.916 120.295  0.00  0.00     0.149 HD
ENDBRANCH   6  13
BRANCH   5  18
ATOM     18  N   LIG d   1      -5.472  93.072 118.374  0.00  0.00     0.381 N 
ATOM     19  H   LIG d   1      -5.529  93.190 119.366  0.00  0.00    -0.090 HD
ATOM     20  H   LIG d   1      -6.345  93.365 117.971  0.00  0.00    -0.090 HD
ATOM     21  H   LIG d   1      -4.727  93.622 118.009  0.00  0.00    -0.090 HD
ENDBRANCH   5  18
BRANCH   3  22
ATOM     22  C   LIG d   1      -6.288  89.592 115.185  0.00  0.00     0.382 C 
ATOM     23  O   LIG d   1      -5.881  88.677 114.430  0.00  0.00    -0.241 OA
ATOM     24  O   LIG d   1      -7.443  90.037 115.042  0.00  0.00    -0.241 OA
ENDBRANCH   3  22
TORSDOF 7
ENDMDL
MODEL 2
REMARK VINA RESULT:      -5.2      1.226      1.966
REMARK  7 active torsions:
REMARK  status: ('A' for Active; 'I' for Inactive)
REMARK    1  A    between atoms: C_2  and  C_3 
REMARK    2  A    between atoms: C_3  and  O_6 
REMARK    3  A    between atoms: C_3  and  C_4 
REMARK    4  A    between atoms: C_7  and  O_6 
REMARK    5  A    between atoms: C_9  and  C_10 
REMARK    6  A    between atoms: N_15  and  C_14 
REMARK    7  A    between atoms: N_20  and  C_19 
REMARK       I    between atoms: C_22  and  N_20 
ROOT
ATOM      1  C   LIG d   1      -2.899  89.756 117.821  0.00  0.00     0.161 C 
ATOM      2  C   LIG d   1      -3.826  89.180 116.937  0.00  0.00     0.016 C 
ATOM      3  C   LIG d   1      -5.050  89.794 116.585  0.00  0.00     0.038 C 
ATOM      4  C   LIG d   1      -5.363  91.104 116.979  0.00  0.00     0.028 C 
ATOM      5  C   LIG d   1      -4.687  91.523 118.280  0.00  0.00    -0.047 C 
ATOM      6  C   LIG d   1      -3.172  91.233 118.174  0.00  0.00     0.091 C 
ENDROOT
BRANCH   1   7
ATOM      7  O   LIG d   1      -1.565  89.604 117.297  0.00  0.00    -0.368 OA
BRANCH   7   8
ATOM      8  C   LIG d   1      -0.723  88.633 117.966  0.00  0.00     0.119 C 
BRANCH   8   9
ATOM      9  C   LIG d   1       0.351  89.413 118.748  0.00  0.00     0.028 C 
ATOM     10  C   LIG d   1       0.873  90.633 117.971  0.00  0.00     0.006 C 
ENDBRANCH   8   9
BRANCH   8  11
ATOM     11  C   LIG d   1       0.050  87.777 116.959  0.00  0.00     0.028 C 
ATOM     12  C   LIG d   1      -0.741  86.545 116.492  0.00  0.00     0.006 C 
ENDBRANCH   8  11
ENDBRANCH   7   8
ENDBRANCH   1   7
BRANCH   6  13
ATOM     13  N   LIG d   1      -2.447  91.535 119.436  0.00  0.00    -0.311 N 
ATOM     14  C   LIG d   1      -1.798  92.678 119.652  0.00  0.00     0.210 C 
ATOM     15  C   LIG d   1      -1.101  92.778 121.013  0.00  0.00     0.109 C 
ATOM     16  O   LIG d   1      -1.760  93.631 118.860  0.00  0.00    -0.276 OA
ATOM     17  H   LIG d   1      -2.453  90.829 120.145  0.00  0.00     0.149 HD
ENDBRANCH   6  13
BRANCH   5  18
ATOM     18  N   LIG d   1      -4.988  92.950 118.499  0.00  0.00     0.381 N 
ATOM     19  H   LIG d   1      -5.825  93.198 118.011  0.00  0.00    -0.090 HD
ATOM     20  H   LIG d   1      -4.233  93.502 118.132  0.00  0.00    -0.090 HD
ATOM     21  H   LIG d   1      -5.097  93.129 119.473  0.00  0.00    -0.090 HD
ENDBRANCH   5  18
BRANCH   3  22
ATOM     22  C   LIG d   1      -5.994  89.081 115.862  0.00  0.00     0.382 C 
ATOM     23  O   LIG d   1      -7.068  88.731 116.408  0.00  0.00    -0.241 OA
ATOM     24  O   LIG d   1      -5.767  88.744 114.685  0.00  0.00    -0.241 OA
ENDBRANCH   3  22
TORSDOF 7
ENDMDL
MODEL 3
REMARK VINA RESULT:      -5.1      1.112      1.841
REMARK  7 active torsions:
REMARK  status: ('A' for Active; 'I' for Inactive)
REMARK    1  A    between atoms: C_2  and  C_3 
REMARK    2  A    between atoms: C_3  and  O_6 
REMARK    3  A    between atoms: C_3  and  C_4 
REMARK    4  A    between atoms: C_7  and  O_6 
REMARK    5  A    between atoms: C_9  and  C_10 
REMARK    6  A    between atoms: N_15  and  C_14 
REMARK    7  A    between atoms: N_20  and  C_19 
REMARK       I    between atoms: C_22  and  N_20 
ROOT
ATOM      1  C   LIG d   1      -3.033  89.695 117.900  0.00  0.00     0.161 C 
ATOM      2  C   LIG d   1      -3.936  89.149 116.972  0.00  0.00     0.016 C 
ATOM      3  C   LIG d   1      -5.125  89.798 116.569  0.00  0.00     0.038 C 
ATOM      4  C   LIG d   1      -5.419  91.115 116.955  0.00  0.00     0.028 C 
ATOM      5  C   LIG d   1      -4.790  91.510 118.287  0.00  0.00    -0.047 C 
ATOM      6  C   LIG d   1      -3.281  91.178 118.247  0.00  0.00     0.091 C 
ENDROOT
BRANCH   1   7
ATOM      7  O   LIG d   1      -1.682  89.509 117.435  0.00  0.00    -0.368 OA
BRANCH   7   8
ATOM      8  C   LIG d   1      -0.880  88.553 118.172  0.00  0.00     0.119 C 
BRANCH   8   9
ATOM      9  C   LIG d   1      -1.742  88.025 119.334  0.00  0.00     0.028 C 
ATOM     10  C   LIG d   1      -1.063  88.213 120.701  0.00  0.00     0.006 C 
ENDBRANCH   8   9
BRANCH   8  11
ATOM     11  C   LIG d   1       0.324  89.230 118.835  0.00  0.00     0.028 C 
ATOM     12  C   LIG d   1       0.919  90.359 117.979  0.00  0.00     0.006 C 
ENDBRANCH   8  11
ENDBRANCH   7   8
ENDBRANCH   1   7
BRANCH   6  13
ATOM     13  N   LIG d   1      -2.605  91.456 119.542  0.00  0.00    -0.311 N 
ATOM     14  C   LIG d   1      -1.660  92.382 119.691  0.00  0.00     0.210 C 
ATOM     15  C   LIG d   1      -1.080  92.492 121.105  0.00  0.00     0.109 C 
ATOM     16  O   LIG d   1      -1.270  93.146 118.795  0.00  0.00    -0.276 OA
ATOM     17  H   LIG d   1      -2.883  90.904 120.329  0.00  0.00     0.149 HD
ENDBRANCH   6  13
BRANCH   5  18
ATOM     18  N   LIG d   1      -5.062  92.944 118.500  0.00  0.00     0.381 N 
ATOM     19  H   LIG d   1      -6.029  93.077 118.716  0.00  0.00    -0.090 HD
ATOM     20  H   LIG d   1      -4.856  93.443 117.653  0.00  0.00    -0.090 HD
ATOM     21  H   LIG d   1      -4.497  93.291 119.244  0.00  0.00    -0.090 HD
ENDBRANCH   5  18
BRANCH   3  22
ATOM     22  C   LIG d   1      -6.056  89.114 115.802  0.00  0.00     0.382 C 
ATOM     23  O   LIG d   1      -7.135  88.733 116.317  0.00  0.00    -0.241 OA
ATOM     24  O   LIG d   1      -5.811  88.833 114.613  0.00  0.00    -0.241 OA
ENDBRANCH   3  22
TORSDOF 7
ENDMDL
MODEL 4
REMARK VINA RESULT:      -5.0      2.327      5.492
REMARK  7 active torsions:
REMARK  status: ('A' for Active; 'I' for Inactive)
REMARK    1  A    between atoms: C_2  and  C_3 
REMARK    2  A    between atoms: C_3  and  O_6 
REMARK    3  A    between atoms: C_3  and  C_4 
REMARK    4  A    between atoms: C_7  and  O_6 
REMARK    5  A    between atoms: C_9  and  C_10 
REMARK    6  A    between atoms: N_15  and  C_14 
REMARK    7  A    between atoms: N_20  and  C_19 
REMARK       I    between atoms: C_22  and  N_20 
ROOT
ATOM      1  C   LIG d   1      -4.348  90.767 118.098  0.00  0.00     0.161 C 
ATOM      2  C   LIG d   1      -4.838  91.955 118.665  0.00  0.00     0.016 C 
ATOM      3  C   LIG d   1      -4.016  92.899 119.324  0.00  0.00     0.038 C 
ATOM      4  C   LIG d   1      -2.618  92.790 119.327  0.00  0.00     0.028 C 
ATOM      5  C   LIG d   1      -2.122  91.353 119.206  0.00  0.00    -0.047 C 
ATOM      6  C   LIG d   1      -2.811  90.685 117.995  0.00  0.00     0.091 C 
ENDROOT
BRANCH   1   7
ATOM      7  O   LIG d   1      -4.949  90.559 116.805  0.00  0.00    -0.368 OA
BRANCH   7   8
ATOM      8  C   LIG d   1      -6.396  90.491 116.777  0.00  0.00     0.119 C 
BRANCH   8   9
ATOM      9  C   LIG d   1      -6.785  89.123 116.185  0.00  0.00     0.028 C 
ATOM     10  C   LIG d   1      -8.306  88.895 116.182  0.00  0.00     0.006 C 
ENDBRANCH   8   9
BRANCH   8  11
ATOM     11  C   LIG d   1      -6.984  91.530 115.818  0.00  0.00     0.028 C 
ATOM     12  C   LIG d   1      -6.323  91.502 114.431  0.00  0.00     0.006 C 
ENDBRANCH   8  11
ENDBRANCH   7   8
ENDBRANCH   1   7
BRANCH   6  13
ATOM     13  N   LIG d   1      -2.445  89.251 117.855  0.00  0.00    -0.311 N 
ATOM     14  C   LIG d   1      -1.400  88.826 117.146  0.00  0.00     0.210 C 
ATOM     15  C   LIG d   1      -1.214  87.306 117.116  0.00  0.00     0.109 C 
ATOM     16  O   LIG d   1      -0.591  89.566 116.567  0.00  0.00    -0.276 OA
ATOM     17  H   LIG d   1      -3.030  88.584 118.319  0.00  0.00     0.149 HD
ENDBRANCH   6  13
BRANCH   5  18
ATOM     18  N   LIG d   1      -0.652  91.398 119.084  0.00  0.00     0.381 N 
ATOM     19  H   LIG d   1      -0.393  92.014 118.340  0.00  0.00    -0.090 HD
ATOM     20  H   LIG d   1      -0.317  90.477 118.862  0.00  0.00    -0.090 HD
ATOM     21  H   LIG d   1      -0.248  91.709 119.939  0.00  0.00    -0.090 HD
ENDBRANCH   5  18
BRANCH   3  22
ATOM     22  C   LIG d   1      -4.597  93.946 120.022  0.00  0.00     0.382 C 
ATOM     23  O   LIG d   1      -4.105  94.321 121.114  0.00  0.00    -0.241 OA
ATOM     24  O   LIG d   1      -5.633  94.492 119.597  0.00  0.00    -0.241 OA
ENDBRANCH   3  22
TORSDOF 7
ENDMDL
MODEL 5
REMARK VINA RESULT:      -5.0      2.300      4.555
REMARK  7 active torsions:
REMARK  status: ('A' for Active; 'I' for Inactive)
REMARK    1  A    between atoms: C_2  and  C_3 
REMARK    2  A    between atoms: C_3  and  O_6 
REMARK    3  A    between atoms: C_3  and  C_4 
REMARK    4  A    between atoms: C_7  and  O_6 
REMARK    5  A    between atoms: C_9  and  C_10 
REMARK    6  A    between atoms: N_15  and  C_14 
REMARK    7  A    between atoms: N_20  and  C_19 
REMARK       I    between atoms: C_22  and  N_20 
ROOT
ATOM      1  C   LIG d   1      -4.385  91.631 118.172  0.00  0.00     0.161 C 
ATOM      2  C   LIG d   1      -5.322  91.621 117.126  0.00  0.00     0.016 C 
ATOM      3  C   LIG d   1      -5.436  90.565 116.193  0.00  0.00     0.038 C 
ATOM      4  C   LIG d   1      -4.717  89.370 116.335  0.00  0.00     0.028 C 
ATOM      5  C   LIG d   1      -3.398  89.541 117.082  0.00  0.00    -0.047 C 
ATOM      6  C   LIG d   1      -3.667  90.286 118.410  0.00  0.00     0.091 C 
ENDROOT
BRANCH   1   7
ATOM      7  O   LIG d   1      -5.014  92.084 119.387  0.00  0.00    -0.368 OA
BRANCH   7   8
ATOM      8  C   LIG d   1      -5.040  93.518 119.594  0.00  0.00     0.119 C 
BRANCH   8   9
ATOM      9  C   LIG d   1      -4.210  93.819 120.857  0.00  0.00     0.028 C 
ATOM     10  C   LIG d   1      -2.738  94.125 120.532  0.00  0.00     0.006 C 
ENDBRANCH   8   9
BRANCH   8  11
ATOM     11  C   LIG d   1      -6.456  94.009 119.914  0.00  0.00     0.028 C 
ATOM     12  C   LIG d   1      -7.174  94.595 118.688  0.00  0.00     0.006 C 
ENDBRANCH   8  11
ENDBRANCH   7   8
ENDBRANCH   1   7
BRANCH   6  13
ATOM     13  N   LIG d   1      -2.418  90.569 119.163  0.00  0.00    -0.311 N 
ATOM     14  C   LIG d   1      -2.306  90.414 120.481  0.00  0.00     0.210 C 
ATOM     15  C   LIG d   1      -0.937  90.782 121.062  0.00  0.00     0.109 C 
ATOM     16  O   LIG d   1      -3.200  89.976 121.220  0.00  0.00    -0.276 OA
ATOM     17  H   LIG d   1      -1.633  90.900 118.637  0.00  0.00     0.149 HD
ENDBRANCH   6  13
BRANCH   5  18
ATOM     18  N   LIG d   1      -2.820  88.199 117.279  0.00  0.00     0.381 N 
ATOM     19  H   LIG d   1      -3.351  87.523 116.768  0.00  0.00    -0.090 HD
ATOM     20  H   LIG d   1      -2.866  87.965 118.255  0.00  0.00    -0.090 HD
ATOM     21  H   LIG d   1      -1.872  88.188 116.972  0.00  0.00    -0.090 HD
ENDBRANCH   5  18
BRANCH   3  22
ATOM     22  C   LIG d   1      -6.249  90.716 115.080  0.00  0.00     0.382 C 
ATOM     23  O   LIG d   1      -6.234  91.792 114.433  0.00  0.00    -0.241 OA
ATOM     24  O   LIG d   1      -7.030  89.808 114.740  0.00  0.00    -0.241 OA
ENDBRANCH   3  22
TORSDOF 7
ENDMDL
MODEL 6
REMARK VINA RESULT:      -4.9      2.066      2.902
REMARK  7 active torsions:
REMARK  status: ('A' for Active; 'I' for Inactive)
REMARK    1  A    between atoms: C_2  and  C_3 
REMARK    2  A    between atoms: C_3  and  O_6 
REMARK    3  A    between atoms: C_3  and  C_4 
REMARK    4  A    between atoms: C_7  and  O_6 
REMARK    5  A    between atoms: C_9  and  C_10 
REMARK    6  A    between atoms: N_15  and  C_14 
REMARK    7  A    between atoms: N_20  and  C_19 
REMARK       I    between atoms: C_22  and  N_20 
ROOT
ATOM      1  C   LIG d   1      -4.243  90.968 118.896  0.00  0.00     0.161 C 
ATOM      2  C   LIG d   1      -4.401  90.140 117.773  0.00  0.00     0.016 C 
ATOM      3  C   LIG d   1      -5.279  90.436 116.705  0.00  0.00     0.038 C 
ATOM      4  C   LIG d   1      -5.952  91.664 116.617  0.00  0.00     0.028 C 
ATOM      5  C   LIG d   1      -6.211  92.311 117.973  0.00  0.00    -0.047 C 
ATOM      6  C   LIG d   1      -4.885  92.365 118.765  0.00  0.00     0.091 C 
ENDROOT
BRANCH   1   7
ATOM      7  O   LIG d   1      -2.845  91.088 119.222  0.00  0.00    -0.368 OA
BRANCH   7   8
ATOM      8  C   LIG d   1      -2.005  91.702 118.214  0.00  0.00     0.119 C 
BRANCH   8   9
ATOM      9  C   LIG d   1      -0.696  90.892 118.146  0.00  0.00     0.028 C 
ATOM     10  C   LIG d   1      -0.761  89.757 117.111  0.00  0.00     0.006 C 
ENDBRANCH   8   9
BRANCH   8  11
ATOM     11  C   LIG d   1      -1.586  93.117 118.623  0.00  0.00     0.028 C 
ATOM     12  C   LIG d   1      -1.283  93.237 120.125  0.00  0.00     0.006 C 
ENDBRANCH   8  11
ENDBRANCH   7   8
ENDBRANCH   1   7
BRANCH   6  13
ATOM     13  N   LIG d   1      -5.066  92.907 120.137  0.00  0.00    -0.311 N 
ATOM     14  C   LIG d   1      -4.867  94.186 120.452  0.00  0.00     0.210 C 
ATOM     15  C   LIG d   1      -5.090  94.531 121.928  0.00  0.00     0.109 C 
ATOM     16  O   LIG d   1      -4.559  95.074 119.643  0.00  0.00    -0.276 OA
ATOM     17  H   LIG d   1      -5.346  92.262 120.849  0.00  0.00     0.149 HD
ENDBRANCH   6  13
BRANCH   5  18
ATOM     18  N   LIG d   1      -6.793  93.644 117.727  0.00  0.00     0.381 N 
ATOM     19  H   LIG d   1      -7.574  93.791 118.334  0.00  0.00    -0.090 HD
ATOM     20  H   LIG d   1      -7.119  93.686 116.777  0.00  0.00    -0.090 HD
ATOM     21  H   LIG d   1      -6.106  94.349 117.881  0.00  0.00    -0.090 HD
ENDBRANCH   5  18
BRANCH   3  22
ATOM     22  C   LIG d   1      -5.523  89.480 115.730  0.00  0.00     0.382 C 
ATOM     23  O   LIG d   1      -5.200  88.284 115.930  0.00  0.00    -0.241 OA
ATOM     24  O   LIG d   1      -6.020  89.806 114.636  0.00  0.00    -0.241 OA
ENDBRANCH   3  22
TORSDOF 7
ENDMDL
MODEL 7
REMARK VINA RESULT:      -4.8      1.675      4.806
REMARK  7 active torsions:
REMARK  status: ('A' for Active; 'I' for Inactive)
REMARK    1  A    between atoms: C_2  and  C_3 
REMARK    2  A    between atoms: C_3  and  O_6 
REMARK    3  A    between atoms: C_3  and  C_4 
REMARK    4  A    between atoms: C_7  and  O_6 
REMARK    5  A    between atoms: C_9  and  C_10 
REMARK    6  A    between atoms: N_15  and  C_14 
REMARK    7  A    between atoms: N_20  and  C_19 
REMARK       I    between atoms: C_22  and  N_20 
ROOT
ATOM      1  C   LIG d   1      -3.307  91.379 117.985  0.00  0.00     0.161 C 
ATOM      2  C   LIG d   1      -2.591  91.615 119.171  0.00  0.00     0.016 C 
ATOM      3  C   LIG d   1      -3.150  92.248 120.305  0.00  0.00     0.038 C 
ATOM      4  C   LIG d   1      -4.517  92.555 120.384  0.00  0.00     0.028 C 
ATOM      5  C   LIG d   1      -5.164  92.794 119.024  0.00  0.00    -0.047 C 
ATOM      6  C   LIG d   1      -4.830  91.607 118.093  0.00  0.00     0.091 C 
ENDROOT
BRANCH   1   7
ATOM      7  O   LIG d   1      -3.032  90.049 117.504  0.00  0.00    -0.368 OA
BRANCH   7   8
ATOM      8  C   LIG d   1      -1.945  89.348 118.156  0.00  0.00     0.119 C 
BRANCH   8   9
ATOM      9  C   LIG d   1      -1.005  88.822 117.054  0.00  0.00     0.028 C 
ATOM     10  C   LIG d   1       0.361  89.528 117.061  0.00  0.00     0.006 C 
ENDBRANCH   8   9
BRANCH   8  11
ATOM     11  C   LIG d   1      -2.446  88.101 118.890  0.00  0.00     0.028 C 
ATOM     12  C   LIG d   1      -2.002  88.056 120.361  0.00  0.00     0.006 C 
ENDBRANCH   8  11
ENDBRANCH   7   8
ENDBRANCH   1   7
BRANCH   6  13
ATOM     13  N   LIG d   1      -5.354  91.801 116.716  0.00  0.00    -0.311 N 
ATOM     14  C   LIG d   1      -6.054  90.876 116.061  0.00  0.00     0.210 C 
ATOM     15  C   LIG d   1      -6.483  91.272 114.645  0.00  0.00     0.109 C 
ATOM     16  O   LIG d   1      -6.389  89.778 116.531  0.00  0.00    -0.276 OA
ATOM     17  H   LIG d   1      -5.155  92.675 116.271  0.00  0.00     0.149 HD
ENDBRANCH   6  13
BRANCH   5  18
ATOM     18  N   LIG d   1      -6.612  92.967 119.244  0.00  0.00     0.381 N 
ATOM     19  H   LIG d   1      -6.890  92.477 120.071  0.00  0.00    -0.090 HD
ATOM     20  H   LIG d   1      -7.109  92.574 118.463  0.00  0.00    -0.090 HD
ATOM     21  H   LIG d   1      -6.831  93.934 119.333  0.00  0.00    -0.090 HD
ENDBRANCH   5  18
BRANCH   3  22
ATOM     22  C   LIG d   1      -2.330  92.617 121.360  0.00  0.00     0.382 C 
ATOM     23  O   LIG d   1      -1.476  91.811 121.801  0.00  0.00    -0.241 OA
ATOM     24  O   LIG d   1      -2.463  93.729 121.905  0.00  0.00    -0.241 OA
ENDBRANCH   3  22
TORSDOF 7
ENDMDL
MODEL 8
REMARK VINA RESULT:      -4.8      2.126      5.089
REMARK  7 active torsions:
REMARK  status: ('A' for Active; 'I' for Inactive)
REMARK    1  A    between atoms: C_2  and  C_3 
REMARK    2  A    between atoms: C_3  and  O_6 
REMARK    3  A    between atoms: C_3  and  C_4 
REMARK    4  A    between atoms: C_7  and  O_6 
REMARK    5  A    between atoms: C_9  and  C_10 
REMARK    6  A    between atoms: N_15  and  C_14 
REMARK    7  A    between atoms: N_20  and  C_19 
REMARK       I    between atoms: C_22  and  N_20 
ROOT
ATOM      1  C   LIG d   1      -3.951  90.986 117.808  0.00  0.00     0.161 C 
ATOM      2  C   LIG d   1      -3.412  89.708 117.586  0.00  0.00     0.016 C 
ATOM      3  C   LIG d   1      -2.478  89.096 118.453  0.00  0.00     0.038 C 
ATOM      4  C   LIG d   1      -2.131  89.662 119.689  0.00  0.00     0.028 C 
ATOM      5  C   LIG d   1      -2.263  91.181 119.717  0.00  0.00    -0.047 C 
ATOM      6  C   LIG d   1      -3.669  91.572 119.207  0.00  0.00     0.091 C 
ENDROOT
BRANCH   1   7
ATOM      7  O   LIG d   1      -5.368  90.971 117.547  0.00  0.00    -0.368 OA
BRANCH   7   8
ATOM      8  C   LIG d   1      -5.776  91.385 116.220  0.00  0.00     0.119 C 
BRANCH   8   9
ATOM      9  C   LIG d   1      -7.086  92.183 116.366  0.00  0.00     0.028 C 
ATOM     10  C   LIG d   1      -7.107  93.049 117.636  0.00  0.00     0.006 C 
ENDBRANCH   8   9
BRANCH   8  11
ATOM     11  C   LIG d   1      -6.131  90.179 115.345  0.00  0.00     0.028 C 
ATOM     12  C   LIG d   1      -7.047  89.173 116.060  0.00  0.00     0.006 C 
ENDBRANCH   8  11
ENDBRANCH   7   8
ENDBRANCH   1   7
BRANCH   6  13
ATOM     13  N   LIG d   1      -3.852  93.045 119.123  0.00  0.00    -0.311 N 
ATOM     14  C   LIG d   1      -4.375  93.776 120.106  0.00  0.00     0.210 C 
ATOM     15  C   LIG d   1      -4.493  95.273 119.806  0.00  0.00     0.109 C 
ATOM     16  O   LIG d   1      -4.723  93.331 121.210  0.00  0.00    -0.276 OA
ATOM     17  H   LIG d   1      -3.568  93.492 118.274  0.00  0.00     0.149 HD
ENDBRANCH   6  13
BRANCH   5  18
ATOM     18  N   LIG d   1      -2.005  91.625 121.100  0.00  0.00     0.381 N 
ATOM     19  H   LIG d   1      -1.074  91.983 121.172  0.00  0.00    -0.090 HD
ATOM     20  H   LIG d   1      -2.089  90.836 121.716  0.00  0.00    -0.090 HD
ATOM     21  H   LIG d   1      -2.660  92.329 121.360  0.00  0.00    -0.090 HD
ENDBRANCH   5  18
BRANCH   3  22
ATOM     22  C   LIG d   1      -1.849  87.921 118.068  0.00  0.00     0.382 C 
ATOM     23  O   LIG d   1      -2.386  87.173 117.215  0.00  0.00    -0.241 OA
ATOM     24  O   LIG d   1      -0.774  87.578 118.594  0.00  0.00    -0.241 OA
ENDBRANCH   3  22
TORSDOF 7
ENDMDL
MODEL 9
REMARK VINA RESULT:      -4.7      1.461      2.157
REMARK  7 active torsions:
REMARK  status: ('A' for Active; 'I' for Inactive)
REMARK    1  A    between atoms: C_2  and  C_3 
REMARK    2  A    between atoms: C_3  and  O_6 
REMARK    3  A    between atoms: C_3  and  C_4 
REMARK    4  A    between atoms: C_7  and  O_6 
REMARK    5  A    between atoms: C_9  and  C_10 
REMARK    6  A    between atoms: N_15  and  C_14 
REMARK    7  A    between atoms: N_20  and  C_19 
REMARK       I    between atoms: C_22  and  N_20 
ROOT
ATOM      1  C   LIG d   1      -3.902  90.529 118.277  0.00  0.00     0.161 C 
ATOM      2  C   LIG d   1      -4.410  89.914 117.120  0.00  0.00     0.016 C 
ATOM      3  C   LIG d   1      -5.457  90.461 116.344  0.00  0.00     0.038 C 
ATOM      4  C   LIG d   1      -5.969  91.744 116.588  0.00  0.00     0.028 C 
ATOM      5  C   LIG d   1      -5.837  92.182 118.043  0.00  0.00    -0.047 C 
ATOM      6  C   LIG d   1      -4.372  91.982 118.496  0.00  0.00     0.091 C 
ENDROOT
BRANCH   1   7
ATOM      7  O   LIG d   1      -2.462  90.464 118.273  0.00  0.00    -0.368 OA
BRANCH   7   8
ATOM      8  C   LIG d   1      -1.856  89.696 119.342  0.00  0.00     0.119 C 
BRANCH   8   9
ATOM      9  C   LIG d   1      -0.470  90.308 119.624  0.00  0.00     0.028 C 
ATOM     10  C   LIG d   1      -0.468  91.840 119.493  0.00  0.00     0.006 C 
ENDBRANCH   8   9
BRANCH   8  11
ATOM     11  C   LIG d   1      -1.581  88.254 118.905  0.00  0.00     0.028 C 
ATOM     12  C   LIG d   1      -1.080  88.156 117.455  0.00  0.00     0.006 C 
ENDBRANCH   8  11
ENDBRANCH   7   8
ENDBRANCH   1   7
BRANCH   6  13
ATOM     13  N   LIG d   1      -4.174  92.308 119.932  0.00  0.00    -0.311 N 
ATOM     14  C   LIG d   1      -3.740  93.491 120.363  0.00  0.00     0.210 C 
ATOM     15  C   LIG d   1      -3.586  93.610 121.882  0.00  0.00     0.109 C 
ATOM     16  O   LIG d   1      -3.500  94.465 119.633  0.00  0.00    -0.276 OA
ATOM     17  H   LIG d   1      -4.375  91.585 120.596  0.00  0.00     0.149 HD
ENDBRANCH   6  13
BRANCH   5  18
ATOM     18  N   LIG d   1      -6.282  93.586 118.128  0.00  0.00     0.381 N 
ATOM     19  H   LIG d   1      -6.545  93.801 119.069  0.00  0.00    -0.090 HD
ATOM     20  H   LIG d   1      -7.088  93.707 117.540  0.00  0.00    -0.090 HD
ATOM     21  H   LIG d   1      -5.551  94.194 117.832  0.00  0.00    -0.090 HD
ENDBRANCH   5  18
BRANCH   3  22
ATOM     22  C   LIG d   1      -6.031  89.705 115.333  0.00  0.00     0.382 C 
ATOM     23  O   LIG d   1      -5.849  88.463 115.299  0.00  0.00    -0.241 OA
ATOM     24  O   LIG d   1      -6.690  90.253 114.430  0.00  0.00    -0.241 OA
ENDBRANCH   3  22
TORSDOF 7
ENDMDL
