MODEL 1
REMARK VINA RESULT:      -5.6      0.000      0.000
REMARK  7 active torsions:
REMARK  status: ('A' for Active; 'I' for Inactive)
REMARK    1  A    between atoms: C_2  and  C_3 
REMARK    2  A    between atoms: C_3  and  O_6 
REMARK    3  A    between atoms: C_3  and  C_4 
REMARK    4  A    between atoms: C_7  and  O_6 
REMARK    5  A    between atoms: C_9  and  C_10 
REMARK    6  A    between atoms: N_15  and  C_14 
REMARK    7  A    between atoms: N_20  and  C_19 
REMARK       I    between atoms: C_22  and  N_20 
ROOT
ATOM      1  C   LIG d   1      -4.504  92.545 118.035  0.00  0.00     0.161 C 
ATOM      2  C   LIG d   1      -4.998  91.716 117.014  0.00  0.00     0.016 C 
ATOM      3  C   LIG d   1      -6.216  91.956 116.338  0.00  0.00     0.038 C 
ATOM      4  C   LIG d   1      -6.954  93.133 116.534  0.00  0.00     0.028 C 
ATOM      5  C   LIG d   1      -6.755  93.749 117.914  0.00  0.00    -0.047 C 
ATOM      6  C   LIG d   1      -5.240  93.893 118.186  0.00  0.00     0.091 C 
ENDROOT
BRANCH   1   7
ATOM      7  O   LIG d   1      -3.092  92.763 117.847  0.00  0.00    -0.368 OA
BRANCH   7   8
ATOM      8  C   LIG d   1      -2.215  92.113 118.800  0.00  0.00     0.119 C 
BRANCH   8   9
ATOM      9  C   LIG d   1      -0.997  93.034 119.011  0.00  0.00     0.028 C 
ATOM     10  C   LIG d   1      -0.048  93.039 117.800  0.00  0.00     0.006 C 
ENDBRANCH   8   9
BRANCH   8  11
ATOM     11  C   LIG d   1      -1.644  90.810 118.232  0.00  0.00     0.028 C 
ATOM     12  C   LIG d   1      -2.263  89.559 118.876  0.00  0.00     0.006 C 
ENDBRANCH   8  11
ENDBRANCH   7   8
ENDBRANCH   1   7
BRANCH   6  13
ATOM     13  N   LIG d   1      -4.955  94.411 119.549  0.00  0.00    -0.311 N 
ATOM     14  C   LIG d   1      -4.745  95.700 119.815  0.00  0.00     0.210 C 
ATOM     15  C   LIG d   1      -4.449  96.017 121.284  0.00  0.00     0.109 C 
ATOM     16  O   LIG d   1      -4.809  96.614 118.979  0.00  0.00    -0.276 OA
ATOM     17  H   LIG d   1      -4.916  93.742 120.293  0.00  0.00     0.149 HD
ENDBRANCH   6  13
BRANCH   5  18
ATOM     18  N   LIG d   1      -7.471  95.039 117.934  0.00  0.00     0.381 N 
ATOM     19  H   LIG d   1      -7.307  95.530 117.078  0.00  0.00    -0.090 HD
ATOM     20  H   LIG d   1      -7.115  95.597 118.690  0.00  0.00    -0.090 HD
ATOM     21  H   LIG d   1      -8.448  94.885 118.055  0.00  0.00    -0.090 HD
ENDBRANCH   5  18
BRANCH   3  22
ATOM     22  C   LIG d   1      -6.728  90.992 115.482  0.00  0.00     0.382 C 
ATOM     23  O   LIG d   1      -7.915  91.075 115.083  0.00  0.00    -0.241 OA
ATOM     24  O   LIG d   1      -6.033  90.017 115.141  0.00  0.00    -0.241 OA
ENDBRANCH   3  22
TORSDOF 7
ENDMDL
MODEL 2
REMARK VINA RESULT:      -5.6      2.318      4.653
REMARK  7 active torsions:
REMARK  status: ('A' for Active; 'I' for Inactive)
REMARK    1  A    between atoms: C_2  and  C_3 
REMARK    2  A    between atoms: C_3  and  O_6 
REMARK    3  A    between atoms: C_3  and  C_4 
REMARK    4  A    between atoms: C_7  and  O_6 
REMARK    5  A    between atoms: C_9  and  C_10 
REMARK    6  A    between atoms: N_15  and  C_14 
REMARK    7  A    between atoms: N_20  and  C_19 
REMARK       I    between atoms: C_22  and  N_20 
ROOT
ATOM      1  C   LIG d   1      -6.891  93.783 117.768  0.00  0.00     0.161 C 
ATOM      2  C   LIG d   1      -7.298  92.687 116.988  0.00  0.00     0.016 C 
ATOM      3  C   LIG d   1      -6.417  91.670 116.556  0.00  0.00     0.038 C 
ATOM      4  C   LIG d   1      -5.090  91.599 117.004  0.00  0.00     0.028 C 
ATOM      5  C   LIG d   1      -4.505  92.955 117.382  0.00  0.00    -0.047 C 
ATOM      6  C   LIG d   1      -5.471  93.664 118.358  0.00  0.00     0.091 C 
ENDROOT
BRANCH   1   7
ATOM      7  O   LIG d   1      -7.851  94.021 118.816  0.00  0.00    -0.368 OA
BRANCH   7   8
ATOM      8  C   LIG d   1      -8.682  95.199 118.664  0.00  0.00     0.119 C 
BRANCH   8   9
ATOM      9  C   LIG d   1      -8.174  95.967 117.429  0.00  0.00     0.028 C 
ATOM     10  C   LIG d   1      -7.823  97.429 117.750  0.00  0.00     0.006 C 
ENDBRANCH   8   9
BRANCH   8  11
ATOM     11  C   LIG d   1      -8.503  96.162 119.842  0.00  0.00     0.028 C 
ATOM     12  C   LIG d   1      -8.153  95.440 121.153  0.00  0.00     0.006 C 
ENDBRANCH   8  11
ENDBRANCH   7   8
ENDBRANCH   1   7
BRANCH   6  13
ATOM     13  N   LIG d   1      -5.015  95.034 118.713  0.00  0.00    -0.311 N 
ATOM     14  C   LIG d   1      -4.688  95.400 119.951  0.00  0.00     0.210 C 
ATOM     15  C   LIG d   1      -4.263  96.864 120.101  0.00  0.00     0.109 C 
ATOM     16  O   LIG d   1      -4.679  94.643 120.933  0.00  0.00    -0.276 OA
ATOM     17  H   LIG d   1      -4.963  95.703 117.971  0.00  0.00     0.149 HD
ENDBRANCH   6  13
BRANCH   5  18
ATOM     18  N   LIG d   1      -3.168  92.719 117.960  0.00  0.00     0.381 N 
ATOM     19  H   LIG d   1      -2.853  91.800 117.720  0.00  0.00    -0.090 HD
ATOM     20  H   LIG d   1      -3.232  92.779 118.961  0.00  0.00    -0.090 HD
ATOM     21  H   LIG d   1      -2.524  93.399 117.619  0.00  0.00    -0.090 HD
ENDBRANCH   5  18
BRANCH   3  22
ATOM     22  C   LIG d   1      -6.852  90.730 115.634  0.00  0.00     0.382 C 
ATOM     23  O   LIG d   1      -8.080  90.568 115.436  0.00  0.00    -0.241 OA
ATOM     24  O   LIG d   1      -6.033  90.012 115.029  0.00  0.00    -0.241 OA
ENDBRANCH   3  22
TORSDOF 7
ENDMDL
MODEL 3
REMARK VINA RESULT:      -5.1      2.410      4.977
REMARK  7 active torsions:
REMARK  status: ('A' for Active; 'I' for Inactive)
REMARK    1  A    between atoms: C_2  and  C_3 
REMARK    2  A    between atoms: C_3  and  O_6 
REMARK    3  A    between atoms: C_3  and  C_4 
REMARK    4  A    between atoms: C_7  and  O_6 
REMARK    5  A    between atoms: C_9  and  C_10 
REMARK    6  A    between atoms: N_15  and  C_14 
REMARK    7  A    between atoms: N_20  and  C_19 
REMARK       I    between atoms: C_22  and  N_20 
ROOT
ATOM      1  C   LIG d   1      -6.168  94.092 118.587  0.00  0.00     0.161 C 
ATOM      2  C   LIG d   1      -6.882  93.581 117.491  0.00  0.00     0.016 C 
ATOM      3  C   LIG d   1      -6.397  92.544 116.661  0.00  0.00     0.038 C 
ATOM      4  C   LIG d   1      -5.222  91.840 116.964  0.00  0.00     0.028 C 
ATOM      5  C   LIG d   1      -4.218  92.657 117.771  0.00  0.00    -0.047 C 
ATOM      6  C   LIG d   1      -4.935  93.261 119.000  0.00  0.00     0.091 C 
ENDROOT
BRANCH   1   7
ATOM      7  O   LIG d   1      -7.055  94.264 119.711  0.00  0.00    -0.368 OA
BRANCH   7   8
ATOM      8  C   LIG d   1      -7.456  95.625 120.004  0.00  0.00     0.119 C 
BRANCH   8   9
ATOM      9  C   LIG d   1      -8.937  95.767 119.605  0.00  0.00     0.028 C 
ATOM     10  C   LIG d   1      -9.849  94.803 120.383  0.00  0.00     0.006 C 
ENDBRANCH   8   9
BRANCH   8  11
ATOM     11  C   LIG d   1      -6.702  96.629 119.126  0.00  0.00     0.028 C 
ATOM     12  C   LIG d   1      -7.633  97.429 118.201  0.00  0.00     0.006 C 
ENDBRANCH   8  11
ENDBRANCH   7   8
ENDBRANCH   1   7
BRANCH   6  13
ATOM     13  N   LIG d   1      -4.045  94.144 119.798  0.00  0.00    -0.311 N 
ATOM     14  C   LIG d   1      -3.346  93.721 120.851  0.00  0.00     0.210 C 
ATOM     15  C   LIG d   1      -2.506  94.799 121.544  0.00  0.00     0.109 C 
ATOM     16  O   LIG d   1      -3.317  92.550 121.256  0.00  0.00    -0.276 OA
ATOM     17  H   LIG d   1      -3.984  95.103 119.519  0.00  0.00     0.149 HD
ENDBRANCH   6  13
BRANCH   5  18
ATOM     18  N   LIG d   1      -3.104  91.760 118.134  0.00  0.00     0.381 N 
ATOM     19  H   LIG d   1      -3.191  90.894 117.641  0.00  0.00    -0.090 HD
ATOM     20  H   LIG d   1      -3.150  91.568 119.119  0.00  0.00    -0.090 HD
ATOM     21  H   LIG d   1      -2.234  92.191 117.913  0.00  0.00    -0.090 HD
ENDBRANCH   5  18
BRANCH   3  22
ATOM     22  C   LIG d   1      -7.070  92.229 115.490  0.00  0.00     0.382 C 
ATOM     23  O   LIG d   1      -7.062  93.033 114.527  0.00  0.00    -0.241 OA
ATOM     24  O   LIG d   1      -7.722  91.172 115.401  0.00  0.00    -0.241 OA
ENDBRANCH   3  22
TORSDOF 7
ENDMDL
MODEL 4
REMARK VINA RESULT:      -5.1      2.413      4.524
REMARK  7 active torsions:
REMARK  status: ('A' for Active; 'I' for Inactive)
REMARK    1  A    between atoms: C_2  and  C_3 
REMARK    2  A    between atoms: C_3  and  O_6 
REMARK    3  A    between atoms: C_3  and  C_4 
REMARK    4  A    between atoms: C_7  and  O_6 
REMARK    5  A    between atoms: C_9  and  C_10 
REMARK    6  A    between atoms: N_15  and  C_14 
REMARK    7  A    between atoms: N_20  and  C_19 
REMARK       I    between atoms: C_22  and  N_20 
ROOT
ATOM      1  C   LIG d   1      -4.777  93.571 118.644  0.00  0.00     0.161 C 
ATOM      2  C   LIG d   1      -6.060  94.135 118.552  0.00  0.00     0.016 C 
ATOM      3  C   LIG d   1      -7.073  93.632 117.703  0.00  0.00     0.038 C 
ATOM      4  C   LIG d   1      -6.918  92.430 116.996  0.00  0.00     0.028 C 
ATOM      5  C   LIG d   1      -5.464  92.102 116.669  0.00  0.00    -0.047 C 
ATOM      6  C   LIG d   1      -4.626  92.194 117.964  0.00  0.00     0.091 C 
ENDROOT
BRANCH   1   7
ATOM      7  O   LIG d   1      -4.376  93.494 120.026  0.00  0.00    -0.368 OA
BRANCH   7   8
ATOM      8  C   LIG d   1      -3.214  94.277 120.397  0.00  0.00     0.119 C 
BRANCH   8   9
ATOM      9  C   LIG d   1      -2.254  93.346 121.163  0.00  0.00     0.028 C 
ATOM     10  C   LIG d   1      -2.854  91.949 121.397  0.00  0.00     0.006 C 
ENDBRANCH   8   9
BRANCH   8  11
ATOM     11  C   LIG d   1      -3.581  95.385 121.388  0.00  0.00     0.028 C 
ATOM     12  C   LIG d   1      -4.057  96.671 120.694  0.00  0.00     0.006 C 
ENDBRANCH   8  11
ENDBRANCH   7   8
ENDBRANCH   1   7
BRANCH   6  13
ATOM     13  N   LIG d   1      -3.177  91.971 117.719  0.00  0.00    -0.311 N 
ATOM     14  C   LIG d   1      -2.585  90.785 117.852  0.00  0.00     0.210 C 
ATOM     15  C   LIG d   1      -1.080  90.778 117.570  0.00  0.00     0.109 C 
ATOM     16  O   LIG d   1      -3.170  89.731 118.145  0.00  0.00    -0.276 OA
ATOM     17  H   LIG d   1      -2.633  92.765 117.446  0.00  0.00     0.149 HD
ENDBRANCH   6  13
BRANCH   5  18
ATOM     18  N   LIG d   1      -5.437  90.761 116.056  0.00  0.00     0.381 N 
ATOM     19  H   LIG d   1      -4.492  90.497 115.862  0.00  0.00    -0.090 HD
ATOM     20  H   LIG d   1      -5.941  90.790 115.187  0.00  0.00    -0.090 HD
ATOM     21  H   LIG d   1      -5.856  90.097 116.669  0.00  0.00    -0.090 HD
ENDBRANCH   5  18
BRANCH   3  22
ATOM     22  C   LIG d   1      -8.242  94.355 117.524  0.00  0.00     0.382 C 
ATOM     23  O   LIG d   1      -8.826  94.857 118.514  0.00  0.00    -0.241 OA
ATOM     24  O   LIG d   1      -8.744  94.473 116.390  0.00  0.00    -0.241 OA
ENDBRANCH   3  22
TORSDOF 7
ENDMDL
MODEL 5
REMARK VINA RESULT:      -5.1      1.575      4.672
REMARK  7 active torsions:
REMARK  status: ('A' for Active; 'I' for Inactive)
REMARK    1  A    between atoms: C_2  and  C_3 
REMARK    2  A    between atoms: C_3  and  O_6 
REMARK    3  A    between atoms: C_3  and  C_4 
REMARK    4  A    between atoms: C_7  and  O_6 
REMARK    5  A    between atoms: C_9  and  C_10 
REMARK    6  A    between atoms: N_15  and  C_14 
REMARK    7  A    between atoms: N_20  and  C_19 
REMARK       I    between atoms: C_22  and  N_20 
ROOT
ATOM      1  C   LIG d   1      -4.380  92.911 117.850  0.00  0.00     0.161 C 
ATOM      2  C   LIG d   1      -4.189  93.881 118.847  0.00  0.00     0.016 C 
ATOM      3  C   LIG d   1      -5.238  94.663 119.383  0.00  0.00     0.038 C 
ATOM      4  C   LIG d   1      -6.582  94.421 119.063  0.00  0.00     0.028 C 
ATOM      5  C   LIG d   1      -6.773  93.793 117.687  0.00  0.00    -0.047 C 
ATOM      6  C   LIG d   1      -5.855  92.555 117.568  0.00  0.00     0.091 C 
ENDROOT
BRANCH   1   7
ATOM      7  O   LIG d   1      -3.631  91.723 118.173  0.00  0.00    -0.368 OA
BRANCH   7   8
ATOM      8  C   LIG d   1      -2.369  91.931 118.854  0.00  0.00     0.119 C 
BRANCH   8   9
ATOM      9  C   LIG d   1      -1.245  91.580 117.860  0.00  0.00     0.028 C 
ATOM     10  C   LIG d   1      -0.373  92.797 117.507  0.00  0.00     0.006 C 
ENDBRANCH   8   9
BRANCH   8  11
ATOM     11  C   LIG d   1      -2.198  90.954 120.021  0.00  0.00     0.028 C 
ATOM     12  C   LIG d   1      -2.767  91.498 121.341  0.00  0.00     0.006 C 
ENDBRANCH   8  11
ENDBRANCH   7   8
ENDBRANCH   1   7
BRANCH   6  13
ATOM     13  N   LIG d   1      -5.918  91.930 116.221  0.00  0.00    -0.311 N 
ATOM     14  C   LIG d   1      -6.861  91.063 115.858  0.00  0.00     0.210 C 
ATOM     15  C   LIG d   1      -6.729  90.524 114.430  0.00  0.00     0.109 C 
ATOM     16  O   LIG d   1      -7.813  90.714 116.572  0.00  0.00    -0.276 OA
ATOM     17  H   LIG d   1      -5.201  92.182 115.568  0.00  0.00     0.149 HD
ENDBRANCH   6  13
BRANCH   5  18
ATOM     18  N   LIG d   1      -8.204  93.468 117.539  0.00  0.00     0.381 N 
ATOM     19  H   LIG d   1      -8.727  94.306 117.378  0.00  0.00    -0.090 HD
ATOM     20  H   LIG d   1      -8.532  93.051 118.393  0.00  0.00    -0.090 HD
ATOM     21  H   LIG d   1      -8.334  92.836 116.781  0.00  0.00    -0.090 HD
ENDBRANCH   5  18
BRANCH   3  22
ATOM     22  C   LIG d   1      -4.942  95.728 120.221  0.00  0.00     0.382 C 
ATOM     23  O   LIG d   1      -5.379  95.741 121.397  0.00  0.00    -0.241 OA
ATOM     24  O   LIG d   1      -4.281  96.697 119.802  0.00  0.00    -0.241 OA
ENDBRANCH   3  22
TORSDOF 7
ENDMDL
MODEL 6
REMARK VINA RESULT:      -4.9      2.378      4.793
REMARK  7 active torsions:
REMARK  status: ('A' for Active; 'I' for Inactive)
REMARK    1  A    between atoms: C_2  and  C_3 
REMARK    2  A    between atoms: C_3  and  O_6 
REMARK    3  A    between atoms: C_3  and  C_4 
REMARK    4  A    between atoms: C_7  and  O_6 
REMARK    5  A    between atoms: C_9  and  C_10 
REMARK    6  A    between atoms: N_15  and  C_14 
REMARK    7  A    between atoms: N_20  and  C_19 
REMARK       I    between atoms: C_22  and  N_20 
ROOT
ATOM      1  C   LIG d   1      -5.429  94.387 119.206  0.00  0.00     0.161 C 
ATOM      2  C   LIG d   1      -6.522  94.390 118.323  0.00  0.00     0.016 C 
ATOM      3  C   LIG d   1      -6.666  93.467 117.261  0.00  0.00     0.038 C 
ATOM      4  C   LIG d   1      -5.798  92.377 117.102  0.00  0.00     0.028 C 
ATOM      5  C   LIG d   1      -4.402  92.628 117.662  0.00  0.00    -0.047 C 
ATOM      6  C   LIG d   1      -4.529  93.137 119.117  0.00  0.00     0.091 C 
ENDROOT
BRANCH   1   7
ATOM      7  O   LIG d   1      -5.893  94.575 120.557  0.00  0.00    -0.368 OA
BRANCH   7   8
ATOM      8  C   LIG d   1      -5.516  95.821 121.193  0.00  0.00     0.119 C 
BRANCH   8   9
ATOM      9  C   LIG d   1      -6.814  96.589 121.511  0.00  0.00     0.028 C 
ATOM     10  C   LIG d   1      -7.307  97.427 120.318  0.00  0.00     0.006 C 
ENDBRANCH   8   9
BRANCH   8  11
ATOM     11  C   LIG d   1      -4.736  96.723 120.232  0.00  0.00     0.028 C 
ATOM     12  C   LIG d   1      -3.302  97.002 120.708  0.00  0.00     0.006 C 
ENDBRANCH   8  11
ENDBRANCH   7   8
ENDBRANCH   1   7
BRANCH   6  13
ATOM     13  N   LIG d   1      -3.213  93.487 119.711  0.00  0.00    -0.311 N 
ATOM     14  C   LIG d   1      -2.490  92.641 120.443  0.00  0.00     0.210 C 
ATOM     15  C   LIG d   1      -1.172  93.210 120.977  0.00  0.00     0.109 C 
ATOM     16  O   LIG d   1      -2.799  91.462 120.672  0.00  0.00    -0.276 OA
ATOM     17  H   LIG d   1      -2.871  94.414 119.549  0.00  0.00     0.149 HD
ENDBRANCH   6  13
BRANCH   5  18
ATOM     18  N   LIG d   1      -3.645  91.367 117.555  0.00  0.00     0.381 N 
ATOM     19  H   LIG d   1      -3.835  90.931 116.675  0.00  0.00    -0.090 HD
ATOM     20  H   LIG d   1      -3.944  90.745 118.286  0.00  0.00    -0.090 HD
ATOM     21  H   LIG d   1      -2.669  91.547 117.641  0.00  0.00    -0.090 HD
ENDBRANCH   5  18
BRANCH   3  22
ATOM     22  C   LIG d   1      -7.668  93.654 116.320  0.00  0.00     0.382 C 
ATOM     23  O   LIG d   1      -7.591  93.088 115.203  0.00  0.00    -0.241 OA
ATOM     24  O   LIG d   1      -8.624  94.416 116.557  0.00  0.00    -0.241 OA
ENDBRANCH   3  22
TORSDOF 7
ENDMDL
MODEL 7
REMARK VINA RESULT:      -4.8      1.806      2.683
REMARK  7 active torsions:
REMARK  status: ('A' for Active; 'I' for Inactive)
REMARK    1  A    between atoms: C_2  and  C_3 
REMARK    2  A    between atoms: C_3  and  O_6 
REMARK    3  A    between atoms: C_3  and  C_4 
REMARK    4  A    between atoms: C_7  and  O_6 
REMARK    5  A    between atoms: C_9  and  C_10 
REMARK    6  A    between atoms: N_15  and  C_14 
REMARK    7  A    between atoms: N_20  and  C_19 
REMARK       I    between atoms: C_22  and  N_20 
ROOT
ATOM      1  C   LIG d   1      -6.474  93.258 118.998  0.00  0.00     0.161 C 
ATOM      2  C   LIG d   1      -6.430  92.404 117.883  0.00  0.00     0.016 C 
ATOM      3  C   LIG d   1      -7.004  92.727 116.632  0.00  0.00     0.038 C 
ATOM      4  C   LIG d   1      -7.534  93.999 116.365  0.00  0.00     0.028 C 
ATOM      5  C   LIG d   1      -8.052  94.713 117.609  0.00  0.00    -0.047 C 
ATOM      6  C   LIG d   1      -6.950  94.695 118.694  0.00  0.00     0.091 C 
ENDROOT
BRANCH   1   7
ATOM      7  O   LIG d   1      -5.187  93.284 119.645  0.00  0.00    -0.368 OA
BRANCH   7   8
ATOM      8  C   LIG d   1      -4.170  94.098 119.011  0.00  0.00     0.119 C 
BRANCH   8   9
ATOM      9  C   LIG d   1      -3.147  93.142 118.366  0.00  0.00     0.028 C 
ATOM     10  C   LIG d   1      -2.816  91.942 119.269  0.00  0.00     0.006 C 
ENDBRANCH   8   9
BRANCH   8  11
ATOM     11  C   LIG d   1      -3.377  94.904 120.044  0.00  0.00     0.028 C 
ATOM     12  C   LIG d   1      -3.924  94.745 121.471  0.00  0.00     0.006 C 
ENDBRANCH   8  11
ENDBRANCH   7   8
ENDBRANCH   1   7
BRANCH   6  13
ATOM     13  N   LIG d   1      -7.404  95.299 119.973  0.00  0.00    -0.311 N 
ATOM     14  C   LIG d   1      -6.951  96.462 120.436  0.00  0.00     0.210 C 
ATOM     15  C   LIG d   1      -7.536  96.893 121.785  0.00  0.00     0.109 C 
ATOM     16  O   LIG d   1      -6.144  97.194 119.843  0.00  0.00    -0.276 OA
ATOM     17  H   LIG d   1      -8.081  94.787 120.504  0.00  0.00     0.149 HD
ENDBRANCH   6  13
BRANCH   5  18
ATOM     18  N   LIG d   1      -8.447  96.076 117.209  0.00  0.00     0.381 N 
ATOM     19  H   LIG d   1      -8.126  96.735 117.890  0.00  0.00    -0.090 HD
ATOM     20  H   LIG d   1      -9.450  96.126 117.170  0.00  0.00    -0.090 HD
ATOM     21  H   LIG d   1      -8.061  96.295 116.317  0.00  0.00    -0.090 HD
ENDBRANCH   5  18
BRANCH   3  22
ATOM     22  C   LIG d   1      -7.088  91.758 115.644  0.00  0.00     0.382 C 
ATOM     23  O   LIG d   1      -7.556  90.626 115.915  0.00  0.00    -0.241 OA
ATOM     24  O   LIG d   1      -6.662  91.988 114.496  0.00  0.00    -0.241 OA
ENDBRANCH   3  22
TORSDOF 7
ENDMDL
MODEL 8
REMARK VINA RESULT:      -4.8      1.549      1.891
REMARK  7 active torsions:
REMARK  status: ('A' for Active; 'I' for Inactive)
REMARK    1  A    between atoms: C_2  and  C_3 
REMARK    2  A    between atoms: C_3  and  O_6 
REMARK    3  A    between atoms: C_3  and  C_4 
REMARK    4  A    between atoms: C_7  and  O_6 
REMARK    5  A    between atoms: C_9  and  C_10 
REMARK    6  A    between atoms: N_15  and  C_14 
REMARK    7  A    between atoms: N_20  and  C_19 
REMARK       I    between atoms: C_22  and  N_20 
ROOT
ATOM      1  C   LIG d   1      -5.214  93.112 118.357  0.00  0.00     0.161 C 
ATOM      2  C   LIG d   1      -5.392  92.157 117.343  0.00  0.00     0.016 C 
ATOM      3  C   LIG d   1      -6.438  92.214 116.394  0.00  0.00     0.038 C 
ATOM      4  C   LIG d   1      -7.295  93.321 116.301  0.00  0.00     0.028 C 
ATOM      5  C   LIG d   1      -7.468  94.066 117.621  0.00  0.00    -0.047 C 
ATOM      6  C   LIG d   1      -6.072  94.386 118.203  0.00  0.00     0.091 C 
ENDROOT
BRANCH   1   7
ATOM      7  O   LIG d   1      -3.819  93.458 118.464  0.00  0.00    -0.368 OA
BRANCH   7   8
ATOM      8  C   LIG d   1      -3.142  93.013 119.665  0.00  0.00     0.119 C 
BRANCH   8   9
ATOM      9  C   LIG d   1      -2.079  94.072 120.017  0.00  0.00     0.028 C 
ATOM     10  C   LIG d   1      -2.702  95.377 120.541  0.00  0.00     0.006 C 
ENDBRANCH   8   9
BRANCH   8  11
ATOM     11  C   LIG d   1      -2.360  91.720 119.417  0.00  0.00     0.028 C 
ATOM     12  C   LIG d   1      -1.513  91.772 118.135  0.00  0.00     0.006 C 
ENDBRANCH   8  11
ENDBRANCH   7   8
ENDBRANCH   1   7
BRANCH   6  13
ATOM     13  N   LIG d   1      -6.150  95.040 119.536  0.00  0.00    -0.311 N 
ATOM     14  C   LIG d   1      -6.489  94.394 120.650  0.00  0.00     0.210 C 
ATOM     15  C   LIG d   1      -6.527  95.261 121.913  0.00  0.00     0.109 C 
ATOM     16  O   LIG d   1      -6.730  93.179 120.719  0.00  0.00    -0.276 OA
ATOM     17  H   LIG d   1      -5.940  96.018 119.577  0.00  0.00     0.149 HD
ENDBRANCH   6  13
BRANCH   5  18
ATOM     18  N   LIG d   1      -8.272  95.272 117.350  0.00  0.00     0.381 N 
ATOM     19  H   LIG d   1      -8.437  95.768 118.203  0.00  0.00    -0.090 HD
ATOM     20  H   LIG d   1      -9.159  94.993 116.971  0.00  0.00    -0.090 HD
ATOM     21  H   LIG d   1      -7.796  95.861 116.702  0.00  0.00    -0.090 HD
ENDBRANCH   5  18
BRANCH   3  22
ATOM     22  C   LIG d   1      -6.661  91.137 115.550  0.00  0.00     0.382 C 
ATOM     23  O   LIG d   1      -7.778  90.994 114.997  0.00  0.00    -0.241 OA
ATOM     24  O   LIG d   1      -5.773  90.282 115.369  0.00  0.00    -0.241 OA
ENDBRANCH   3  22
TORSDOF 7
ENDMDL
MODEL 9
REMARK VINA RESULT:      -4.7      1.994      4.774
REMARK  7 active torsions:
REMARK  status: ('A' for Active; 'I' for Inactive)
REMARK    1  A    between atoms: C_2  and  C_3 
REMARK    2  A    between atoms: C_3  and  O_6 
REMARK    3  A    between atoms: C_3  and  C_4 
REMARK    4  A    between atoms: C_7  and  O_6 
REMARK    5  A    between atoms: C_9  and  C_10 
REMARK    6  A    between atoms: N_15  and  C_14 
REMARK    7  A    between atoms: N_20  and  C_19 
REMARK       I    between atoms: C_22  and  N_20 
ROOT
ATOM      1  C   LIG d   1      -4.525  92.927 117.930  0.00  0.00     0.161 C 
ATOM      2  C   LIG d   1      -3.823  91.712 117.855  0.00  0.00     0.016 C 
ATOM      3  C   LIG d   1      -2.755  91.376 118.718  0.00  0.00     0.038 C 
ATOM      4  C   LIG d   1      -2.411  92.175 119.819  0.00  0.00     0.028 C 
ATOM      5  C   LIG d   1      -2.759  93.648 119.630  0.00  0.00    -0.047 C 
ATOM      6  C   LIG d   1      -4.237  93.763 119.195  0.00  0.00     0.091 C 
ENDROOT
BRANCH   1   7
ATOM      7  O   LIG d   1      -5.939  92.683 117.801  0.00  0.00    -0.368 OA
BRANCH   7   8
ATOM      8  C   LIG d   1      -6.464  92.674 116.450  0.00  0.00     0.119 C 
BRANCH   8   9
ATOM      9  C   LIG d   1      -7.597  93.716 116.387  0.00  0.00     0.028 C 
ATOM     10  C   LIG d   1      -8.088  94.136 117.783  0.00  0.00     0.006 C 
ENDBRANCH   8   9
BRANCH   8  11
ATOM     11  C   LIG d   1      -7.127  91.334 116.119  0.00  0.00     0.028 C 
ATOM     12  C   LIG d   1      -6.414  90.580 114.986  0.00  0.00     0.006 C 
ENDBRANCH   8  11
ENDBRANCH   7   8
ENDBRANCH   1   7
BRANCH   6  13
ATOM     13  N   LIG d   1      -4.636  95.165 118.907  0.00  0.00    -0.311 N 
ATOM     14  C   LIG d   1      -5.491  95.854 119.662  0.00  0.00     0.210 C 
ATOM     15  C   LIG d   1      -5.780  97.277 119.176  0.00  0.00     0.109 C 
ATOM     16  O   LIG d   1      -6.012  95.432 120.705  0.00  0.00    -0.276 OA
ATOM     17  H   LIG d   1      -4.236  95.596 118.096  0.00  0.00     0.149 HD
ENDBRANCH   6  13
BRANCH   5  18
ATOM     18  N   LIG d   1      -2.475  94.339 120.902  0.00  0.00     0.381 N 
ATOM     19  H   LIG d   1      -2.750  95.298 120.835  0.00  0.00    -0.090 HD
ATOM     20  H   LIG d   1      -1.486  94.305 121.077  0.00  0.00    -0.090 HD
ATOM     21  H   LIG d   1      -2.967  93.897 121.647  0.00  0.00    -0.090 HD
ENDBRANCH   5  18
BRANCH   3  22
ATOM     22  C   LIG d   1      -1.990  90.248 118.459  0.00  0.00     0.382 C 
ATOM     23  O   LIG d   1      -1.129  90.271 117.547  0.00  0.00    -0.241 OA
ATOM     24  O   LIG d   1      -2.183  89.195 119.095  0.00  0.00    -0.241 OA
ENDBRANCH   3  22
TORSDOF 7
ENDMDL
