MODEL 1
REMARK VINA RESULT:      -5.7      0.000      0.000
REMARK  7 active torsions:
REMARK  status: ('A' for Active; 'I' for Inactive)
REMARK    1  A    between atoms: C_2  and  C_3 
REMARK    2  A    between atoms: C_3  and  O_6 
REMARK    3  A    between atoms: C_3  and  C_4 
REMARK    4  A    between atoms: C_7  and  O_6 
REMARK    5  A    between atoms: C_9  and  C_10 
REMARK    6  A    between atoms: N_15  and  C_14 
REMARK    7  A    between atoms: N_20  and  C_19 
REMARK       I    between atoms: C_22  and  N_20 
ROOT
ATOM      1  C   LIG d   1      -4.477  92.243 117.714  0.00  0.00     0.161 C 
ATOM      2  C   LIG d   1      -4.909  91.394 116.681  0.00  0.00     0.016 C 
ATOM      3  C   LIG d   1      -5.964  91.718 115.798  0.00  0.00     0.038 C 
ATOM      4  C   LIG d   1      -6.564  92.986 115.793  0.00  0.00     0.028 C 
ATOM      5  C   LIG d   1      -6.504  93.690 117.145  0.00  0.00    -0.047 C 
ATOM      6  C   LIG d   1      -5.044  93.676 117.653  0.00  0.00     0.091 C 
ENDROOT
BRANCH   1   7
ATOM      7  O   LIG d   1      -3.036  92.276 117.749  0.00  0.00    -0.368 OA
BRANCH   7   8
ATOM      8  C   LIG d   1      -2.377  91.019 118.039  0.00  0.00     0.119 C 
BRANCH   8   9
ATOM      9  C   LIG d   1      -2.441  90.803 119.563  0.00  0.00     0.028 C 
ATOM     10  C   LIG d   1      -3.220  89.532 119.943  0.00  0.00     0.006 C 
ENDBRANCH   8   9
BRANCH   8  11
ATOM     11  C   LIG d   1      -0.884  91.082 117.701  0.00  0.00     0.028 C 
ATOM     12  C   LIG d   1      -0.332  92.516 117.706  0.00  0.00     0.006 C 
ENDBRANCH   8  11
ENDBRANCH   7   8
ENDBRANCH   1   7
BRANCH   6  13
ATOM     13  N   LIG d   1      -4.911  94.271 119.009  0.00  0.00    -0.311 N 
ATOM     14  C   LIG d   1      -3.962  95.146 119.335  0.00  0.00     0.210 C 
ATOM     15  C   LIG d   1      -3.992  95.619 120.792  0.00  0.00     0.109 C 
ATOM     16  O   LIG d   1      -3.118  95.600 118.548  0.00  0.00    -0.276 OA
ATOM     17  H   LIG d   1      -5.574  93.981 119.701  0.00  0.00     0.149 HD
ENDBRANCH   6  13
BRANCH   5  18
ATOM     18  N   LIG d   1      -7.040  95.052 116.962  0.00  0.00     0.381 N 
ATOM     19  H   LIG d   1      -7.202  95.225 115.990  0.00  0.00    -0.090 HD
ATOM     20  H   LIG d   1      -6.361  95.716 117.292  0.00  0.00    -0.090 HD
ATOM     21  H   LIG d   1      -7.890  95.155 117.471  0.00  0.00    -0.090 HD
ENDBRANCH   5  18
BRANCH   3  22
ATOM     22  C   LIG d   1      -6.458  90.753 114.934  0.00  0.00     0.382 C 
ATOM     23  O   LIG d   1      -7.599  90.887 114.430  0.00  0.00    -0.241 OA
ATOM     24  O   LIG d   1      -5.794  89.729 114.685  0.00  0.00    -0.241 OA
ENDBRANCH   3  22
TORSDOF 7
ENDMDL
MODEL 2
REMARK VINA RESULT:      -5.7      0.503      1.771
REMARK  7 active torsions:
REMARK  status: ('A' for Active; 'I' for Inactive)
REMARK    1  A    between atoms: C_2  and  C_3 
REMARK    2  A    between atoms: C_3  and  O_6 
REMARK    3  A    between atoms: C_3  and  C_4 
REMARK    4  A    between atoms: C_7  and  O_6 
REMARK    5  A    between atoms: C_9  and  C_10 
REMARK    6  A    between atoms: N_15  and  C_14 
REMARK    7  A    between atoms: N_20  and  C_19 
REMARK       I    between atoms: C_22  and  N_20 
ROOT
ATOM      1  C   LIG d   1      -4.481  92.252 117.778  0.00  0.00     0.161 C 
ATOM      2  C   LIG d   1      -4.885  91.385 116.749  0.00  0.00     0.016 C 
ATOM      3  C   LIG d   1      -5.927  91.686 115.842  0.00  0.00     0.038 C 
ATOM      4  C   LIG d   1      -6.539  92.948 115.808  0.00  0.00     0.028 C 
ATOM      5  C   LIG d   1      -6.512  93.670 117.150  0.00  0.00    -0.047 C 
ATOM      6  C   LIG d   1      -5.062  93.678 117.687  0.00  0.00     0.091 C 
ENDROOT
BRANCH   1   7
ATOM      7  O   LIG d   1      -3.042  92.299 117.839  0.00  0.00    -0.368 OA
BRANCH   7   8
ATOM      8  C   LIG d   1      -2.440  91.807 119.062  0.00  0.00     0.119 C 
BRANCH   8   9
ATOM      9  C   LIG d   1      -1.404  90.735 118.669  0.00  0.00     0.028 C 
ATOM     10  C   LIG d   1      -0.612  91.119 117.408  0.00  0.00     0.006 C 
ENDBRANCH   8   9
BRANCH   8  11
ATOM     11  C   LIG d   1      -3.466  91.079 119.935  0.00  0.00     0.028 C 
ATOM     12  C   LIG d   1      -3.233  89.560 119.987  0.00  0.00     0.006 C 
ENDBRANCH   8  11
ENDBRANCH   7   8
ENDBRANCH   1   7
BRANCH   6  13
ATOM     13  N   LIG d   1      -4.960  94.293 119.036  0.00  0.00    -0.311 N 
ATOM     14  C   LIG d   1      -4.025  95.181 119.368  0.00  0.00     0.210 C 
ATOM     15  C   LIG d   1      -4.087  95.674 120.817  0.00  0.00     0.109 C 
ATOM     16  O   LIG d   1      -3.170  95.632 118.591  0.00  0.00    -0.276 OA
ATOM     17  H   LIG d   1      -5.633  94.007 119.720  0.00  0.00     0.149 HD
ENDBRANCH   6  13
BRANCH   5  18
ATOM     18  N   LIG d   1      -7.057  95.025 116.939  0.00  0.00     0.381 N 
ATOM     19  H   LIG d   1      -7.804  95.193 117.582  0.00  0.00    -0.090 HD
ATOM     20  H   LIG d   1      -7.425  95.085 116.006  0.00  0.00    -0.090 HD
ATOM     21  H   LIG d   1      -6.340  95.705 117.066  0.00  0.00    -0.090 HD
ENDBRANCH   5  18
BRANCH   3  22
ATOM     22  C   LIG d   1      -6.395  90.704 114.982  0.00  0.00     0.382 C 
ATOM     23  O   LIG d   1      -5.678  89.708 114.719  0.00  0.00    -0.241 OA
ATOM     24  O   LIG d   1      -7.505  90.823 114.430  0.00  0.00    -0.241 OA
ENDBRANCH   3  22
TORSDOF 7
ENDMDL
MODEL 3
REMARK VINA RESULT:      -5.5      2.316      4.967
REMARK  7 active torsions:
REMARK  status: ('A' for Active; 'I' for Inactive)
REMARK    1  A    between atoms: C_2  and  C_3 
REMARK    2  A    between atoms: C_3  and  O_6 
REMARK    3  A    between atoms: C_3  and  C_4 
REMARK    4  A    between atoms: C_7  and  O_6 
REMARK    5  A    between atoms: C_9  and  C_10 
REMARK    6  A    between atoms: N_15  and  C_14 
REMARK    7  A    between atoms: N_20  and  C_19 
REMARK       I    between atoms: C_22  and  N_20 
ROOT
ATOM      1  C   LIG d   1      -5.200  93.644 118.025  0.00  0.00     0.161 C 
ATOM      2  C   LIG d   1      -5.541  94.858 118.643  0.00  0.00     0.016 C 
ATOM      3  C   LIG d   1      -6.739  95.558 118.375  0.00  0.00     0.038 C 
ATOM      4  C   LIG d   1      -7.755  95.011 117.576  0.00  0.00     0.028 C 
ATOM      5  C   LIG d   1      -7.240  94.024 116.534  0.00  0.00    -0.047 C 
ATOM      6  C   LIG d   1      -6.345  92.976 117.235  0.00  0.00     0.091 C 
ENDROOT
BRANCH   1   7
ATOM      7  O   LIG d   1      -4.667  92.730 119.004  0.00  0.00    -0.368 OA
BRANCH   7   8
ATOM      8  C   LIG d   1      -3.234  92.784 119.213  0.00  0.00     0.119 C 
BRANCH   8   9
ATOM      9  C   LIG d   1      -2.577  93.061 117.848  0.00  0.00     0.028 C 
ATOM     10  C   LIG d   1      -1.385  94.027 117.955  0.00  0.00     0.006 C 
ENDBRANCH   8   9
BRANCH   8  11
ATOM     11  C   LIG d   1      -2.685  91.426 119.660  0.00  0.00     0.028 C 
ATOM     12  C   LIG d   1      -3.220  90.259 118.815  0.00  0.00     0.006 C 
ENDBRANCH   8  11
ENDBRANCH   7   8
ENDBRANCH   1   7
BRANCH   6  13
ATOM     13  N   LIG d   1      -5.732  92.022 116.275  0.00  0.00    -0.311 N 
ATOM     14  C   LIG d   1      -6.207  90.797 116.055  0.00  0.00     0.210 C 
ATOM     15  C   LIG d   1      -5.413  89.968 115.039  0.00  0.00     0.109 C 
ATOM     16  O   LIG d   1      -7.229  90.330 116.580  0.00  0.00    -0.276 OA
ATOM     17  H   LIG d   1      -4.917  92.330 115.782  0.00  0.00     0.149 HD
ENDBRANCH   6  13
BRANCH   5  18
ATOM     18  N   LIG d   1      -8.413  93.428 115.867  0.00  0.00     0.381 N 
ATOM     19  H   LIG d   1      -9.198  94.043 115.949  0.00  0.00    -0.090 HD
ATOM     20  H   LIG d   1      -8.642  92.563 116.323  0.00  0.00    -0.090 HD
ATOM     21  H   LIG d   1      -8.211  93.262 114.906  0.00  0.00    -0.090 HD
ENDBRANCH   5  18
BRANCH   3  22
ATOM     22  C   LIG d   1      -6.914  96.839 118.877  0.00  0.00     0.382 C 
ATOM     23  O   LIG d   1      -5.958  97.430 119.434  0.00  0.00    -0.241 OA
ATOM     24  O   LIG d   1      -8.028  97.393 118.819  0.00  0.00    -0.241 OA
ENDBRANCH   3  22
TORSDOF 7
ENDMDL
MODEL 4
REMARK VINA RESULT:      -5.3      2.313      4.319
REMARK  7 active torsions:
REMARK  status: ('A' for Active; 'I' for Inactive)
REMARK    1  A    between atoms: C_2  and  C_3 
REMARK    2  A    between atoms: C_3  and  O_6 
REMARK    3  A    between atoms: C_3  and  C_4 
REMARK    4  A    between atoms: C_7  and  O_6 
REMARK    5  A    between atoms: C_9  and  C_10 
REMARK    6  A    between atoms: N_15  and  C_14 
REMARK    7  A    between atoms: N_20  and  C_19 
REMARK       I    between atoms: C_22  and  N_20 
ROOT
ATOM      1  C   LIG d   1      -5.057  93.432 117.254  0.00  0.00     0.161 C 
ATOM      2  C   LIG d   1      -5.988  92.513 116.743  0.00  0.00     0.016 C 
ATOM      3  C   LIG d   1      -5.722  91.131 116.604  0.00  0.00     0.038 C 
ATOM      4  C   LIG d   1      -4.552  90.547 117.112  0.00  0.00     0.028 C 
ATOM      5  C   LIG d   1      -3.373  91.512 117.178  0.00  0.00    -0.047 C 
ATOM      6  C   LIG d   1      -3.816  92.796 117.915  0.00  0.00     0.091 C 
ENDROOT
BRANCH   1   7
ATOM      7  O   LIG d   1      -5.710  94.330 118.174  0.00  0.00    -0.368 OA
BRANCH   7   8
ATOM      8  C   LIG d   1      -7.020  93.922 118.640  0.00  0.00     0.119 C 
BRANCH   8   9
ATOM      9  C   LIG d   1      -8.004  95.061 118.311  0.00  0.00     0.028 C 
ATOM     10  C   LIG d   1      -7.297  96.416 118.141  0.00  0.00     0.006 C 
ENDBRANCH   8   9
BRANCH   8  11
ATOM     11  C   LIG d   1      -7.051  93.787 120.165  0.00  0.00     0.028 C 
ATOM     12  C   LIG d   1      -6.245  92.582 120.674  0.00  0.00     0.006 C 
ENDBRANCH   8  11
ENDBRANCH   7   8
ENDBRANCH   1   7
BRANCH   6  13
ATOM     13  N   LIG d   1      -2.747  93.828 117.951  0.00  0.00    -0.311 N 
ATOM     14  C   LIG d   1      -1.865  93.936 118.943  0.00  0.00     0.210 C 
ATOM     15  C   LIG d   1      -0.859  95.081 118.792  0.00  0.00     0.109 C 
ATOM     16  O   LIG d   1      -1.800  93.172 119.918  0.00  0.00    -0.276 OA
ATOM     17  H   LIG d   1      -2.707  94.470 117.184  0.00  0.00     0.149 HD
ENDBRANCH   6  13
BRANCH   5  18
ATOM     18  N   LIG d   1      -2.262  90.813 117.852  0.00  0.00     0.381 N 
ATOM     19  H   LIG d   1      -2.523  90.589 118.791  0.00  0.00    -0.090 HD
ATOM     20  H   LIG d   1      -1.465  91.424 117.883  0.00  0.00    -0.090 HD
ATOM     21  H   LIG d   1      -2.033  89.980 117.355  0.00  0.00    -0.090 HD
ENDBRANCH   5  18
BRANCH   3  22
ATOM     22  C   LIG d   1      -6.616  90.325 115.916  0.00  0.00     0.382 C 
ATOM     23  O   LIG d   1      -7.658  89.918 116.484  0.00  0.00    -0.241 OA
ATOM     24  O   LIG d   1      -6.371  89.963 114.750  0.00  0.00    -0.241 OA
ENDBRANCH   3  22
TORSDOF 7
ENDMDL
MODEL 5
REMARK VINA RESULT:      -4.9      1.786      4.569
REMARK  7 active torsions:
REMARK  status: ('A' for Active; 'I' for Inactive)
REMARK    1  A    between atoms: C_2  and  C_3 
REMARK    2  A    between atoms: C_3  and  O_6 
REMARK    3  A    between atoms: C_3  and  C_4 
REMARK    4  A    between atoms: C_7  and  O_6 
REMARK    5  A    between atoms: C_9  and  C_10 
REMARK    6  A    between atoms: N_15  and  C_14 
REMARK    7  A    between atoms: N_20  and  C_19 
REMARK       I    between atoms: C_22  and  N_20 
ROOT
ATOM      1  C   LIG d   1      -5.223  92.621 118.306  0.00  0.00     0.161 C 
ATOM      2  C   LIG d   1      -4.652  93.748 118.920  0.00  0.00     0.016 C 
ATOM      3  C   LIG d   1      -5.254  95.027 118.913  0.00  0.00     0.038 C 
ATOM      4  C   LIG d   1      -6.550  95.234 118.417  0.00  0.00     0.028 C 
ATOM      5  C   LIG d   1      -6.952  94.234 117.337  0.00  0.00    -0.047 C 
ATOM      6  C   LIG d   1      -6.688  92.802 117.856  0.00  0.00     0.091 C 
ENDROOT
BRANCH   1   7
ATOM      7  O   LIG d   1      -5.103  91.478 119.175  0.00  0.00    -0.368 OA
BRANCH   7   8
ATOM      8  C   LIG d   1      -4.168  90.454 118.756  0.00  0.00     0.119 C 
BRANCH   8   9
ATOM      9  C   LIG d   1      -3.037  90.405 119.802  0.00  0.00     0.028 C 
ATOM     10  C   LIG d   1      -2.945  89.039 120.503  0.00  0.00     0.006 C 
ENDBRANCH   8   9
BRANCH   8  11
ATOM     11  C   LIG d   1      -3.484  90.829 117.438  0.00  0.00     0.028 C 
ATOM     12  C   LIG d   1      -1.971  91.046 117.592  0.00  0.00     0.006 C 
ENDBRANCH   8  11
ENDBRANCH   7   8
ENDBRANCH   1   7
BRANCH   6  13
ATOM     13  N   LIG d   1      -6.975  91.766 116.830  0.00  0.00    -0.311 N 
ATOM     14  C   LIG d   1      -6.732  91.934 115.531  0.00  0.00     0.210 C 
ATOM     15  C   LIG d   1      -7.121  90.748 114.643  0.00  0.00     0.109 C 
ATOM     16  O   LIG d   1      -6.203  92.939 115.034  0.00  0.00    -0.276 OA
ATOM     17  H   LIG d   1      -7.376  90.907 117.150  0.00  0.00     0.149 HD
ENDBRANCH   6  13
BRANCH   5  18
ATOM     18  N   LIG d   1      -8.369  94.478 117.009  0.00  0.00     0.381 N 
ATOM     19  H   LIG d   1      -8.890  94.628 117.850  0.00  0.00    -0.090 HD
ATOM     20  H   LIG d   1      -8.740  93.667 116.548  0.00  0.00    -0.090 HD
ATOM     21  H   LIG d   1      -8.449  95.273 116.414  0.00  0.00    -0.090 HD
ENDBRANCH   5  18
BRANCH   3  22
ATOM     22  C   LIG d   1      -4.542  96.125 119.371  0.00  0.00     0.382 C 
ATOM     23  O   LIG d   1      -4.950  97.285 119.124  0.00  0.00    -0.241 OA
ATOM     24  O   LIG d   1      -3.472  95.970 119.990  0.00  0.00    -0.241 OA
ENDBRANCH   3  22
TORSDOF 7
ENDMDL
MODEL 6
REMARK VINA RESULT:      -4.8      2.467      5.848
REMARK  7 active torsions:
REMARK  status: ('A' for Active; 'I' for Inactive)
REMARK    1  A    between atoms: C_2  and  C_3 
REMARK    2  A    between atoms: C_3  and  O_6 
REMARK    3  A    between atoms: C_3  and  C_4 
REMARK    4  A    between atoms: C_7  and  O_6 
REMARK    5  A    between atoms: C_9  and  C_10 
REMARK    6  A    between atoms: N_15  and  C_14 
REMARK    7  A    between atoms: N_20  and  C_19 
REMARK       I    between atoms: C_22  and  N_20 
ROOT
ATOM      1  C   LIG d   1      -5.724  92.011 119.162  0.00  0.00     0.161 C 
ATOM      2  C   LIG d   1      -4.706  92.040 120.130  0.00  0.00     0.016 C 
ATOM      3  C   LIG d   1      -3.393  91.573 119.893  0.00  0.00     0.038 C 
ATOM      4  C   LIG d   1      -2.964  91.182 118.616  0.00  0.00     0.028 C 
ATOM      5  C   LIG d   1      -4.092  90.661 117.732  0.00  0.00    -0.047 C 
ATOM      6  C   LIG d   1      -5.245  91.690 117.731  0.00  0.00     0.091 C 
ENDROOT
BRANCH   1   7
ATOM      7  O   LIG d   1      -6.452  93.255 119.181  0.00  0.00    -0.368 OA
BRANCH   7   8
ATOM      8  C   LIG d   1      -5.865  94.347 118.432  0.00  0.00     0.119 C 
BRANCH   8   9
ATOM      9  C   LIG d   1      -5.073  95.218 119.426  0.00  0.00     0.028 C 
ATOM     10  C   LIG d   1      -3.633  95.484 118.956  0.00  0.00     0.006 C 
ENDBRANCH   8   9
BRANCH   8  11
ATOM     11  C   LIG d   1      -6.944  95.270 117.855  0.00  0.00     0.028 C 
ATOM     12  C   LIG d   1      -8.125  94.498 117.247  0.00  0.00     0.006 C 
ENDBRANCH   8  11
ENDBRANCH   7   8
ENDBRANCH   1   7
BRANCH   6  13
ATOM     13  N   LIG d   1      -6.424  91.220 116.957  0.00  0.00    -0.311 N 
ATOM     14  C   LIG d   1      -6.688  91.613 115.712  0.00  0.00     0.210 C 
ATOM     15  C   LIG d   1      -7.964  91.023 115.105  0.00  0.00     0.109 C 
ATOM     16  O   LIG d   1      -5.968  92.369 115.041  0.00  0.00    -0.276 OA
ATOM     17  H   LIG d   1      -7.044  90.581 117.414  0.00  0.00     0.149 HD
ENDBRANCH   6  13
BRANCH   5  18
ATOM     18  N   LIG d   1      -3.531  90.419 116.390  0.00  0.00     0.381 N 
ATOM     19  H   LIG d   1      -3.988  91.006 115.721  0.00  0.00    -0.090 HD
ATOM     20  H   LIG d   1      -3.697  89.462 116.135  0.00  0.00    -0.090 HD
ATOM     21  H   LIG d   1      -2.552  90.605 116.391  0.00  0.00    -0.090 HD
ENDBRANCH   5  18
BRANCH   3  22
ATOM     22  C   LIG d   1      -2.503  91.457 120.951  0.00  0.00     0.382 C 
ATOM     23  O   LIG d   1      -2.374  90.359 121.544  0.00  0.00    -0.241 OA
ATOM     24  O   LIG d   1      -1.861  92.448 121.348  0.00  0.00    -0.241 OA
ENDBRANCH   3  22
TORSDOF 7
ENDMDL
MODEL 7
REMARK VINA RESULT:      -4.7      2.152      3.588
REMARK  7 active torsions:
REMARK  status: ('A' for Active; 'I' for Inactive)
REMARK    1  A    between atoms: C_2  and  C_3 
REMARK    2  A    between atoms: C_3  and  O_6 
REMARK    3  A    between atoms: C_3  and  C_4 
REMARK    4  A    between atoms: C_7  and  O_6 
REMARK    5  A    between atoms: C_9  and  C_10 
REMARK    6  A    between atoms: N_15  and  C_14 
REMARK    7  A    between atoms: N_20  and  C_19 
REMARK       I    between atoms: C_22  and  N_20 
ROOT
ATOM      1  C   LIG d   1      -5.410  93.675 118.101  0.00  0.00     0.161 C 
ATOM      2  C   LIG d   1      -4.881  92.524 117.492  0.00  0.00     0.016 C 
ATOM      3  C   LIG d   1      -5.515  91.847 116.425  0.00  0.00     0.038 C 
ATOM      4  C   LIG d   1      -6.653  92.366 115.790  0.00  0.00     0.028 C 
ATOM      5  C   LIG d   1      -7.502  93.251 116.696  0.00  0.00    -0.047 C 
ATOM      6  C   LIG d   1      -6.594  94.318 117.349  0.00  0.00     0.091 C 
ENDROOT
BRANCH   1   7
ATOM      7  O   LIG d   1      -4.363  94.643 118.309  0.00  0.00    -0.368 OA
BRANCH   7   8
ATOM      8  C   LIG d   1      -3.831  94.728 119.654  0.00  0.00     0.119 C 
BRANCH   8   9
ATOM      9  C   LIG d   1      -4.036  96.176 120.142  0.00  0.00     0.028 C 
ATOM     10  C   LIG d   1      -3.499  97.213 119.141  0.00  0.00     0.006 C 
ENDBRANCH   8   9
BRANCH   8  11
ATOM     11  C   LIG d   1      -2.316  94.506 119.669  0.00  0.00     0.028 C 
ATOM     12  C   LIG d   1      -1.929  93.072 120.065  0.00  0.00     0.006 C 
ENDBRANCH   8  11
ENDBRANCH   7   8
ENDBRANCH   1   7
BRANCH   6  13
ATOM     13  N   LIG d   1      -7.329  95.174 118.316  0.00  0.00    -0.311 N 
ATOM     14  C   LIG d   1      -8.020  94.690 119.346  0.00  0.00     0.210 C 
ATOM     15  C   LIG d   1      -8.720  95.744 120.209  0.00  0.00     0.109 C 
ATOM     16  O   LIG d   1      -8.092  93.489 119.647  0.00  0.00    -0.276 OA
ATOM     17  H   LIG d   1      -7.298  96.164 118.165  0.00  0.00     0.149 HD
ENDBRANCH   6  13
BRANCH   5  18
ATOM     18  N   LIG d   1      -8.577  93.833 115.871  0.00  0.00     0.381 N 
ATOM     19  H   LIG d   1      -8.342  93.752 114.902  0.00  0.00    -0.090 HD
ATOM     20  H   LIG d   1      -8.665  94.809 116.093  0.00  0.00    -0.090 HD
ATOM     21  H   LIG d   1      -9.438  93.365 116.051  0.00  0.00    -0.090 HD
ENDBRANCH   5  18
BRANCH   3  22
ATOM     22  C   LIG d   1      -5.032  90.616 116.009  0.00  0.00     0.382 C 
ATOM     23  O   LIG d   1      -3.949  90.180 116.469  0.00  0.00    -0.241 OA
ATOM     24  O   LIG d   1      -5.643  89.956 115.147  0.00  0.00    -0.241 OA
ENDBRANCH   3  22
TORSDOF 7
ENDMDL
MODEL 8
REMARK VINA RESULT:      -4.7      2.386      5.256
REMARK  7 active torsions:
REMARK  status: ('A' for Active; 'I' for Inactive)
REMARK    1  A    between atoms: C_2  and  C_3 
REMARK    2  A    between atoms: C_3  and  O_6 
REMARK    3  A    between atoms: C_3  and  C_4 
REMARK    4  A    between atoms: C_7  and  O_6 
REMARK    5  A    between atoms: C_9  and  C_10 
REMARK    6  A    between atoms: N_15  and  C_14 
REMARK    7  A    between atoms: N_20  and  C_19 
REMARK       I    between atoms: C_22  and  N_20 
ROOT
ATOM      1  C   LIG d   1      -3.675  93.569 117.794  0.00  0.00     0.161 C 
ATOM      2  C   LIG d   1      -2.378  93.041 117.905  0.00  0.00     0.016 C 
ATOM      3  C   LIG d   1      -1.380  93.596 118.739  0.00  0.00     0.038 C 
ATOM      4  C   LIG d   1      -1.660  94.635 119.639  0.00  0.00     0.028 C 
ATOM      5  C   LIG d   1      -2.817  95.525 119.197  0.00  0.00    -0.047 C 
ATOM      6  C   LIG d   1      -4.032  94.634 118.852  0.00  0.00     0.091 C 
ENDROOT
BRANCH   1   7
ATOM      7  O   LIG d   1      -4.641  92.499 117.813  0.00  0.00    -0.368 OA
BRANCH   7   8
ATOM      8  C   LIG d   1      -5.292  92.205 116.553  0.00  0.00     0.119 C 
BRANCH   8   9
ATOM      9  C   LIG d   1      -6.806  92.404 116.756  0.00  0.00     0.028 C 
ATOM     10  C   LIG d   1      -7.339  93.646 116.021  0.00  0.00     0.006 C 
ENDBRANCH   8   9
BRANCH   8  11
ATOM     11  C   LIG d   1      -5.124  90.732 116.169  0.00  0.00     0.028 C 
ATOM     12  C   LIG d   1      -6.052  90.306 115.020  0.00  0.00     0.006 C 
ENDBRANCH   8  11
ENDBRANCH   7   8
ENDBRANCH   1   7
BRANCH   6  13
ATOM     13  N   LIG d   1      -5.181  95.419 118.329  0.00  0.00    -0.311 N 
ATOM     14  C   LIG d   1      -6.176  95.860 119.095  0.00  0.00     0.210 C 
ATOM     15  C   LIG d   1      -7.271  96.633 118.352  0.00  0.00     0.109 C 
ATOM     16  O   LIG d   1      -6.241  95.713 120.325  0.00  0.00    -0.276 OA
ATOM     17  H   LIG d   1      -5.192  95.611 117.346  0.00  0.00     0.149 HD
ENDBRANCH   6  13
BRANCH   5  18
ATOM     18  N   LIG d   1      -3.090  96.477 120.290  0.00  0.00     0.381 N 
ATOM     19  H   LIG d   1      -2.519  97.291 120.180  0.00  0.00    -0.090 HD
ATOM     20  H   LIG d   1      -2.856  96.043 121.165  0.00  0.00    -0.090 HD
ATOM     21  H   LIG d   1      -4.052  96.735 120.285  0.00  0.00    -0.090 HD
ENDBRANCH   5  18
BRANCH   3  22
ATOM     22  C   LIG d   1      -0.075  93.138 118.648  0.00  0.00     0.382 C 
ATOM     23  O   LIG d   1       0.293  92.487 117.640  0.00  0.00    -0.241 OA
ATOM     24  O   LIG d   1       0.728  93.328 119.581  0.00  0.00    -0.241 OA
ENDBRANCH   3  22
TORSDOF 7
ENDMDL
MODEL 9
REMARK VINA RESULT:      -4.6      3.397      6.544
REMARK  7 active torsions:
REMARK  status: ('A' for Active; 'I' for Inactive)
REMARK    1  A    between atoms: C_2  and  C_3 
REMARK    2  A    between atoms: C_3  and  O_6 
REMARK    3  A    between atoms: C_3  and  C_4 
REMARK    4  A    between atoms: C_7  and  O_6 
REMARK    5  A    between atoms: C_9  and  C_10 
REMARK    6  A    between atoms: N_15  and  C_14 
REMARK    7  A    between atoms: N_20  and  C_19 
REMARK       I    between atoms: C_22  and  N_20 
ROOT
ATOM      1  C   LIG d   1      -0.601  92.088 118.329  0.00  0.00     0.161 C 
ATOM      2  C   LIG d   1       0.583  92.038 117.575  0.00  0.00     0.016 C 
ATOM      3  C   LIG d   1       1.477  90.942 117.602  0.00  0.00     0.038 C 
ATOM      4  C   LIG d   1       1.170  89.750 118.274  0.00  0.00     0.028 C 
ATOM      5  C   LIG d   1       0.225  89.947 119.455  0.00  0.00    -0.047 C 
ATOM      6  C   LIG d   1      -1.009  90.750 118.982  0.00  0.00     0.091 C 
ENDROOT
BRANCH   1   7
ATOM      7  O   LIG d   1      -1.676  92.597 117.516  0.00  0.00    -0.368 OA
BRANCH   7   8
ATOM      8  C   LIG d   1      -2.141  93.931 117.836  0.00  0.00     0.119 C 
BRANCH   8   9
ATOM      9  C   LIG d   1      -1.446  94.362 119.142  0.00  0.00     0.028 C 
ATOM     10  C   LIG d   1      -2.450  94.716 120.252  0.00  0.00     0.006 C 
ENDBRANCH   8   9
BRANCH   8  11
ATOM     11  C   LIG d   1      -3.639  93.939 118.152  0.00  0.00     0.028 C 
ATOM     12  C   LIG d   1      -4.418  92.868 117.373  0.00  0.00     0.006 C 
ENDBRANCH   8  11
ENDBRANCH   7   8
ENDBRANCH   1   7
BRANCH   6  13
ATOM     13  N   LIG d   1      -1.944  91.060 120.094  0.00  0.00    -0.311 N 
ATOM     14  C   LIG d   1      -3.208  90.642 120.127  0.00  0.00     0.210 C 
ATOM     15  C   LIG d   1      -4.006  91.090 121.356  0.00  0.00     0.109 C 
ATOM     16  O   LIG d   1      -3.735  89.916 119.271  0.00  0.00    -0.276 OA
ATOM     17  H   LIG d   1      -1.590  91.618 120.846  0.00  0.00     0.149 HD
ENDBRANCH   6  13
BRANCH   5  18
ATOM     18  N   LIG d   1      -0.120  88.612 119.977  0.00  0.00     0.381 N 
ATOM     19  H   LIG d   1       0.714  88.121 120.229  0.00  0.00    -0.090 HD
ATOM     20  H   LIG d   1      -0.587  88.091 119.255  0.00  0.00    -0.090 HD
ATOM     21  H   LIG d   1      -0.716  88.699 120.771  0.00  0.00    -0.090 HD
ENDBRANCH   5  18
BRANCH   3  22
ATOM     22  C   LIG d   1       2.714  91.049 116.983  0.00  0.00     0.382 C 
ATOM     23  O   LIG d   1       3.059  90.204 116.122  0.00  0.00    -0.241 OA
ATOM     24  O   LIG d   1       3.506  91.954 117.306  0.00  0.00    -0.241 OA
ENDBRANCH   3  22
TORSDOF 7
ENDMDL
