MODEL 1
REMARK VINA RESULT:      -5.4      0.000      0.000
REMARK  7 active torsions:
REMARK  status: ('A' for Active; 'I' for Inactive)
REMARK    1  A    between atoms: C_2  and  C_3 
REMARK    2  A    between atoms: C_3  and  O_6 
REMARK    3  A    between atoms: C_3  and  C_4 
REMARK    4  A    between atoms: C_7  and  O_6 
REMARK    5  A    between atoms: C_9  and  C_10 
REMARK    6  A    between atoms: N_15  and  C_14 
REMARK    7  A    between atoms: N_20  and  C_19 
REMARK       I    between atoms: C_22  and  N_20 
ROOT
ATOM      1  C   LIG d   1      -6.383  91.552 118.886  0.00  0.00     0.161 C 
ATOM      2  C   LIG d   1      -5.412  91.663 119.894  0.00  0.00     0.016 C 
ATOM      3  C   LIG d   1      -4.083  91.202 119.749  0.00  0.00     0.038 C 
ATOM      4  C   LIG d   1      -3.591  90.732 118.522  0.00  0.00     0.028 C 
ATOM      5  C   LIG d   1      -4.671  90.135 117.626  0.00  0.00    -0.047 C 
ATOM      6  C   LIG d   1      -5.835  91.144 117.502  0.00  0.00     0.091 C 
ENDROOT
BRANCH   1   7
ATOM      7  O   LIG d   1      -7.127  92.783 118.787  0.00  0.00    -0.368 OA
BRANCH   7   8
ATOM      8  C   LIG d   1      -7.175  93.597 119.984  0.00  0.00     0.119 C 
BRANCH   8   9
ATOM      9  C   LIG d   1      -8.657  93.768 120.369  0.00  0.00     0.028 C 
ATOM     10  C   LIG d   1      -9.340  94.902 119.587  0.00  0.00     0.006 C 
ENDBRANCH   8   9
BRANCH   8  11
ATOM     11  C   LIG d   1      -6.659  95.014 119.715  0.00  0.00     0.028 C 
ATOM     12  C   LIG d   1      -5.389  95.348 120.512  0.00  0.00     0.006 C 
ENDBRANCH   8  11
ENDBRANCH   7   8
ENDBRANCH   1   7
BRANCH   6  13
ATOM     13  N   LIG d   1      -6.971  90.604 116.710  0.00  0.00    -0.311 N 
ATOM     14  C   LIG d   1      -7.103  90.789 115.398  0.00  0.00     0.210 C 
ATOM     15  C   LIG d   1      -8.358  90.165 114.779  0.00  0.00     0.109 C 
ATOM     16  O   LIG d   1      -6.283  91.383 114.681  0.00  0.00    -0.276 OA
ATOM     17  H   LIG d   1      -7.667  90.083 117.207  0.00  0.00     0.149 HD
ENDBRANCH   6  13
BRANCH   5  18
ATOM     18  N   LIG d   1      -4.045  89.813 116.329  0.00  0.00     0.381 N 
ATOM     19  H   LIG d   1      -4.662  89.240 115.789  0.00  0.00    -0.090 HD
ATOM     20  H   LIG d   1      -3.199  89.296 116.496  0.00  0.00    -0.090 HD
ATOM     21  H   LIG d   1      -3.838  90.651 115.833  0.00  0.00    -0.090 HD
ENDBRANCH   5  18
BRANCH   3  22
ATOM     22  C   LIG d   1      -3.242  91.172 120.851  0.00  0.00     0.382 C 
ATOM     23  O   LIG d   1      -2.221  91.900 120.881  0.00  0.00    -0.241 OA
ATOM     24  O   LIG d   1      -3.467  90.392 121.796  0.00  0.00    -0.241 OA
ENDBRANCH   3  22
TORSDOF 7
ENDMDL
MODEL 2
REMARK VINA RESULT:      -5.1      1.711      2.201
REMARK  7 active torsions:
REMARK  status: ('A' for Active; 'I' for Inactive)
REMARK    1  A    between atoms: C_2  and  C_3 
REMARK    2  A    between atoms: C_3  and  O_6 
REMARK    3  A    between atoms: C_3  and  C_4 
REMARK    4  A    between atoms: C_7  and  O_6 
REMARK    5  A    between atoms: C_9  and  C_10 
REMARK    6  A    between atoms: N_15  and  C_14 
REMARK    7  A    between atoms: N_20  and  C_19 
REMARK       I    between atoms: C_22  and  N_20 
ROOT
ATOM      1  C   LIG d   1      -4.554  90.729 119.259  0.00  0.00     0.161 C 
ATOM      2  C   LIG d   1      -3.345  90.547 119.951  0.00  0.00     0.016 C 
ATOM      3  C   LIG d   1      -2.210  89.921 119.384  0.00  0.00     0.038 C 
ATOM      4  C   LIG d   1      -2.159  89.568 118.027  0.00  0.00     0.028 C 
ATOM      5  C   LIG d   1      -3.529  89.273 117.426  0.00  0.00    -0.047 C 
ATOM      6  C   LIG d   1      -4.480  90.450 117.743  0.00  0.00     0.091 C 
ENDROOT
BRANCH   1   7
ATOM      7  O   LIG d   1      -5.060  92.056 119.500  0.00  0.00    -0.368 OA
BRANCH   7   8
ATOM      8  C   LIG d   1      -5.422  92.362 120.869  0.00  0.00     0.119 C 
BRANCH   8   9
ATOM      9  C   LIG d   1      -6.695  93.229 120.829  0.00  0.00     0.028 C 
ATOM     10  C   LIG d   1      -7.256  93.382 119.406  0.00  0.00     0.006 C 
ENDBRANCH   8   9
BRANCH   8  11
ATOM     11  C   LIG d   1      -4.359  93.232 121.546  0.00  0.00     0.028 C 
ATOM     12  C   LIG d   1      -4.124  94.563 120.815  0.00  0.00     0.006 C 
ENDBRANCH   8  11
ENDBRANCH   7   8
ENDBRANCH   1   7
BRANCH   6  13
ATOM     13  N   LIG d   1      -5.865  90.205 117.263  0.00  0.00    -0.311 N 
ATOM     14  C   LIG d   1      -6.285  90.526 116.041  0.00  0.00     0.210 C 
ATOM     15  C   LIG d   1      -7.756  90.205 115.757  0.00  0.00     0.109 C 
ATOM     16  O   LIG d   1      -5.570  91.016 115.153  0.00  0.00    -0.276 OA
ATOM     17  H   LIG d   1      -6.503  89.781 117.908  0.00  0.00     0.149 HD
ENDBRANCH   6  13
BRANCH   5  18
ATOM     18  N   LIG d   1      -3.343  89.054 115.979  0.00  0.00     0.381 N 
ATOM     19  H   LIG d   1      -2.528  88.496 115.823  0.00  0.00    -0.090 HD
ATOM     20  H   LIG d   1      -3.207  89.943 115.530  0.00  0.00    -0.090 HD
ATOM     21  H   LIG d   1      -4.143  88.601 115.597  0.00  0.00    -0.090 HD
ENDBRANCH   5  18
BRANCH   3  22
ATOM     22  C   LIG d   1      -1.125  89.607 120.188  0.00  0.00     0.382 C 
ATOM     23  O   LIG d   1      -1.275  89.498 121.428  0.00  0.00    -0.241 OA
ATOM     24  O   LIG d   1       0.010  89.475 119.693  0.00  0.00    -0.241 OA
ENDBRANCH   3  22
TORSDOF 7
ENDMDL
MODEL 3
REMARK VINA RESULT:      -5.0      2.117      4.888
REMARK  7 active torsions:
REMARK  status: ('A' for Active; 'I' for Inactive)
REMARK    1  A    between atoms: C_2  and  C_3 
REMARK    2  A    between atoms: C_3  and  O_6 
REMARK    3  A    between atoms: C_3  and  C_4 
REMARK    4  A    between atoms: C_7  and  O_6 
REMARK    5  A    between atoms: C_9  and  C_10 
REMARK    6  A    between atoms: N_15  and  C_14 
REMARK    7  A    between atoms: N_20  and  C_19 
REMARK       I    between atoms: C_22  and  N_20 
ROOT
ATOM      1  C   LIG d   1      -4.578  91.383 119.437  0.00  0.00     0.161 C 
ATOM      2  C   LIG d   1      -5.729  91.086 118.690  0.00  0.00     0.016 C 
ATOM      3  C   LIG d   1      -5.706  90.344 117.487  0.00  0.00     0.038 C 
ATOM      4  C   LIG d   1      -4.540  89.715 117.026  0.00  0.00     0.028 C 
ATOM      5  C   LIG d   1      -3.259  90.409 117.477  0.00  0.00    -0.047 C 
ATOM      6  C   LIG d   1      -3.312  90.612 119.009  0.00  0.00     0.091 C 
ENDROOT
BRANCH   1   7
ATOM      7  O   LIG d   1      -4.839  91.178 120.840  0.00  0.00    -0.368 OA
BRANCH   7   8
ATOM      8  C   LIG d   1      -4.927  92.374 121.653  0.00  0.00     0.119 C 
BRANCH   8   9
ATOM      9  C   LIG d   1      -6.421  92.662 121.892  0.00  0.00     0.028 C 
ATOM     10  C   LIG d   1      -6.919  93.878 121.093  0.00  0.00     0.006 C 
ENDBRANCH   8   9
BRANCH   8  11
ATOM     11  C   LIG d   1      -4.392  93.598 120.905  0.00  0.00     0.028 C 
ATOM     12  C   LIG d   1      -3.135  94.194 121.558  0.00  0.00     0.006 C 
ENDBRANCH   8  11
ENDBRANCH   7   8
ENDBRANCH   1   7
BRANCH   6  13
ATOM     13  N   LIG d   1      -2.134  91.360 119.522  0.00  0.00    -0.311 N 
ATOM     14  C   LIG d   1      -1.052  90.768 120.026  0.00  0.00     0.210 C 
ATOM     15  C   LIG d   1       0.038  91.725 120.517  0.00  0.00     0.109 C 
ATOM     16  O   LIG d   1      -0.879  89.541 120.082  0.00  0.00    -0.276 OA
ATOM     17  H   LIG d   1      -2.177  92.360 119.486  0.00  0.00     0.149 HD
ENDBRANCH   6  13
BRANCH   5  18
ATOM     18  N   LIG d   1      -2.123  89.574 117.043  0.00  0.00     0.381 N 
ATOM     19  H   LIG d   1      -1.812  89.869 116.139  0.00  0.00    -0.090 HD
ATOM     20  H   LIG d   1      -2.428  88.619 116.976  0.00  0.00    -0.090 HD
ATOM     21  H   LIG d   1      -1.376  89.647 117.699  0.00  0.00    -0.090 HD
ENDBRANCH   5  18
BRANCH   3  22
ATOM     22  C   LIG d   1      -6.851  90.258 116.710  0.00  0.00     0.382 C 
ATOM     23  O   LIG d   1      -7.393  89.143 116.512  0.00  0.00    -0.241 OA
ATOM     24  O   LIG d   1      -7.325  91.274 116.168  0.00  0.00    -0.241 OA
ENDBRANCH   3  22
TORSDOF 7
ENDMDL
MODEL 4
REMARK VINA RESULT:      -5.0      2.952      5.245
REMARK  7 active torsions:
REMARK  status: ('A' for Active; 'I' for Inactive)
REMARK    1  A    between atoms: C_2  and  C_3 
REMARK    2  A    between atoms: C_3  and  O_6 
REMARK    3  A    between atoms: C_3  and  C_4 
REMARK    4  A    between atoms: C_7  and  O_6 
REMARK    5  A    between atoms: C_9  and  C_10 
REMARK    6  A    between atoms: N_15  and  C_14 
REMARK    7  A    between atoms: N_20  and  C_19 
REMARK       I    between atoms: C_22  and  N_20 
ROOT
ATOM      1  C   LIG d   1      -3.286  90.608 118.103  0.00  0.00     0.161 C 
ATOM      2  C   LIG d   1      -2.089  89.899 117.909  0.00  0.00     0.016 C 
ATOM      3  C   LIG d   1      -1.081  89.788 118.894  0.00  0.00     0.038 C 
ATOM      4  C   LIG d   1      -1.269  90.257 120.203  0.00  0.00     0.028 C 
ATOM      5  C   LIG d   1      -2.252  91.419 120.295  0.00  0.00    -0.047 C 
ATOM      6  C   LIG d   1      -3.557  91.032 119.562  0.00  0.00     0.091 C 
ENDROOT
BRANCH   1   7
ATOM      7  O   LIG d   1      -4.395  89.846 117.588  0.00  0.00    -0.368 OA
BRANCH   7   8
ATOM      8  C   LIG d   1      -5.248  90.525 116.634  0.00  0.00     0.119 C 
BRANCH   8   9
ATOM      9  C   LIG d   1      -6.666  90.573 117.233  0.00  0.00     0.028 C 
ATOM     10  C   LIG d   1      -7.616  89.558 116.576  0.00  0.00     0.006 C 
ENDBRANCH   8   9
BRANCH   8  11
ATOM     11  C   LIG d   1      -5.382  89.722 115.337  0.00  0.00     0.028 C 
ATOM     12  C   LIG d   1      -4.235  88.720 115.134  0.00  0.00     0.006 C 
ENDBRANCH   8  11
ENDBRANCH   7   8
ENDBRANCH   1   7
BRANCH   6  13
ATOM     13  N   LIG d   1      -4.542  92.144 119.532  0.00  0.00    -0.311 N 
ATOM     14  C   LIG d   1      -5.508  92.292 120.436  0.00  0.00     0.210 C 
ATOM     15  C   LIG d   1      -6.428  93.496 120.208  0.00  0.00     0.109 C 
ATOM     16  O   LIG d   1      -5.672  91.559 121.423  0.00  0.00    -0.276 OA
ATOM     17  H   LIG d   1      -4.463  92.803 118.782  0.00  0.00     0.149 HD
ENDBRANCH   6  13
BRANCH   5  18
ATOM     18  N   LIG d   1      -2.459  91.716 121.725  0.00  0.00     0.381 N 
ATOM     19  H   LIG d   1      -2.316  92.691 121.893  0.00  0.00    -0.090 HD
ATOM     20  H   LIG d   1      -1.785  91.201 122.264  0.00  0.00    -0.090 HD
ATOM     21  H   LIG d   1      -3.381  91.456 121.997  0.00  0.00    -0.090 HD
ENDBRANCH   5  18
BRANCH   3  22
ATOM     22  C   LIG d   1       0.148  89.239 118.561  0.00  0.00     0.382 C 
ATOM     23  O   LIG d   1       0.435  89.027 117.358  0.00  0.00    -0.241 OA
ATOM     24  O   LIG d   1       0.955  88.911 119.451  0.00  0.00    -0.241 OA
ENDBRANCH   3  22
TORSDOF 7
ENDMDL
MODEL 5
REMARK VINA RESULT:      -4.7      3.637      7.648
REMARK  7 active torsions:
REMARK  status: ('A' for Active; 'I' for Inactive)
REMARK    1  A    between atoms: C_2  and  C_3 
REMARK    2  A    between atoms: C_3  and  O_6 
REMARK    3  A    between atoms: C_3  and  C_4 
REMARK    4  A    between atoms: C_7  and  O_6 
REMARK    5  A    between atoms: C_9  and  C_10 
REMARK    6  A    between atoms: N_15  and  C_14 
REMARK    7  A    between atoms: N_20  and  C_19 
REMARK       I    between atoms: C_22  and  N_20 
ROOT
ATOM      1  C   LIG d   1      -2.011  89.527 117.920  0.00  0.00     0.161 C 
ATOM      2  C   LIG d   1      -2.871  89.248 116.845  0.00  0.00     0.016 C 
ATOM      3  C   LIG d   1      -4.190  89.751 116.753  0.00  0.00     0.038 C 
ATOM      4  C   LIG d   1      -4.688  90.696 117.662  0.00  0.00     0.028 C 
ATOM      5  C   LIG d   1      -4.035  90.617 119.037  0.00  0.00    -0.047 C 
ATOM      6  C   LIG d   1      -2.499  90.646 118.865  0.00  0.00     0.091 C 
ENDROOT
BRANCH   1   7
ATOM      7  O   LIG d   1      -0.692  89.830 117.425  0.00  0.00    -0.368 OA
BRANCH   7   8
ATOM      8  C   LIG d   1       0.286  88.765 117.525  0.00  0.00     0.119 C 
BRANCH   8   9
ATOM      9  C   LIG d   1       1.239  89.121 118.683  0.00  0.00     0.028 C 
ATOM     10  C   LIG d   1       2.060  90.390 118.399  0.00  0.00     0.006 C 
ENDBRANCH   8   9
BRANCH   8  11
ATOM     11  C   LIG d   1       1.170  88.702 116.276  0.00  0.00     0.028 C 
ATOM     12  C   LIG d   1       1.455  87.262 115.821  0.00  0.00     0.006 C 
ENDBRANCH   8  11
ENDBRANCH   7   8
ENDBRANCH   1   7
BRANCH   6  13
ATOM     13  N   LIG d   1      -1.781  90.488 120.157  0.00  0.00    -0.311 N 
ATOM     14  C   LIG d   1      -0.830  91.322 120.574  0.00  0.00     0.210 C 
ATOM     15  C   LIG d   1      -0.204  90.965 121.926  0.00  0.00     0.109 C 
ATOM     16  O   LIG d   1      -0.468  92.341 119.967  0.00  0.00    -0.276 OA
ATOM     17  H   LIG d   1      -2.034  89.704 120.727  0.00  0.00     0.149 HD
ENDBRANCH   6  13
BRANCH   5  18
ATOM     18  N   LIG d   1      -4.548  91.744 119.839  0.00  0.00     0.381 N 
ATOM     19  H   LIG d   1      -3.955  92.541 119.722  0.00  0.00    -0.090 HD
ATOM     20  H   LIG d   1      -4.537  91.483 120.810  0.00  0.00    -0.090 HD
ATOM     21  H   LIG d   1      -5.477  91.968 119.558  0.00  0.00    -0.090 HD
ENDBRANCH   5  18
BRANCH   3  22
ATOM     22  C   LIG d   1      -5.038  89.277 115.764  0.00  0.00     0.382 C 
ATOM     23  O   LIG d   1      -6.280  89.286 115.945  0.00  0.00    -0.241 OA
ATOM     24  O   LIG d   1      -4.576  88.799 114.711  0.00  0.00    -0.241 OA
ENDBRANCH   3  22
TORSDOF 7
ENDMDL
MODEL 6
REMARK VINA RESULT:      -4.6      8.493     11.028
REMARK  7 active torsions:
REMARK  status: ('A' for Active; 'I' for Inactive)
REMARK    1  A    between atoms: C_2  and  C_3 
REMARK    2  A    between atoms: C_3  and  O_6 
REMARK    3  A    between atoms: C_3  and  C_4 
REMARK    4  A    between atoms: C_7  and  O_6 
REMARK    5  A    between atoms: C_9  and  C_10 
REMARK    6  A    between atoms: N_15  and  C_14 
REMARK    7  A    between atoms: N_20  and  C_19 
REMARK       I    between atoms: C_22  and  N_20 
ROOT
ATOM      1  C   LIG d   1       3.710  89.445 116.045  0.00  0.00     0.161 C 
ATOM      2  C   LIG d   1       4.250  90.605 116.626  0.00  0.00     0.016 C 
ATOM      3  C   LIG d   1       3.475  91.556 117.329  0.00  0.00     0.038 C 
ATOM      4  C   LIG d   1       2.123  91.334 117.630  0.00  0.00     0.028 C 
ATOM      5  C   LIG d   1       1.422  90.419 116.632  0.00  0.00    -0.047 C 
ATOM      6  C   LIG d   1       2.257  89.130 116.459  0.00  0.00     0.091 C 
ENDROOT
BRANCH   1   7
ATOM      7  O   LIG d   1       4.565  88.318 116.320  0.00  0.00    -0.368 OA
BRANCH   7   8
ATOM      8  C   LIG d   1       5.356  87.832 115.208  0.00  0.00     0.119 C 
BRANCH   8   9
ATOM      9  C   LIG d   1       4.935  86.374 114.942  0.00  0.00     0.028 C 
ATOM     10  C   LIG d   1       4.975  85.510 116.215  0.00  0.00     0.006 C 
ENDBRANCH   8   9
BRANCH   8  11
ATOM     11  C   LIG d   1       6.843  87.765 115.569  0.00  0.00     0.028 C 
ATOM     12  C   LIG d   1       7.170  88.491 116.884  0.00  0.00     0.006 C 
ENDBRANCH   8  11
ENDBRANCH   7   8
ENDBRANCH   1   7
BRANCH   6  13
ATOM     13  N   LIG d   1       1.686  88.217 115.435  0.00  0.00    -0.311 N 
ATOM     14  C   LIG d   1       1.436  86.928 115.660  0.00  0.00     0.210 C 
ATOM     15  C   LIG d   1       0.865  86.162 114.463  0.00  0.00     0.109 C 
ATOM     16  O   LIG d   1       1.602  86.355 116.747  0.00  0.00    -0.276 OA
ATOM     17  H   LIG d   1       1.491  88.607 114.534  0.00  0.00     0.149 HD
ENDBRANCH   6  13
BRANCH   5  18
ATOM     18  N   LIG d   1       0.061  90.163 117.141  0.00  0.00     0.381 N 
ATOM     19  H   LIG d   1       0.111  89.628 117.986  0.00  0.00    -0.090 HD
ATOM     20  H   LIG d   1      -0.446  89.627 116.459  0.00  0.00    -0.090 HD
ATOM     21  H   LIG d   1      -0.407  91.025 117.312  0.00  0.00    -0.090 HD
ENDBRANCH   5  18
BRANCH   3  22
ATOM     22  C   LIG d   1       4.043  92.764 117.704  0.00  0.00     0.382 C 
ATOM     23  O   LIG d   1       4.581  92.881 118.831  0.00  0.00    -0.241 OA
ATOM     24  O   LIG d   1       3.986  93.751 116.946  0.00  0.00    -0.241 OA
ENDBRANCH   3  22
TORSDOF 7
ENDMDL
MODEL 7
REMARK VINA RESULT:      -4.5      6.017      8.981
REMARK  7 active torsions:
REMARK  status: ('A' for Active; 'I' for Inactive)
REMARK    1  A    between atoms: C_2  and  C_3 
REMARK    2  A    between atoms: C_3  and  O_6 
REMARK    3  A    between atoms: C_3  and  C_4 
REMARK    4  A    between atoms: C_7  and  O_6 
REMARK    5  A    between atoms: C_9  and  C_10 
REMARK    6  A    between atoms: N_15  and  C_14 
REMARK    7  A    between atoms: N_20  and  C_19 
REMARK       I    between atoms: C_22  and  N_20 
ROOT
ATOM      1  C   LIG d   1       1.081  90.028 116.550  0.00  0.00     0.161 C 
ATOM      2  C   LIG d   1       2.307  90.644 116.849  0.00  0.00     0.016 C 
ATOM      3  C   LIG d   1       2.503  91.488 117.966  0.00  0.00     0.038 C 
ATOM      4  C   LIG d   1       1.518  91.654 118.951  0.00  0.00     0.028 C 
ATOM      5  C   LIG d   1       0.099  91.456 118.429  0.00  0.00    -0.047 C 
ATOM      6  C   LIG d   1       0.026  90.109 117.674  0.00  0.00     0.091 C 
ENDROOT
BRANCH   1   7
ATOM      7  O   LIG d   1       1.302  88.656 116.169  0.00  0.00    -0.368 OA
BRANCH   7   8
ATOM      8  C   LIG d   1       2.668  88.182 116.260  0.00  0.00     0.119 C 
BRANCH   8   9
ATOM      9  C   LIG d   1       3.073  87.665 114.867  0.00  0.00     0.028 C 
ATOM     10  C   LIG d   1       4.598  87.533 114.710  0.00  0.00     0.006 C 
ENDBRANCH   8   9
BRANCH   8  11
ATOM     11  C   LIG d   1       2.776  86.970 117.190  0.00  0.00     0.028 C 
ATOM     12  C   LIG d   1       2.606  87.339 118.672  0.00  0.00     0.006 C 
ENDBRANCH   8  11
ENDBRANCH   7   8
ENDBRANCH   1   7
BRANCH   6  13
ATOM     13  N   LIG d   1      -1.306  89.876 117.059  0.00  0.00    -0.311 N 
ATOM     14  C   LIG d   1      -2.340  89.360 117.721  0.00  0.00     0.210 C 
ATOM     15  C   LIG d   1      -3.616  89.184 116.893  0.00  0.00     0.109 C 
ATOM     16  O   LIG d   1      -2.330  89.061 118.925  0.00  0.00    -0.276 OA
ATOM     17  H   LIG d   1      -1.411  90.119 116.093  0.00  0.00     0.149 HD
ENDBRANCH   6  13
BRANCH   5  18
ATOM     18  N   LIG d   1      -0.814  91.521 119.585  0.00  0.00     0.381 N 
ATOM     19  H   LIG d   1      -1.179  90.610 119.780  0.00  0.00    -0.090 HD
ATOM     20  H   LIG d   1      -1.583  92.127 119.358  0.00  0.00    -0.090 HD
ATOM     21  H   LIG d   1      -0.331  91.871 120.383  0.00  0.00    -0.090 HD
ENDBRANCH   5  18
BRANCH   3  22
ATOM     22  C   LIG d   1       3.682  92.209 118.085  0.00  0.00     0.382 C 
ATOM     23  O   LIG d   1       4.410  92.057 119.095  0.00  0.00    -0.241 OA
ATOM     24  O   LIG d   1       4.004  93.041 117.216  0.00  0.00    -0.241 OA
ENDBRANCH   3  22
TORSDOF 7
ENDMDL
MODEL 8
REMARK VINA RESULT:      -4.5      5.796      9.142
REMARK  7 active torsions:
REMARK  status: ('A' for Active; 'I' for Inactive)
REMARK    1  A    between atoms: C_2  and  C_3 
REMARK    2  A    between atoms: C_3  and  O_6 
REMARK    3  A    between atoms: C_3  and  C_4 
REMARK    4  A    between atoms: C_7  and  O_6 
REMARK    5  A    between atoms: C_9  and  C_10 
REMARK    6  A    between atoms: N_15  and  C_14 
REMARK    7  A    between atoms: N_20  and  C_19 
REMARK       I    between atoms: C_22  and  N_20 
ROOT
ATOM      1  C   LIG d   1       0.767  89.435 117.562  0.00  0.00     0.161 C 
ATOM      2  C   LIG d   1      -0.583  89.058 117.472  0.00  0.00     0.016 C 
ATOM      3  C   LIG d   1      -1.620  89.705 118.182  0.00  0.00     0.038 C 
ATOM      4  C   LIG d   1      -1.395  90.878 118.918  0.00  0.00     0.028 C 
ATOM      5  C   LIG d   1       0.031  91.000 119.443  0.00  0.00    -0.047 C 
ATOM      6  C   LIG d   1       1.017  90.782 118.273  0.00  0.00     0.091 C 
ENDROOT
BRANCH   1   7
ATOM      7  O   LIG d   1       1.360  89.445 116.248  0.00  0.00    -0.368 OA
BRANCH   7   8
ATOM      8  C   LIG d   1       2.444  88.507 116.031  0.00  0.00     0.119 C 
BRANCH   8   9
ATOM      9  C   LIG d   1       2.023  87.571 114.882  0.00  0.00     0.028 C 
ATOM     10  C   LIG d   1       1.109  86.430 115.360  0.00  0.00     0.006 C 
ENDBRANCH   8   9
BRANCH   8  11
ATOM     11  C   LIG d   1       2.644  87.596 117.245  0.00  0.00     0.028 C 
ATOM     12  C   LIG d   1       4.084  87.622 117.780  0.00  0.00     0.006 C 
ENDBRANCH   8  11
ENDBRANCH   7   8
ENDBRANCH   1   7
BRANCH   6  13
ATOM     13  N   LIG d   1       2.435  90.800 118.716  0.00  0.00    -0.311 N 
ATOM     14  C   LIG d   1       3.392  91.477 118.083  0.00  0.00     0.210 C 
ATOM     15  C   LIG d   1       4.791  91.345 118.695  0.00  0.00     0.109 C 
ATOM     16  O   LIG d   1       3.210  92.200 117.092  0.00  0.00    -0.276 OA
ATOM     17  H   LIG d   1       2.666  90.266 119.530  0.00  0.00     0.149 HD
ENDBRANCH   6  13
BRANCH   5  18
ATOM     18  N   LIG d   1       0.163  92.328 120.071  0.00  0.00     0.381 N 
ATOM     19  H   LIG d   1       1.017  92.374 120.590  0.00  0.00    -0.090 HD
ATOM     20  H   LIG d   1      -0.601  92.464 120.709  0.00  0.00    -0.090 HD
ATOM     21  H   LIG d   1       0.152  93.038 119.372  0.00  0.00    -0.090 HD
ENDBRANCH   5  18
BRANCH   3  22
ATOM     22  C   LIG d   1      -2.893  89.156 118.191  0.00  0.00     0.382 C 
ATOM     23  O   LIG d   1      -3.511  88.986 117.113  0.00  0.00    -0.241 OA
ATOM     24  O   LIG d   1      -3.449  88.869 119.268  0.00  0.00    -0.241 OA
ENDBRANCH   3  22
TORSDOF 7
ENDMDL
MODEL 9
REMARK VINA RESULT:      -4.3      6.555      8.805
REMARK  7 active torsions:
REMARK  status: ('A' for Active; 'I' for Inactive)
REMARK    1  A    between atoms: C_2  and  C_3 
REMARK    2  A    between atoms: C_3  and  O_6 
REMARK    3  A    between atoms: C_3  and  C_4 
REMARK    4  A    between atoms: C_7  and  O_6 
REMARK    5  A    between atoms: C_9  and  C_10 
REMARK    6  A    between atoms: N_15  and  C_14 
REMARK    7  A    between atoms: N_20  and  C_19 
REMARK       I    between atoms: C_22  and  N_20 
ROOT
ATOM      1  C   LIG d   1       1.972  90.607 117.858  0.00  0.00     0.161 C 
ATOM      2  C   LIG d   1       2.530  91.824 118.282  0.00  0.00     0.016 C 
ATOM      3  C   LIG d   1       3.856  92.217 117.986  0.00  0.00     0.038 C 
ATOM      4  C   LIG d   1       4.670  91.481 117.112  0.00  0.00     0.028 C 
ATOM      5  C   LIG d   1       4.324  89.996 117.069  0.00  0.00    -0.047 C 
ATOM      6  C   LIG d   1       2.808  89.841 116.811  0.00  0.00     0.091 C 
ENDROOT
BRANCH   1   7
ATOM      7  O   LIG d   1       0.635  90.827 117.368  0.00  0.00    -0.368 OA
BRANCH   7   8
ATOM      8  C   LIG d   1      -0.441  90.358 118.218  0.00  0.00     0.119 C 
BRANCH   8   9
ATOM      9  C   LIG d   1       0.199  89.619 119.410  0.00  0.00     0.028 C 
ATOM     10  C   LIG d   1      -0.370  90.083 120.761  0.00  0.00     0.006 C 
ENDBRANCH   8   9
BRANCH   8  11
ATOM     11  C   LIG d   1      -1.299  89.309 117.504  0.00  0.00     0.028 C 
ATOM     12  C   LIG d   1      -2.740  89.256 118.035  0.00  0.00     0.006 C 
ENDBRANCH   8  11
ENDBRANCH   7   8
ENDBRANCH   1   7
BRANCH   6  13
ATOM     13  N   LIG d   1       2.371  88.421 116.838  0.00  0.00    -0.311 N 
ATOM     14  C   LIG d   1       2.026  87.740 115.746  0.00  0.00     0.210 C 
ATOM     15  C   LIG d   1       1.587  86.294 115.998  0.00  0.00     0.109 C 
ATOM     16  O   LIG d   1       2.074  88.185 114.590  0.00  0.00    -0.276 OA
ATOM     17  H   LIG d   1       2.333  87.972 117.732  0.00  0.00     0.149 HD
ENDBRANCH   6  13
BRANCH   5  18
ATOM     18  N   LIG d   1       5.155  89.376 116.020  0.00  0.00     0.381 N 
ATOM     19  H   LIG d   1       5.301  90.026 115.274  0.00  0.00    -0.090 HD
ATOM     20  H   LIG d   1       4.670  88.577 115.651  0.00  0.00    -0.090 HD
ATOM     21  H   LIG d   1       6.032  89.094 116.401  0.00  0.00    -0.090 HD
ENDBRANCH   5  18
BRANCH   3  22
ATOM     22  C   LIG d   1       4.393  93.339 118.599  0.00  0.00     0.382 C 
ATOM     23  O   LIG d   1       5.603  93.626 118.431  0.00  0.00    -0.241 OA
ATOM     24  O   LIG d   1       3.695  94.042 119.353  0.00  0.00    -0.241 OA
ENDBRANCH   3  22
TORSDOF 7
ENDMDL
