MODEL 1
REMARK VINA RESULT:      -5.7      0.000      0.000
REMARK  7 active torsions:
REMARK  status: ('A' for Active; 'I' for Inactive)
REMARK    1  A    between atoms: C_2  and  C_3 
REMARK    2  A    between atoms: C_3  and  O_6 
REMARK    3  A    between atoms: C_3  and  C_4 
REMARK    4  A    between atoms: C_7  and  O_6 
REMARK    5  A    between atoms: C_9  and  C_10 
REMARK    6  A    between atoms: N_15  and  C_14 
REMARK    7  A    between atoms: N_20  and  C_19 
REMARK       I    between atoms: C_22  and  N_20 
ROOT
ATOM      1  C   LIG d   1      -5.032  92.494 118.025  0.00  0.00     0.161 C 
ATOM      2  C   LIG d   1      -5.183  91.563 116.985  0.00  0.00     0.016 C 
ATOM      3  C   LIG d   1      -6.232  91.617 116.039  0.00  0.00     0.038 C 
ATOM      4  C   LIG d   1      -7.121  92.700 115.978  0.00  0.00     0.028 C 
ATOM      5  C   LIG d   1      -7.314  93.401 117.319  0.00  0.00    -0.047 C 
ATOM      6  C   LIG d   1      -5.927  93.746 117.909  0.00  0.00     0.091 C 
ENDROOT
BRANCH   1   7
ATOM      7  O   LIG d   1      -3.647  92.878 118.141  0.00  0.00    -0.368 OA
BRANCH   7   8
ATOM      8  C   LIG d   1      -2.819  92.032 118.976  0.00  0.00     0.119 C 
BRANCH   8   9
ATOM      9  C   LIG d   1      -2.698  92.716 120.351  0.00  0.00     0.028 C 
ATOM     10  C   LIG d   1      -1.959  94.063 120.275  0.00  0.00     0.006 C 
ENDBRANCH   8   9
BRANCH   8  11
ATOM     11  C   LIG d   1      -1.387  91.949 118.438  0.00  0.00     0.028 C 
ATOM     12  C   LIG d   1      -1.049  90.566 117.858  0.00  0.00     0.006 C 
ENDBRANCH   8  11
ENDBRANCH   7   8
ENDBRANCH   1   7
BRANCH   6  13
ATOM     13  N   LIG d   1      -6.022  94.359 119.259  0.00  0.00    -0.311 N 
ATOM     14  C   LIG d   1      -5.346  95.448 119.619  0.00  0.00     0.210 C 
ATOM     15  C   LIG d   1      -5.573  95.903 121.064  0.00  0.00     0.109 C 
ATOM     16  O   LIG d   1      -4.605  96.101 118.868  0.00  0.00    -0.276 OA
ATOM     17  H   LIG d   1      -6.625  93.911 119.922  0.00  0.00     0.149 HD
ENDBRANCH   6  13
BRANCH   5  18
ATOM     18  N   LIG d   1      -8.154  94.591 117.083  0.00  0.00     0.381 N 
ATOM     19  H   LIG d   1      -8.565  94.540 116.172  0.00  0.00    -0.090 HD
ATOM     20  H   LIG d   1      -7.574  95.411 117.123  0.00  0.00    -0.090 HD
ATOM     21  H   LIG d   1      -8.868  94.646 117.775  0.00  0.00    -0.090 HD
ENDBRANCH   5  18
BRANCH   3  22
ATOM     22  C   LIG d   1      -6.424  90.558 115.164  0.00  0.00     0.382 C 
ATOM     23  O   LIG d   1      -7.447  90.521 114.439  0.00  0.00    -0.241 OA
ATOM     24  O   LIG d   1      -5.610  89.616 115.124  0.00  0.00    -0.241 OA
ENDBRANCH   3  22
TORSDOF 7
ENDMDL
MODEL 2
REMARK VINA RESULT:      -5.4      2.451      6.160
REMARK  7 active torsions:
REMARK  status: ('A' for Active; 'I' for Inactive)
REMARK    1  A    between atoms: C_2  and  C_3 
REMARK    2  A    between atoms: C_3  and  O_6 
REMARK    3  A    between atoms: C_3  and  C_4 
REMARK    4  A    between atoms: C_7  and  O_6 
REMARK    5  A    between atoms: C_9  and  C_10 
REMARK    6  A    between atoms: N_15  and  C_14 
REMARK    7  A    between atoms: N_20  and  C_19 
REMARK       I    between atoms: C_22  and  N_20 
ROOT
ATOM      1  C   LIG d   1      -6.262  93.512 118.284  0.00  0.00     0.161 C 
ATOM      2  C   LIG d   1      -5.286  94.231 118.996  0.00  0.00     0.016 C 
ATOM      3  C   LIG d   1      -3.931  93.836 119.074  0.00  0.00     0.038 C 
ATOM      4  C   LIG d   1      -3.425  92.769 118.316  0.00  0.00     0.028 C 
ATOM      5  C   LIG d   1      -4.473  91.713 117.981  0.00  0.00    -0.047 C 
ATOM      6  C   LIG d   1      -5.706  92.408 117.361  0.00  0.00     0.091 C 
ENDROOT
BRANCH   1   7
ATOM      7  O   LIG d   1      -7.090  94.423 117.535  0.00  0.00    -0.368 OA
BRANCH   7   8
ATOM      8  C   LIG d   1      -8.484  94.484 117.923  0.00  0.00     0.119 C 
BRANCH   8   9
ATOM      9  C   LIG d   1      -8.811  95.954 118.248  0.00  0.00     0.028 C 
ATOM     10  C   LIG d   1      -7.745  96.924 117.711  0.00  0.00     0.006 C 
ENDBRANCH   8   9
BRANCH   8  11
ATOM     11  C   LIG d   1      -8.734  93.716 119.225  0.00  0.00     0.028 C 
ATOM     12  C   LIG d   1      -9.644  94.478 120.201  0.00  0.00     0.006 C 
ENDBRANCH   8  11
ENDBRANCH   7   8
ENDBRANCH   1   7
BRANCH   6  13
ATOM     13  N   LIG d   1      -6.812  91.457 117.081  0.00  0.00    -0.311 N 
ATOM     14  C   LIG d   1      -6.944  90.803 115.928  0.00  0.00     0.210 C 
ATOM     15  C   LIG d   1      -8.167  89.885 115.841  0.00  0.00     0.109 C 
ATOM     16  O   LIG d   1      -6.145  90.872 114.981  0.00  0.00    -0.276 OA
ATOM     17  H   LIG d   1      -7.488  91.317 117.806  0.00  0.00     0.149 HD
ENDBRANCH   6  13
BRANCH   5  18
ATOM     18  N   LIG d   1      -3.844  90.733 117.075  0.00  0.00     0.381 N 
ATOM     19  H   LIG d   1      -3.188  91.196 116.479  0.00  0.00    -0.090 HD
ATOM     20  H   LIG d   1      -4.556  90.320 116.499  0.00  0.00    -0.090 HD
ATOM     21  H   LIG d   1      -3.383  90.026 117.605  0.00  0.00    -0.090 HD
ENDBRANCH   5  18
BRANCH   3  22
ATOM     22  C   LIG d   1      -3.075  94.487 119.949  0.00  0.00     0.382 C 
ATOM     23  O   LIG d   1      -3.152  95.731 120.093  0.00  0.00    -0.241 OA
ATOM     24  O   LIG d   1      -2.197  93.852 120.563  0.00  0.00    -0.241 OA
ENDBRANCH   3  22
TORSDOF 7
ENDMDL
MODEL 3
REMARK VINA RESULT:      -5.4      2.242      4.507
REMARK  7 active torsions:
REMARK  status: ('A' for Active; 'I' for Inactive)
REMARK    1  A    between atoms: C_2  and  C_3 
REMARK    2  A    between atoms: C_3  and  O_6 
REMARK    3  A    between atoms: C_3  and  C_4 
REMARK    4  A    between atoms: C_7  and  O_6 
REMARK    5  A    between atoms: C_9  and  C_10 
REMARK    6  A    between atoms: N_15  and  C_14 
REMARK    7  A    between atoms: N_20  and  C_19 
REMARK       I    between atoms: C_22  and  N_20 
ROOT
ATOM      1  C   LIG d   1      -6.707  93.774 117.696  0.00  0.00     0.161 C 
ATOM      2  C   LIG d   1      -7.183  92.666 116.975  0.00  0.00     0.016 C 
ATOM      3  C   LIG d   1      -6.379  91.552 116.639  0.00  0.00     0.038 C 
ATOM      4  C   LIG d   1      -5.075  91.403 117.133  0.00  0.00     0.028 C 
ATOM      5  C   LIG d   1      -4.388  92.729 117.442  0.00  0.00    -0.047 C 
ATOM      6  C   LIG d   1      -5.318  93.578 118.339  0.00  0.00     0.091 C 
ENDROOT
BRANCH   1   7
ATOM      7  O   LIG d   1      -7.672  94.159 118.694  0.00  0.00    -0.368 OA
BRANCH   7   8
ATOM      8  C   LIG d   1      -8.694  95.092 118.266  0.00  0.00     0.119 C 
BRANCH   8   9
ATOM      9  C   LIG d   1      -7.980  96.358 117.755  0.00  0.00     0.028 C 
ATOM     10  C   LIG d   1      -7.560  97.298 118.898  0.00  0.00     0.006 C 
ENDBRANCH   8   9
BRANCH   8  11
ATOM     11  C   LIG d   1      -9.551  95.559 119.446  0.00  0.00     0.028 C 
ATOM     12  C   LIG d   1      -9.682  94.494 120.547  0.00  0.00     0.006 C 
ENDBRANCH   8  11
ENDBRANCH   7   8
ENDBRANCH   1   7
BRANCH   6  13
ATOM     13  N   LIG d   1      -4.759  94.926 118.620  0.00  0.00    -0.311 N 
ATOM     14  C   LIG d   1      -4.530  95.384 119.850  0.00  0.00     0.210 C 
ATOM     15  C   LIG d   1      -3.969  96.808 119.916  0.00  0.00     0.109 C 
ATOM     16  O   LIG d   1      -4.708  94.734 120.891  0.00  0.00    -0.276 OA
ATOM     17  H   LIG d   1      -4.555  95.509 117.831  0.00  0.00     0.149 HD
ENDBRANCH   6  13
BRANCH   5  18
ATOM     18  N   LIG d   1      -3.093  92.423 118.078  0.00  0.00     0.381 N 
ATOM     19  H   LIG d   1      -3.059  91.455 118.329  0.00  0.00    -0.090 HD
ATOM     20  H   LIG d   1      -3.005  92.969 118.917  0.00  0.00    -0.090 HD
ATOM     21  H   LIG d   1      -2.347  92.639 117.453  0.00  0.00    -0.090 HD
ENDBRANCH   5  18
BRANCH   3  22
ATOM     22  C   LIG d   1      -6.865  90.592 115.765  0.00  0.00     0.382 C 
ATOM     23  O   LIG d   1      -8.080  90.589 115.450  0.00  0.00    -0.241 OA
ATOM     24  O   LIG d   1      -6.115  89.703 115.321  0.00  0.00    -0.241 OA
ENDBRANCH   3  22
TORSDOF 7
ENDMDL
MODEL 4
REMARK VINA RESULT:      -5.2      2.185      4.254
REMARK  7 active torsions:
REMARK  status: ('A' for Active; 'I' for Inactive)
REMARK    1  A    between atoms: C_2  and  C_3 
REMARK    2  A    between atoms: C_3  and  O_6 
REMARK    3  A    between atoms: C_3  and  C_4 
REMARK    4  A    between atoms: C_7  and  O_6 
REMARK    5  A    between atoms: C_9  and  C_10 
REMARK    6  A    between atoms: N_15  and  C_14 
REMARK    7  A    between atoms: N_20  and  C_19 
REMARK       I    between atoms: C_22  and  N_20 
ROOT
ATOM      1  C   LIG d   1      -5.633  93.694 118.066  0.00  0.00     0.161 C 
ATOM      2  C   LIG d   1      -6.256  92.926 117.068  0.00  0.00     0.016 C 
ATOM      3  C   LIG d   1      -5.730  91.707 116.582  0.00  0.00     0.038 C 
ATOM      4  C   LIG d   1      -4.615  91.093 117.172  0.00  0.00     0.028 C 
ATOM      5  C   LIG d   1      -3.665  92.079 117.843  0.00  0.00    -0.047 C 
ATOM      6  C   LIG d   1      -4.475  92.985 118.799  0.00  0.00     0.091 C 
ENDROOT
BRANCH   1   7
ATOM      7  O   LIG d   1      -6.617  94.157 119.012  0.00  0.00    -0.368 OA
BRANCH   7   8
ATOM      8  C   LIG d   1      -7.589  93.176 119.451  0.00  0.00     0.119 C 
BRANCH   8   9
ATOM      9  C   LIG d   1      -8.987  93.803 119.284  0.00  0.00     0.028 C 
ATOM     10  C   LIG d   1      -8.922  95.254 118.777  0.00  0.00     0.006 C 
ENDBRANCH   8   9
BRANCH   8  11
ATOM     11  C   LIG d   1      -7.451  92.887 120.949  0.00  0.00     0.028 C 
ATOM     12  C   LIG d   1      -6.586  93.926 121.679  0.00  0.00     0.006 C 
ENDBRANCH   8  11
ENDBRANCH   7   8
ENDBRANCH   1   7
BRANCH   6  13
ATOM     13  N   LIG d   1      -3.635  94.034 119.434  0.00  0.00    -0.311 N 
ATOM     14  C   LIG d   1      -3.039  93.881 120.615  0.00  0.00     0.210 C 
ATOM     15  C   LIG d   1      -2.236  95.093 121.096  0.00  0.00     0.109 C 
ATOM     16  O   LIG d   1      -3.073  92.844 121.295  0.00  0.00    -0.276 OA
ATOM     17  H   LIG d   1      -3.528  94.896 118.936  0.00  0.00     0.149 HD
ENDBRANCH   6  13
BRANCH   5  18
ATOM     18  N   LIG d   1      -2.624  91.295 118.534  0.00  0.00     0.381 N 
ATOM     19  H   LIG d   1      -2.985  90.395 118.781  0.00  0.00    -0.090 HD
ATOM     20  H   LIG d   1      -2.364  91.773 119.379  0.00  0.00    -0.090 HD
ATOM     21  H   LIG d   1      -1.828  91.191 117.944  0.00  0.00    -0.090 HD
ENDBRANCH   5  18
BRANCH   3  22
ATOM     22  C   LIG d   1      -6.298  91.109 115.467  0.00  0.00     0.382 C 
ATOM     23  O   LIG d   1      -6.570  89.885 115.483  0.00  0.00    -0.241 OA
ATOM     24  O   LIG d   1      -6.501  91.770 114.431  0.00  0.00    -0.241 OA
ENDBRANCH   3  22
TORSDOF 7
ENDMDL
MODEL 5
REMARK VINA RESULT:      -4.9      3.966      7.099
REMARK  7 active torsions:
REMARK  status: ('A' for Active; 'I' for Inactive)
REMARK    1  A    between atoms: C_2  and  C_3 
REMARK    2  A    between atoms: C_3  and  O_6 
REMARK    3  A    between atoms: C_3  and  C_4 
REMARK    4  A    between atoms: C_7  and  O_6 
REMARK    5  A    between atoms: C_9  and  C_10 
REMARK    6  A    between atoms: N_15  and  C_14 
REMARK    7  A    between atoms: N_20  and  C_19 
REMARK       I    between atoms: C_22  and  N_20 
ROOT
ATOM      1  C   LIG d   1       0.046  91.031 117.352  0.00  0.00     0.161 C 
ATOM      2  C   LIG d   1       1.446  90.955 117.444  0.00  0.00     0.016 C 
ATOM      3  C   LIG d   1       2.216  91.787 118.289  0.00  0.00     0.038 C 
ATOM      4  C   LIG d   1       1.622  92.655 119.217  0.00  0.00     0.028 C 
ATOM      5  C   LIG d   1       0.232  93.127 118.801  0.00  0.00    -0.047 C 
ATOM      6  C   LIG d   1      -0.628  91.895 118.438  0.00  0.00     0.091 C 
ENDROOT
BRANCH   1   7
ATOM      7  O   LIG d   1      -0.516  89.703 117.347  0.00  0.00    -0.368 OA
BRANCH   7   8
ATOM      8  C   LIG d   1      -0.803  89.128 118.646  0.00  0.00     0.119 C 
BRANCH   8   9
ATOM      9  C   LIG d   1       0.062  87.862 118.793  0.00  0.00     0.028 C 
ATOM     10  C   LIG d   1       0.371  87.202 117.438  0.00  0.00     0.006 C 
ENDBRANCH   8   9
BRANCH   8  11
ATOM     11  C   LIG d   1      -2.253  88.642 118.731  0.00  0.00     0.028 C 
ATOM     12  C   LIG d   1      -2.476  87.632 119.868  0.00  0.00     0.006 C 
ENDBRANCH   8  11
ENDBRANCH   7   8
ENDBRANCH   1   7
BRANCH   6  13
ATOM     13  N   LIG d   1      -1.976  92.272 117.939  0.00  0.00    -0.311 N 
ATOM     14  C   LIG d   1      -3.060  92.310 118.713  0.00  0.00     0.210 C 
ATOM     15  C   LIG d   1      -4.354  92.705 117.995  0.00  0.00     0.109 C 
ATOM     16  O   LIG d   1      -3.066  92.085 119.933  0.00  0.00    -0.276 OA
ATOM     17  H   LIG d   1      -2.056  92.500 116.968  0.00  0.00     0.149 HD
ENDBRANCH   6  13
BRANCH   5  18
ATOM     18  N   LIG d   1      -0.325  93.911 119.919  0.00  0.00     0.381 N 
ATOM     19  H   LIG d   1      -0.020  94.862 119.851  0.00  0.00    -0.090 HD
ATOM     20  H   LIG d   1       0.017  93.532 120.785  0.00  0.00    -0.090 HD
ATOM     21  H   LIG d   1      -1.320  93.872 119.901  0.00  0.00    -0.090 HD
ENDBRANCH   5  18
BRANCH   3  22
ATOM     22  C   LIG d   1       3.599  91.784 118.182  0.00  0.00     0.382 C 
ATOM     23  O   LIG d   1       4.306  91.604 119.202  0.00  0.00    -0.241 OA
ATOM     24  O   LIG d   1       4.148  92.003 117.085  0.00  0.00    -0.241 OA
ENDBRANCH   3  22
TORSDOF 7
ENDMDL
MODEL 6
REMARK VINA RESULT:      -4.9      1.595      4.894
REMARK  7 active torsions:
REMARK  status: ('A' for Active; 'I' for Inactive)
REMARK    1  A    between atoms: C_2  and  C_3 
REMARK    2  A    between atoms: C_3  and  O_6 
REMARK    3  A    between atoms: C_3  and  C_4 
REMARK    4  A    between atoms: C_7  and  O_6 
REMARK    5  A    between atoms: C_9  and  C_10 
REMARK    6  A    between atoms: N_15  and  C_14 
REMARK    7  A    between atoms: N_20  and  C_19 
REMARK       I    between atoms: C_22  and  N_20 
ROOT
ATOM      1  C   LIG d   1      -4.669  93.524 118.202  0.00  0.00     0.161 C 
ATOM      2  C   LIG d   1      -4.624  94.684 118.993  0.00  0.00     0.016 C 
ATOM      3  C   LIG d   1      -5.706  95.585 119.114  0.00  0.00     0.038 C 
ATOM      4  C   LIG d   1      -6.968  95.307 118.567  0.00  0.00     0.028 C 
ATOM      5  C   LIG d   1      -6.911  94.399 117.343  0.00  0.00    -0.047 C 
ATOM      6  C   LIG d   1      -6.073  93.146 117.687  0.00  0.00     0.091 C 
ENDROOT
BRANCH   1   7
ATOM      7  O   LIG d   1      -4.085  92.419 118.921  0.00  0.00    -0.368 OA
BRANCH   7   8
ATOM      8  C   LIG d   1      -2.785  91.974 118.459  0.00  0.00     0.119 C 
BRANCH   8   9
ATOM      9  C   LIG d   1      -2.934  90.511 117.999  0.00  0.00     0.028 C 
ATOM     10  C   LIG d   1      -2.074  89.544 118.831  0.00  0.00     0.006 C 
ENDBRANCH   8   9
BRANCH   8  11
ATOM     11  C   LIG d   1      -1.769  91.938 119.605  0.00  0.00     0.028 C 
ATOM     12  C   LIG d   1      -0.844  93.165 119.620  0.00  0.00     0.006 C 
ENDBRANCH   8  11
ENDBRANCH   7   8
ENDBRANCH   1   7
BRANCH   6  13
ATOM     13  N   LIG d   1      -5.896  92.244 116.519  0.00  0.00    -0.311 N 
ATOM     14  C   LIG d   1      -6.718  91.233 116.243  0.00  0.00     0.210 C 
ATOM     15  C   LIG d   1      -6.343  90.415 115.003  0.00  0.00     0.109 C 
ATOM     16  O   LIG d   1      -7.739  90.955 116.888  0.00  0.00    -0.276 OA
ATOM     17  H   LIG d   1      -5.110  92.418 115.924  0.00  0.00     0.149 HD
ENDBRANCH   6  13
BRANCH   5  18
ATOM     18  N   LIG d   1      -8.299  94.079 116.960  0.00  0.00     0.381 N 
ATOM     19  H   LIG d   1      -8.927  94.726 117.393  0.00  0.00    -0.090 HD
ATOM     20  H   LIG d   1      -8.522  93.156 117.287  0.00  0.00    -0.090 HD
ATOM     21  H   LIG d   1      -8.397  94.122 115.970  0.00  0.00    -0.090 HD
ENDBRANCH   5  18
BRANCH   3  22
ATOM     22  C   LIG d   1      -5.520  96.801 119.755  0.00  0.00     0.382 C 
ATOM     23  O   LIG d   1      -6.448  97.298 120.439  0.00  0.00    -0.241 OA
ATOM     24  O   LIG d   1      -4.452  97.428 119.623  0.00  0.00    -0.241 OA
ENDBRANCH   3  22
TORSDOF 7
ENDMDL
MODEL 7
REMARK VINA RESULT:      -4.8      2.568      3.336
REMARK  7 active torsions:
REMARK  status: ('A' for Active; 'I' for Inactive)
REMARK    1  A    between atoms: C_2  and  C_3 
REMARK    2  A    between atoms: C_3  and  O_6 
REMARK    3  A    between atoms: C_3  and  C_4 
REMARK    4  A    between atoms: C_7  and  O_6 
REMARK    5  A    between atoms: C_9  and  C_10 
REMARK    6  A    between atoms: N_15  and  C_14 
REMARK    7  A    between atoms: N_20  and  C_19 
REMARK       I    between atoms: C_22  and  N_20 
ROOT
ATOM      1  C   LIG d   1      -6.917  93.158 119.554  0.00  0.00     0.161 C 
ATOM      2  C   LIG d   1      -6.442  92.460 118.431  0.00  0.00     0.016 C 
ATOM      3  C   LIG d   1      -6.731  92.839 117.100  0.00  0.00     0.038 C 
ATOM      4  C   LIG d   1      -7.396  94.037 116.798  0.00  0.00     0.028 C 
ATOM      5  C   LIG d   1      -8.329  94.508 117.908  0.00  0.00    -0.047 C 
ATOM      6  C   LIG d   1      -7.551  94.530 119.243  0.00  0.00     0.091 C 
ENDROOT
BRANCH   1   7
ATOM      7  O   LIG d   1      -5.860  93.302 120.523  0.00  0.00    -0.368 OA
BRANCH   7   8
ATOM      8  C   LIG d   1      -4.572  93.714 120.004  0.00  0.00     0.119 C 
BRANCH   8   9
ATOM      9  C   LIG d   1      -3.520  92.719 120.532  0.00  0.00     0.028 C 
ATOM     10  C   LIG d   1      -2.438  92.398 119.487  0.00  0.00     0.006 C 
ENDBRANCH   8   9
BRANCH   8  11
ATOM     11  C   LIG d   1      -4.156  95.078 120.563  0.00  0.00     0.028 C 
ATOM     12  C   LIG d   1      -4.322  96.215 119.542  0.00  0.00     0.006 C 
ENDBRANCH   8  11
ENDBRANCH   7   8
ENDBRANCH   1   7
BRANCH   6  13
ATOM     13  N   LIG d   1      -8.413  94.899 120.396  0.00  0.00    -0.311 N 
ATOM     14  C   LIG d   1      -9.529  94.246 120.716  0.00  0.00     0.210 C 
ATOM     15  C   LIG d   1     -10.279  94.803 121.930  0.00  0.00     0.109 C 
ATOM     16  O   LIG d   1      -9.951  93.238 120.129  0.00  0.00    -0.276 OA
ATOM     17  H   LIG d   1      -8.127  95.686 120.946  0.00  0.00     0.149 HD
ENDBRANCH   6  13
BRANCH   5  18
ATOM     18  N   LIG d   1      -8.849  95.833 117.521  0.00  0.00     0.381 N 
ATOM     19  H   LIG d   1      -8.157  96.534 117.696  0.00  0.00    -0.090 HD
ATOM     20  H   LIG d   1      -9.657  96.042 118.080  0.00  0.00    -0.090 HD
ATOM     21  H   LIG d   1      -9.095  95.834 116.555  0.00  0.00    -0.090 HD
ENDBRANCH   5  18
BRANCH   3  22
ATOM     22  C   LIG d   1      -6.389  91.994 116.055  0.00  0.00     0.382 C 
ATOM     23  O   LIG d   1      -5.938  90.849 116.297  0.00  0.00    -0.241 OA
ATOM     24  O   LIG d   1      -6.485  92.379 114.874  0.00  0.00    -0.241 OA
ENDBRANCH   3  22
TORSDOF 7
ENDMDL
MODEL 8
REMARK VINA RESULT:      -4.7      2.118      4.372
REMARK  7 active torsions:
REMARK  status: ('A' for Active; 'I' for Inactive)
REMARK    1  A    between atoms: C_2  and  C_3 
REMARK    2  A    between atoms: C_3  and  O_6 
REMARK    3  A    between atoms: C_3  and  C_4 
REMARK    4  A    between atoms: C_7  and  O_6 
REMARK    5  A    between atoms: C_9  and  C_10 
REMARK    6  A    between atoms: N_15  and  C_14 
REMARK    7  A    between atoms: N_20  and  C_19 
REMARK       I    between atoms: C_22  and  N_20 
ROOT
ATOM      1  C   LIG d   1      -4.865  93.476 118.263  0.00  0.00     0.161 C 
ATOM      2  C   LIG d   1      -5.665  92.818 117.314  0.00  0.00     0.016 C 
ATOM      3  C   LIG d   1      -5.362  91.539 116.793  0.00  0.00     0.038 C 
ATOM      4  C   LIG d   1      -4.312  90.761 117.302  0.00  0.00     0.028 C 
ATOM      5  C   LIG d   1      -3.180  91.589 117.902  0.00  0.00    -0.047 C 
ATOM      6  C   LIG d   1      -3.776  92.596 118.912  0.00  0.00     0.091 C 
ENDROOT
BRANCH   1   7
ATOM      7  O   LIG d   1      -5.698  94.071 119.277  0.00  0.00    -0.368 OA
BRANCH   7   8
ATOM      8  C   LIG d   1      -6.375  95.297 118.907  0.00  0.00     0.119 C 
BRANCH   8   9
ATOM      9  C   LIG d   1      -5.823  96.420 119.807  0.00  0.00     0.028 C 
ATOM     10  C   LIG d   1      -4.372  96.790 119.460  0.00  0.00     0.006 C 
ENDBRANCH   8   9
BRANCH   8  11
ATOM     11  C   LIG d   1      -7.872  95.224 119.222  0.00  0.00     0.028 C 
ATOM     12  C   LIG d   1      -8.750  95.293 117.962  0.00  0.00     0.006 C 
ENDBRANCH   8  11
ENDBRANCH   7   8
ENDBRANCH   1   7
BRANCH   6  13
ATOM     13  N   LIG d   1      -2.746  93.503 119.483  0.00  0.00    -0.311 N 
ATOM     14  C   LIG d   1      -2.121  93.269 120.635  0.00  0.00     0.210 C 
ATOM     15  C   LIG d   1      -1.109  94.341 121.051  0.00  0.00     0.109 C 
ATOM     16  O   LIG d   1      -2.285  92.259 121.337  0.00  0.00    -0.276 OA
ATOM     17  H   LIG d   1      -2.528  94.330 118.963  0.00  0.00     0.149 HD
ENDBRANCH   6  13
BRANCH   5  18
ATOM     18  N   LIG d   1      -2.220  90.652 118.517  0.00  0.00     0.381 N 
ATOM     19  H   LIG d   1      -2.458  90.506 119.478  0.00  0.00    -0.090 HD
ATOM     20  H   LIG d   1      -1.301  91.057 118.477  0.00  0.00    -0.090 HD
ATOM     21  H   LIG d   1      -2.231  89.784 118.029  0.00  0.00    -0.090 HD
ENDBRANCH   5  18
BRANCH   3  22
ATOM     22  C   LIG d   1      -6.091  91.042 115.723  0.00  0.00     0.382 C 
ATOM     23  O   LIG d   1      -6.377  91.791 114.758  0.00  0.00    -0.241 OA
ATOM     24  O   LIG d   1      -6.505  89.868 115.732  0.00  0.00    -0.241 OA
ENDBRANCH   3  22
TORSDOF 7
ENDMDL
MODEL 9
REMARK VINA RESULT:      -4.5      2.600      6.512
REMARK  7 active torsions:
REMARK  status: ('A' for Active; 'I' for Inactive)
REMARK    1  A    between atoms: C_2  and  C_3 
REMARK    2  A    between atoms: C_3  and  O_6 
REMARK    3  A    between atoms: C_3  and  C_4 
REMARK    4  A    between atoms: C_7  and  O_6 
REMARK    5  A    between atoms: C_9  and  C_10 
REMARK    6  A    between atoms: N_15  and  C_14 
REMARK    7  A    between atoms: N_20  and  C_19 
REMARK       I    between atoms: C_22  and  N_20 
ROOT
ATOM      1  C   LIG d   1      -4.028  92.732 118.818  0.00  0.00     0.161 C 
ATOM      2  C   LIG d   1      -4.173  94.047 119.289  0.00  0.00     0.016 C 
ATOM      3  C   LIG d   1      -3.196  94.705 120.072  0.00  0.00     0.038 C 
ATOM      4  C   LIG d   1      -1.934  94.141 120.310  0.00  0.00     0.028 C 
ATOM      5  C   LIG d   1      -1.936  92.617 120.281  0.00  0.00    -0.047 C 
ATOM      6  C   LIG d   1      -2.611  92.141 118.974  0.00  0.00     0.091 C 
ENDROOT
BRANCH   1   7
ATOM      7  O   LIG d   1      -4.453  92.656 117.443  0.00  0.00    -0.368 OA
BRANCH   7   8
ATOM      8  C   LIG d   1      -5.652  91.883 117.188  0.00  0.00     0.119 C 
BRANCH   8   9
ATOM      9  C   LIG d   1      -5.266  90.724 116.250  0.00  0.00     0.028 C 
ATOM     10  C   LIG d   1      -6.384  90.380 115.251  0.00  0.00     0.006 C 
ENDBRANCH   8   9
BRANCH   8  11
ATOM     11  C   LIG d   1      -6.690  92.703 116.415  0.00  0.00     0.028 C 
ATOM     12  C   LIG d   1      -7.366  93.777 117.280  0.00  0.00     0.006 C 
ENDBRANCH   8  11
ENDBRANCH   7   8
ENDBRANCH   1   7
BRANCH   6  13
ATOM     13  N   LIG d   1      -2.730  90.661 118.904  0.00  0.00    -0.311 N 
ATOM     14  C   LIG d   1      -1.862  89.885 118.257  0.00  0.00     0.210 C 
ATOM     15  C   LIG d   1      -2.182  88.388 118.292  0.00  0.00     0.109 C 
ATOM     16  O   LIG d   1      -0.840  90.292 117.685  0.00  0.00    -0.276 OA
ATOM     17  H   LIG d   1      -3.514  90.244 119.368  0.00  0.00     0.149 HD
ENDBRANCH   6  13
BRANCH   5  18
ATOM     18  N   LIG d   1      -0.537  92.166 120.406  0.00  0.00     0.381 N 
ATOM     19  H   LIG d   1      -0.513  91.223 120.739  0.00  0.00    -0.090 HD
ATOM     20  H   LIG d   1      -0.067  92.749 121.076  0.00  0.00    -0.090 HD
ATOM     21  H   LIG d   1      -0.079  92.227 119.524  0.00  0.00    -0.090 HD
ENDBRANCH   5  18
BRANCH   3  22
ATOM     22  C   LIG d   1      -3.494  95.926 120.658  0.00  0.00     0.382 C 
ATOM     23  O   LIG d   1      -3.090  96.990 120.130  0.00  0.00    -0.241 OA
ATOM     24  O   LIG d   1      -4.123  95.974 121.732  0.00  0.00    -0.241 OA
ENDBRANCH   3  22
TORSDOF 7
ENDMDL
