MODEL 1
REMARK VINA RESULT:      -5.5      0.000      0.000
REMARK  7 active torsions:
REMARK  status: ('A' for Active; 'I' for Inactive)
REMARK    1  A    between atoms: C_2  and  C_3 
REMARK    2  A    between atoms: C_3  and  O_6 
REMARK    3  A    between atoms: C_3  and  C_4 
REMARK    4  A    between atoms: C_7  and  O_6 
REMARK    5  A    between atoms: C_9  and  C_10 
REMARK    6  A    between atoms: N_15  and  C_14 
REMARK    7  A    between atoms: N_20  and  C_19 
REMARK       I    between atoms: C_22  and  N_20 
ROOT
ATOM      1  C   LIG d   1      -4.347  90.854 117.383  0.00  0.00     0.161 C 
ATOM      2  C   LIG d   1      -5.344  90.359 116.525  0.00  0.00     0.016 C 
ATOM      3  C   LIG d   1      -6.513  91.081 116.192  0.00  0.00     0.038 C 
ATOM      4  C   LIG d   1      -6.694  92.417 116.577  0.00  0.00     0.028 C 
ATOM      5  C   LIG d   1      -5.952  92.784 117.859  0.00  0.00    -0.047 C 
ATOM      6  C   LIG d   1      -4.474  92.353 117.724  0.00  0.00     0.091 C 
ENDROOT
BRANCH   1   7
ATOM      7  O   LIG d   1      -3.045  90.574 116.832  0.00  0.00    -0.368 OA
BRANCH   7   8
ATOM      8  C   LIG d   1      -2.485  89.276 117.149  0.00  0.00     0.119 C 
BRANCH   8   9
ATOM      9  C   LIG d   1      -2.633  89.066 118.668  0.00  0.00     0.028 C 
ATOM     10  C   LIG d   1      -1.775  87.900 119.186  0.00  0.00     0.006 C 
ENDBRANCH   8   9
BRANCH   8  11
ATOM     11  C   LIG d   1      -0.977  89.239 116.879  0.00  0.00     0.028 C 
ATOM     12  C   LIG d   1      -0.300  90.602 117.093  0.00  0.00     0.006 C 
ENDBRANCH   8  11
ENDBRANCH   7   8
ENDBRANCH   1   7
BRANCH   6  13
ATOM     13  N   LIG d   1      -3.696  92.599 118.966  0.00  0.00    -0.311 N 
ATOM     14  C   LIG d   1      -2.534  93.250 118.987  0.00  0.00     0.210 C 
ATOM     15  C   LIG d   1      -1.889  93.376 120.370  0.00  0.00     0.109 C 
ATOM     16  O   LIG d   1      -1.993  93.762 117.996  0.00  0.00    -0.276 OA
ATOM     17  H   LIG d   1      -4.078  92.245 119.821  0.00  0.00     0.149 HD
ENDBRANCH   6  13
BRANCH   5  18
ATOM     18  N   LIG d   1      -6.115  94.235 118.068  0.00  0.00     0.381 N 
ATOM     19  H   LIG d   1      -6.479  94.658 117.238  0.00  0.00    -0.090 HD
ATOM     20  H   LIG d   1      -5.215  94.639 118.259  0.00  0.00    -0.090 HD
ATOM     21  H   LIG d   1      -6.731  94.403 118.832  0.00  0.00    -0.090 HD
ENDBRANCH   5  18
BRANCH   3  22
ATOM     22  C   LIG d   1      -7.535  90.451 115.498  0.00  0.00     0.382 C 
ATOM     23  O   LIG d   1      -8.300  91.122 114.764  0.00  0.00    -0.241 OA
ATOM     24  O   LIG d   1      -7.729  89.228 115.632  0.00  0.00    -0.241 OA
ENDBRANCH   3  22
TORSDOF 7
ENDMDL
MODEL 2
REMARK VINA RESULT:      -5.4      1.693      4.639
REMARK  7 active torsions:
REMARK  status: ('A' for Active; 'I' for Inactive)
REMARK    1  A    between atoms: C_2  and  C_3 
REMARK    2  A    between atoms: C_3  and  O_6 
REMARK    3  A    between atoms: C_3  and  C_4 
REMARK    4  A    between atoms: C_7  and  O_6 
REMARK    5  A    between atoms: C_9  and  C_10 
REMARK    6  A    between atoms: N_15  and  C_14 
REMARK    7  A    between atoms: N_20  and  C_19 
REMARK       I    between atoms: C_22  and  N_20 
ROOT
ATOM      1  C   LIG d   1      -4.624  91.465 117.360  0.00  0.00     0.161 C 
ATOM      2  C   LIG d   1      -3.642  92.286 117.939  0.00  0.00     0.016 C 
ATOM      3  C   LIG d   1      -3.941  93.381 118.783  0.00  0.00     0.038 C 
ATOM      4  C   LIG d   1      -5.246  93.639 119.228  0.00  0.00     0.028 C 
ATOM      5  C   LIG d   1      -6.322  93.145 118.267  0.00  0.00    -0.047 C 
ATOM      6  C   LIG d   1      -6.047  91.664 117.923  0.00  0.00     0.091 C 
ENDROOT
BRANCH   1   7
ATOM      7  O   LIG d   1      -4.231  90.083 117.467  0.00  0.00    -0.368 OA
BRANCH   7   8
ATOM      8  C   LIG d   1      -2.859  89.839 117.863  0.00  0.00     0.119 C 
BRANCH   8   9
ATOM      9  C   LIG d   1      -2.191  89.020 116.741  0.00  0.00     0.028 C 
ATOM     10  C   LIG d   1      -0.670  89.239 116.681  0.00  0.00     0.006 C 
ENDBRANCH   8   9
BRANCH   8  11
ATOM     11  C   LIG d   1      -2.788  88.951 119.109  0.00  0.00     0.028 C 
ATOM     12  C   LIG d   1      -2.148  89.663 120.312  0.00  0.00     0.006 C 
ENDBRANCH   8  11
ENDBRANCH   7   8
ENDBRANCH   1   7
BRANCH   6  13
ATOM     13  N   LIG d   1      -7.005  91.126 116.922  0.00  0.00    -0.311 N 
ATOM     14  C   LIG d   1      -6.970  91.444 115.629  0.00  0.00     0.210 C 
ATOM     15  C   LIG d   1      -8.063  90.794 114.774  0.00  0.00     0.109 C 
ATOM     16  O   LIG d   1      -6.119  92.177 115.104  0.00  0.00    -0.276 OA
ATOM     17  H   LIG d   1      -7.711  90.500 117.257  0.00  0.00     0.149 HD
ENDBRANCH   6  13
BRANCH   5  18
ATOM     18  N   LIG d   1      -7.630  93.354 118.917  0.00  0.00     0.381 N 
ATOM     19  H   LIG d   1      -7.626  92.940 119.828  0.00  0.00    -0.090 HD
ATOM     20  H   LIG d   1      -8.341  92.903 118.369  0.00  0.00    -0.090 HD
ATOM     21  H   LIG d   1      -7.823  94.329 118.988  0.00  0.00    -0.090 HD
ENDBRANCH   5  18
BRANCH   3  22
ATOM     22  C   LIG d   1      -2.932  94.255 119.157  0.00  0.00     0.382 C 
ATOM     23  O   LIG d   1      -2.922  94.742 120.313  0.00  0.00    -0.241 OA
ATOM     24  O   LIG d   1      -2.057  94.597 118.340  0.00  0.00    -0.241 OA
ENDBRANCH   3  22
TORSDOF 7
ENDMDL
MODEL 3
REMARK VINA RESULT:      -5.4      2.589      5.179
REMARK  7 active torsions:
REMARK  status: ('A' for Active; 'I' for Inactive)
REMARK    1  A    between atoms: C_2  and  C_3 
REMARK    2  A    between atoms: C_3  and  O_6 
REMARK    3  A    between atoms: C_3  and  C_4 
REMARK    4  A    between atoms: C_7  and  O_6 
REMARK    5  A    between atoms: C_9  and  C_10 
REMARK    6  A    between atoms: N_15  and  C_14 
REMARK    7  A    between atoms: N_20  and  C_19 
REMARK       I    between atoms: C_22  and  N_20 
ROOT
ATOM      1  C   LIG d   1      -6.294  93.266 117.910  0.00  0.00     0.161 C 
ATOM      2  C   LIG d   1      -7.033  92.401 117.087  0.00  0.00     0.016 C 
ATOM      3  C   LIG d   1      -6.465  91.300 116.406  0.00  0.00     0.038 C 
ATOM      4  C   LIG d   1      -5.139  90.897 116.624  0.00  0.00     0.028 C 
ATOM      5  C   LIG d   1      -4.223  92.038 117.055  0.00  0.00    -0.047 C 
ATOM      6  C   LIG d   1      -4.870  92.777 118.248  0.00  0.00     0.091 C 
ENDROOT
BRANCH   1   7
ATOM      7  O   LIG d   1      -7.030  93.538 119.119  0.00  0.00    -0.368 OA
BRANCH   7   8
ATOM      8  C   LIG d   1      -7.583  94.872 119.242  0.00  0.00     0.119 C 
BRANCH   8   9
ATOM      9  C   LIG d   1      -7.011  95.492 120.531  0.00  0.00     0.028 C 
ATOM     10  C   LIG d   1      -6.001  96.616 120.244  0.00  0.00     0.006 C 
ENDBRANCH   8   9
BRANCH   8  11
ATOM     11  C   LIG d   1      -9.099  94.830 119.451  0.00  0.00     0.028 C 
ATOM     12  C   LIG d   1      -9.494  94.356 120.859  0.00  0.00     0.006 C 
ENDBRANCH   8  11
ENDBRANCH   7   8
ENDBRANCH   1   7
BRANCH   6  13
ATOM     13  N   LIG d   1      -4.079  93.960 118.679  0.00  0.00    -0.311 N 
ATOM     14  C   LIG d   1      -3.183  93.923 119.663  0.00  0.00     0.210 C 
ATOM     15  C   LIG d   1      -2.493  95.259 119.960  0.00  0.00     0.109 C 
ATOM     16  O   LIG d   1      -2.871  92.905 120.298  0.00  0.00    -0.276 OA
ATOM     17  H   LIG d   1      -4.247  94.821 118.196  0.00  0.00     0.149 HD
ENDBRANCH   6  13
BRANCH   5  18
ATOM     18  N   LIG d   1      -2.908  91.454 117.381  0.00  0.00     0.381 N 
ATOM     19  H   LIG d   1      -2.519  91.020 116.567  0.00  0.00    -0.090 HD
ATOM     20  H   LIG d   1      -3.031  90.749 118.086  0.00  0.00    -0.090 HD
ATOM     21  H   LIG d   1      -2.293  92.164 117.713  0.00  0.00    -0.090 HD
ENDBRANCH   5  18
BRANCH   3  22
ATOM     22  C   LIG d   1      -7.216  90.612 115.464  0.00  0.00     0.382 C 
ATOM     23  O   LIG d   1      -6.950  89.414 115.204  0.00  0.00    -0.241 OA
ATOM     24  O   LIG d   1      -8.126  91.188 114.839  0.00  0.00    -0.241 OA
ENDBRANCH   3  22
TORSDOF 7
ENDMDL
MODEL 4
REMARK VINA RESULT:      -5.4      1.865      2.701
REMARK  7 active torsions:
REMARK  status: ('A' for Active; 'I' for Inactive)
REMARK    1  A    between atoms: C_2  and  C_3 
REMARK    2  A    between atoms: C_3  and  O_6 
REMARK    3  A    between atoms: C_3  and  C_4 
REMARK    4  A    between atoms: C_7  and  O_6 
REMARK    5  A    between atoms: C_9  and  C_10 
REMARK    6  A    between atoms: N_15  and  C_14 
REMARK    7  A    between atoms: N_20  and  C_19 
REMARK       I    between atoms: C_22  and  N_20 
ROOT
ATOM      1  C   LIG d   1      -4.399  91.770 117.825  0.00  0.00     0.161 C 
ATOM      2  C   LIG d   1      -4.728  90.885 116.785  0.00  0.00     0.016 C 
ATOM      3  C   LIG d   1      -5.971  90.904 116.112  0.00  0.00     0.038 C 
ATOM      4  C   LIG d   1      -6.919  91.914 116.334  0.00  0.00     0.028 C 
ATOM      5  C   LIG d   1      -6.838  92.525 117.728  0.00  0.00    -0.047 C 
ATOM      6  C   LIG d   1      -5.377  92.949 118.006  0.00  0.00     0.091 C 
ENDROOT
BRANCH   1   7
ATOM      7  O   LIG d   1      -3.054  92.257 117.646  0.00  0.00    -0.368 OA
BRANCH   7   8
ATOM      8  C   LIG d   1      -2.117  91.947 118.705  0.00  0.00     0.119 C 
BRANCH   8   9
ATOM      9  C   LIG d   1      -1.189  93.166 118.875  0.00  0.00     0.028 C 
ATOM     10  C   LIG d   1      -1.739  94.423 118.180  0.00  0.00     0.006 C 
ENDBRANCH   8   9
BRANCH   8  11
ATOM     11  C   LIG d   1      -1.196  90.788 118.313  0.00  0.00     0.028 C 
ATOM     12  C   LIG d   1      -0.087  91.213 117.337  0.00  0.00     0.006 C 
ENDBRANCH   8  11
ENDBRANCH   7   8
ENDBRANCH   1   7
BRANCH   6  13
ATOM     13  N   LIG d   1      -5.193  93.480 119.382  0.00  0.00    -0.311 N 
ATOM     14  C   LIG d   1      -5.294  94.772 119.688  0.00  0.00     0.210 C 
ATOM     15  C   LIG d   1      -5.048  95.108 121.163  0.00  0.00     0.109 C 
ATOM     16  O   LIG d   1      -5.597  95.668 118.886  0.00  0.00    -0.276 OA
ATOM     17  H   LIG d   1      -4.976  92.818 120.101  0.00  0.00     0.149 HD
ENDBRANCH   6  13
BRANCH   5  18
ATOM     18  N   LIG d   1      -7.786  93.654 117.776  0.00  0.00     0.381 N 
ATOM     19  H   LIG d   1      -7.309  94.507 117.565  0.00  0.00    -0.090 HD
ATOM     20  H   LIG d   1      -8.161  93.724 118.706  0.00  0.00    -0.090 HD
ATOM     21  H   LIG d   1      -8.524  93.507 117.123  0.00  0.00    -0.090 HD
ENDBRANCH   5  18
BRANCH   3  22
ATOM     22  C   LIG d   1      -6.292  89.881 115.233  0.00  0.00     0.382 C 
ATOM     23  O   LIG d   1      -7.431  89.354 115.273  0.00  0.00    -0.241 OA
ATOM     24  O   LIG d   1      -5.444  89.447 114.431  0.00  0.00    -0.241 OA
ENDBRANCH   3  22
TORSDOF 7
ENDMDL
MODEL 5
REMARK VINA RESULT:      -5.0      2.680      6.249
REMARK  7 active torsions:
REMARK  status: ('A' for Active; 'I' for Inactive)
REMARK    1  A    between atoms: C_2  and  C_3 
REMARK    2  A    between atoms: C_3  and  O_6 
REMARK    3  A    between atoms: C_3  and  C_4 
REMARK    4  A    between atoms: C_7  and  O_6 
REMARK    5  A    between atoms: C_9  and  C_10 
REMARK    6  A    between atoms: N_15  and  C_14 
REMARK    7  A    between atoms: N_20  and  C_19 
REMARK       I    between atoms: C_22  and  N_20 
ROOT
ATOM      1  C   LIG d   1      -5.363  92.020 118.506  0.00  0.00     0.161 C 
ATOM      2  C   LIG d   1      -4.286  92.065 119.407  0.00  0.00     0.016 C 
ATOM      3  C   LIG d   1      -3.072  91.371 119.204  0.00  0.00     0.038 C 
ATOM      4  C   LIG d   1      -2.793  90.701 118.003  0.00  0.00     0.028 C 
ATOM      5  C   LIG d   1      -4.042  90.209 117.280  0.00  0.00    -0.047 C 
ATOM      6  C   LIG d   1      -5.036  91.385 117.139  0.00  0.00     0.091 C 
ENDROOT
BRANCH   1   7
ATOM      7  O   LIG d   1      -5.906  93.343 118.327  0.00  0.00    -0.368 OA
BRANCH   7   8
ATOM      8  C   LIG d   1      -6.141  94.105 119.537  0.00  0.00     0.119 C 
BRANCH   8   9
ATOM      9  C   LIG d   1      -7.666  94.191 119.741  0.00  0.00     0.028 C 
ATOM     10  C   LIG d   1      -8.405  94.631 118.466  0.00  0.00     0.006 C 
ENDBRANCH   8   9
BRANCH   8  11
ATOM     11  C   LIG d   1      -5.670  95.555 119.382  0.00  0.00     0.028 C 
ATOM     12  C   LIG d   1      -4.509  95.908 120.326  0.00  0.00     0.006 C 
ENDBRANCH   8  11
ENDBRANCH   7   8
ENDBRANCH   1   7
BRANCH   6  13
ATOM     13  N   LIG d   1      -6.320  90.970 116.517  0.00  0.00    -0.311 N 
ATOM     14  C   LIG d   1      -6.719  91.380 115.314  0.00  0.00     0.210 C 
ATOM     15  C   LIG d   1      -8.085  90.849 114.869  0.00  0.00     0.109 C 
ATOM     16  O   LIG d   1      -6.056  92.108 114.560  0.00  0.00    -0.276 OA
ATOM     17  H   LIG d   1      -6.906  90.354 117.047  0.00  0.00     0.149 HD
ENDBRANCH   6  13
BRANCH   5  18
ATOM     18  N   LIG d   1      -3.616  89.654 115.981  0.00  0.00     0.381 N 
ATOM     19  H   LIG d   1      -3.956  88.718 115.885  0.00  0.00    -0.090 HD
ATOM     20  H   LIG d   1      -2.611  89.629 115.953  0.00  0.00    -0.090 HD
ATOM     21  H   LIG d   1      -3.962  90.219 115.238  0.00  0.00    -0.090 HD
ENDBRANCH   5  18
BRANCH   3  22
ATOM     22  C   LIG d   1      -2.136  91.310 120.225  0.00  0.00     0.382 C 
ATOM     23  O   LIG d   1      -2.158  92.160 121.147  0.00  0.00    -0.241 OA
ATOM     24  O   LIG d   1      -1.243  90.441 120.212  0.00  0.00    -0.241 OA
ENDBRANCH   3  22
TORSDOF 7
ENDMDL
MODEL 6
REMARK VINA RESULT:      -4.9      2.068      4.860
REMARK  7 active torsions:
REMARK  status: ('A' for Active; 'I' for Inactive)
REMARK    1  A    between atoms: C_2  and  C_3 
REMARK    2  A    between atoms: C_3  and  O_6 
REMARK    3  A    between atoms: C_3  and  C_4 
REMARK    4  A    between atoms: C_7  and  O_6 
REMARK    5  A    between atoms: C_9  and  C_10 
REMARK    6  A    between atoms: N_15  and  C_14 
REMARK    7  A    between atoms: N_20  and  C_19 
REMARK       I    between atoms: C_22  and  N_20 
ROOT
ATOM      1  C   LIG d   1      -3.502  92.712 117.805  0.00  0.00     0.161 C 
ATOM      2  C   LIG d   1      -3.231  93.550 118.899  0.00  0.00     0.016 C 
ATOM      3  C   LIG d   1      -4.238  94.123 119.709  0.00  0.00     0.038 C 
ATOM      4  C   LIG d   1      -5.589  93.772 119.571  0.00  0.00     0.028 C 
ATOM      5  C   LIG d   1      -5.957  93.324 118.161  0.00  0.00    -0.047 C 
ATOM      6  C   LIG d   1      -4.965  92.229 117.707  0.00  0.00     0.091 C 
ENDROOT
BRANCH   1   7
ATOM      7  O   LIG d   1      -2.603  91.585 117.817  0.00  0.00    -0.368 OA
BRANCH   7   8
ATOM      8  C   LIG d   1      -2.863  90.573 118.820  0.00  0.00     0.119 C 
BRANCH   8   9
ATOM      9  C   LIG d   1      -1.702  90.615 119.833  0.00  0.00     0.028 C 
ATOM     10  C   LIG d   1      -0.378  91.061 119.189  0.00  0.00     0.006 C 
ENDBRANCH   8   9
BRANCH   8  11
ATOM     11  C   LIG d   1      -2.822  89.166 118.216  0.00  0.00     0.028 C 
ATOM     12  C   LIG d   1      -2.800  89.178 116.679  0.00  0.00     0.006 C 
ENDBRANCH   8  11
ENDBRANCH   7   8
ENDBRANCH   1   7
BRANCH   6  13
ATOM     13  N   LIG d   1      -5.202  91.794 116.306  0.00  0.00    -0.311 N 
ATOM     14  C   LIG d   1      -6.101  90.872 115.967  0.00  0.00     0.210 C 
ATOM     15  C   LIG d   1      -6.171  90.557 114.469  0.00  0.00     0.109 C 
ATOM     16  O   LIG d   1      -6.870  90.308 116.760  0.00  0.00    -0.276 OA
ATOM     17  H   LIG d   1      -4.643  92.223 115.594  0.00  0.00     0.149 HD
ENDBRANCH   6  13
BRANCH   5  18
ATOM     18  N   LIG d   1      -7.357  92.858 118.192  0.00  0.00     0.381 N 
ATOM     19  H   LIG d   1      -7.925  93.526 118.673  0.00  0.00    -0.090 HD
ATOM     20  H   LIG d   1      -7.399  91.989 118.695  0.00  0.00    -0.090 HD
ATOM     21  H   LIG d   1      -7.694  92.730 117.264  0.00  0.00    -0.090 HD
ENDBRANCH   5  18
BRANCH   3  22
ATOM     22  C   LIG d   1      -3.900  95.088 120.645  0.00  0.00     0.382 C 
ATOM     23  O   LIG d   1      -4.009  94.839 121.870  0.00  0.00    -0.241 OA
ATOM     24  O   LIG d   1      -3.531  96.220 120.280  0.00  0.00    -0.241 OA
ENDBRANCH   3  22
TORSDOF 7
ENDMDL
MODEL 7
REMARK VINA RESULT:      -4.7      2.295      5.434
REMARK  7 active torsions:
REMARK  status: ('A' for Active; 'I' for Inactive)
REMARK    1  A    between atoms: C_2  and  C_3 
REMARK    2  A    between atoms: C_3  and  O_6 
REMARK    3  A    between atoms: C_3  and  C_4 
REMARK    4  A    between atoms: C_7  and  O_6 
REMARK    5  A    between atoms: C_9  and  C_10 
REMARK    6  A    between atoms: N_15  and  C_14 
REMARK    7  A    between atoms: N_20  and  C_19 
REMARK       I    between atoms: C_22  and  N_20 
ROOT
ATOM      1  C   LIG d   1      -3.049  90.502 117.505  0.00  0.00     0.161 C 
ATOM      2  C   LIG d   1      -2.283  89.417 117.048  0.00  0.00     0.016 C 
ATOM      3  C   LIG d   1      -1.128  88.945 117.714  0.00  0.00     0.038 C 
ATOM      4  C   LIG d   1      -0.745  89.434 118.972  0.00  0.00     0.028 C 
ATOM      5  C   LIG d   1      -1.197  90.868 119.227  0.00  0.00    -0.047 C 
ATOM      6  C   LIG d   1      -2.711  90.977 118.934  0.00  0.00     0.091 C 
ENDROOT
BRANCH   1   7
ATOM      7  O   LIG d   1      -4.452  90.188 117.400  0.00  0.00    -0.368 OA
BRANCH   7   8
ATOM      8  C   LIG d   1      -5.208  90.961 116.436  0.00  0.00     0.119 C 
BRANCH   8   9
ATOM      9  C   LIG d   1      -6.568  91.297 117.077  0.00  0.00     0.028 C 
ATOM     10  C   LIG d   1      -6.816  92.813 117.167  0.00  0.00     0.006 C 
ENDBRANCH   8   9
BRANCH   8  11
ATOM     11  C   LIG d   1      -5.540  90.130 115.193  0.00  0.00     0.028 C 
ATOM     12  C   LIG d   1      -7.047  89.879 115.029  0.00  0.00     0.006 C 
ENDBRANCH   8  11
ENDBRANCH   7   8
ENDBRANCH   1   7
BRANCH   6  13
ATOM     13  N   LIG d   1      -3.218  92.366 119.078  0.00  0.00    -0.311 N 
ATOM     14  C   LIG d   1      -4.271  92.689 119.827  0.00  0.00     0.210 C 
ATOM     15  C   LIG d   1      -4.638  94.176 119.821  0.00  0.00     0.109 C 
ATOM     16  O   LIG d   1      -4.916  91.889 120.522  0.00  0.00    -0.276 OA
ATOM     17  H   LIG d   1      -2.734  93.083 118.573  0.00  0.00     0.149 HD
ENDBRANCH   6  13
BRANCH   5  18
ATOM     18  N   LIG d   1      -0.853  91.202 120.622  0.00  0.00     0.381 N 
ATOM     19  H   LIG d   1       0.066  91.596 120.659  0.00  0.00    -0.090 HD
ATOM     20  H   LIG d   1      -0.857  90.359 121.169  0.00  0.00    -0.090 HD
ATOM     21  H   LIG d   1      -1.515  91.849 120.991  0.00  0.00    -0.090 HD
ENDBRANCH   5  18
BRANCH   3  22
ATOM     22  C   LIG d   1      -0.320  88.000 117.101  0.00  0.00     0.382 C 
ATOM     23  O   LIG d   1       0.077  87.000 117.748  0.00  0.00    -0.241 OA
ATOM     24  O   LIG d   1       0.053  88.156 115.923  0.00  0.00    -0.241 OA
ENDBRANCH   3  22
TORSDOF 7
ENDMDL
MODEL 8
REMARK VINA RESULT:      -4.6      3.076      6.622
REMARK  7 active torsions:
REMARK  status: ('A' for Active; 'I' for Inactive)
REMARK    1  A    between atoms: C_2  and  C_3 
REMARK    2  A    between atoms: C_3  and  O_6 
REMARK    3  A    between atoms: C_3  and  C_4 
REMARK    4  A    between atoms: C_7  and  O_6 
REMARK    5  A    between atoms: C_9  and  C_10 
REMARK    6  A    between atoms: N_15  and  C_14 
REMARK    7  A    between atoms: N_20  and  C_19 
REMARK       I    between atoms: C_22  and  N_20 
ROOT
ATOM      1  C   LIG d   1      -0.112  90.264 116.577  0.00  0.00     0.161 C 
ATOM      2  C   LIG d   1       1.265  90.429 116.802  0.00  0.00     0.016 C 
ATOM      3  C   LIG d   1       1.794  91.215 117.851  0.00  0.00     0.038 C 
ATOM      4  C   LIG d   1       0.976  91.771 118.846  0.00  0.00     0.028 C 
ATOM      5  C   LIG d   1      -0.447  92.050 118.374  0.00  0.00    -0.047 C 
ATOM      6  C   LIG d   1      -1.018  90.773 117.718  0.00  0.00     0.091 C 
ENDROOT
BRANCH   1   7
ATOM      7  O   LIG d   1      -0.398  88.882 116.288  0.00  0.00    -0.368 OA
BRANCH   7   8
ATOM      8  C   LIG d   1       0.534  87.912 116.826  0.00  0.00     0.119 C 
BRANCH   8   9
ATOM      9  C   LIG d   1       0.885  86.929 115.693  0.00  0.00     0.028 C 
ATOM     10  C   LIG d   1       2.249  87.234 115.052  0.00  0.00     0.006 C 
ENDBRANCH   8   9
BRANCH   8  11
ATOM     11  C   LIG d   1      -0.118  87.057 117.917  0.00  0.00     0.028 C 
ATOM     12  C   LIG d   1       0.611  85.724 118.145  0.00  0.00     0.006 C 
ENDBRANCH   8  11
ENDBRANCH   7   8
ENDBRANCH   1   7
BRANCH   6  13
ATOM     13  N   LIG d   1      -2.377  90.984 117.153  0.00  0.00    -0.311 N 
ATOM     14  C   LIG d   1      -3.432  90.242 117.484  0.00  0.00     0.210 C 
ATOM     15  C   LIG d   1      -4.735  90.616 116.770  0.00  0.00     0.109 C 
ATOM     16  O   LIG d   1      -3.420  89.330 118.324  0.00  0.00    -0.276 OA
ATOM     17  H   LIG d   1      -2.483  91.724 116.487  0.00  0.00     0.149 HD
ENDBRANCH   6  13
BRANCH   5  18
ATOM     18  N   LIG d   1      -1.225  92.497 119.545  0.00  0.00     0.381 N 
ATOM     19  H   LIG d   1      -1.223  91.783 120.245  0.00  0.00    -0.090 HD
ATOM     20  H   LIG d   1      -2.176  92.658 119.261  0.00  0.00    -0.090 HD
ATOM     21  H   LIG d   1      -0.834  93.336 119.914  0.00  0.00    -0.090 HD
ENDBRANCH   5  18
BRANCH   3  22
ATOM     22  C   LIG d   1       3.154  91.484 117.890  0.00  0.00     0.382 C 
ATOM     23  O   LIG d   1       3.792  91.642 116.822  0.00  0.00    -0.241 OA
ATOM     24  O   LIG d   1       3.758  91.527 118.978  0.00  0.00    -0.241 OA
ENDBRANCH   3  22
TORSDOF 7
ENDMDL
MODEL 9
REMARK VINA RESULT:      -4.6      2.159      2.917
REMARK  7 active torsions:
REMARK  status: ('A' for Active; 'I' for Inactive)
REMARK    1  A    between atoms: C_2  and  C_3 
REMARK    2  A    between atoms: C_3  and  O_6 
REMARK    3  A    between atoms: C_3  and  C_4 
REMARK    4  A    between atoms: C_7  and  O_6 
REMARK    5  A    between atoms: C_9  and  C_10 
REMARK    6  A    between atoms: N_15  and  C_14 
REMARK    7  A    between atoms: N_20  and  C_19 
REMARK       I    between atoms: C_22  and  N_20 
ROOT
ATOM      1  C   LIG d   1      -2.786  91.104 119.794  0.00  0.00     0.161 C 
ATOM      2  C   LIG d   1      -3.998  90.796 119.154  0.00  0.00     0.016 C 
ATOM      3  C   LIG d   1      -4.496  91.515 118.043  0.00  0.00     0.038 C 
ATOM      4  C   LIG d   1      -3.736  92.502 117.397  0.00  0.00     0.028 C 
ATOM      5  C   LIG d   1      -2.728  93.186 118.314  0.00  0.00    -0.047 C 
ATOM      6  C   LIG d   1      -1.890  92.105 119.035  0.00  0.00     0.091 C 
ENDROOT
BRANCH   1   7
ATOM      7  O   LIG d   1      -2.058  89.891 120.070  0.00  0.00    -0.368 OA
BRANCH   7   8
ATOM      8  C   LIG d   1      -2.388  88.747 119.244  0.00  0.00     0.119 C 
BRANCH   8   9
ATOM      9  C   LIG d   1      -2.315  87.494 120.138  0.00  0.00     0.028 C 
ATOM     10  C   LIG d   1      -1.309  86.456 119.613  0.00  0.00     0.006 C 
ENDBRANCH   8   9
BRANCH   8  11
ATOM     11  C   LIG d   1      -1.338  88.527 118.151  0.00  0.00     0.028 C 
ATOM     12  C   LIG d   1      -1.769  89.091 116.788  0.00  0.00     0.006 C 
ENDBRANCH   8  11
ENDBRANCH   7   8
ENDBRANCH   1   7
BRANCH   6  13
ATOM     13  N   LIG d   1      -0.936  92.687 120.015  0.00  0.00    -0.311 N 
ATOM     14  C   LIG d   1       0.331  92.973 119.723  0.00  0.00     0.210 C 
ATOM     15  C   LIG d   1       1.149  93.548 120.884  0.00  0.00     0.109 C 
ATOM     16  O   LIG d   1       0.848  92.836 118.603  0.00  0.00    -0.276 OA
ATOM     17  H   LIG d   1      -1.280  92.860 120.939  0.00  0.00     0.149 HD
ENDBRANCH   6  13
BRANCH   5  18
ATOM     18  N   LIG d   1      -1.911  94.091 117.483  0.00  0.00     0.381 N 
ATOM     19  H   LIG d   1      -1.886  95.001 117.897  0.00  0.00    -0.090 HD
ATOM     20  H   LIG d   1      -2.335  94.169 116.575  0.00  0.00    -0.090 HD
ATOM     21  H   LIG d   1      -0.986  93.732 117.396  0.00  0.00    -0.090 HD
ENDBRANCH   5  18
BRANCH   3  22
ATOM     22  C   LIG d   1      -5.785  91.276 117.590  0.00  0.00     0.382 C 
ATOM     23  O   LIG d   1      -5.983  90.444 116.672  0.00  0.00    -0.241 OA
ATOM     24  O   LIG d   1      -6.747  91.913 118.059  0.00  0.00    -0.241 OA
ENDBRANCH   3  22
TORSDOF 7
ENDMDL
