MODEL 1
REMARK VINA RESULT:      -5.8      0.000      0.000
REMARK  7 active torsions:
REMARK  status: ('A' for Active; 'I' for Inactive)
REMARK    1  A    between atoms: C_2  and  C_3 
REMARK    2  A    between atoms: C_3  and  O_6 
REMARK    3  A    between atoms: C_3  and  C_4 
REMARK    4  A    between atoms: C_7  and  O_6 
REMARK    5  A    between atoms: C_9  and  C_10 
REMARK    6  A    between atoms: N_15  and  C_14 
REMARK    7  A    between atoms: N_20  and  C_19 
REMARK       I    between atoms: C_22  and  N_20 
ROOT
ATOM      1  C   LIG d   1      -4.465  90.608 117.554  0.00  0.00     0.161 C 
ATOM      2  C   LIG d   1      -5.153  90.055 116.461  0.00  0.00     0.016 C 
ATOM      3  C   LIG d   1      -6.270  90.671 115.852  0.00  0.00     0.038 C 
ATOM      4  C   LIG d   1      -6.685  91.964 116.201  0.00  0.00     0.028 C 
ATOM      5  C   LIG d   1      -6.337  92.346 117.636  0.00  0.00    -0.047 C 
ATOM      6  C   LIG d   1      -4.835  92.070 117.878  0.00  0.00     0.091 C 
ENDROOT
BRANCH   1   7
ATOM      7  O   LIG d   1      -3.044  90.483 117.352  0.00  0.00    -0.368 OA
BRANCH   7   8
ATOM      8  C   LIG d   1      -2.423  89.296 117.903  0.00  0.00     0.119 C 
BRANCH   8   9
ATOM      9  C   LIG d   1      -2.910  89.152 119.358  0.00  0.00     0.028 C 
ATOM     10  C   LIG d   1      -1.915  89.742 120.371  0.00  0.00     0.006 C 
ENDBRANCH   8   9
BRANCH   8  11
ATOM     11  C   LIG d   1      -0.902  89.455 117.998  0.00  0.00     0.028 C 
ATOM     12  C   LIG d   1      -0.354  90.520 117.036  0.00  0.00     0.006 C 
ENDBRANCH   8  11
ENDBRANCH   7   8
ENDBRANCH   1   7
BRANCH   6  13
ATOM     13  N   LIG d   1      -4.429  92.337 119.283  0.00  0.00    -0.311 N 
ATOM     14  C   LIG d   1      -3.396  93.111 119.613  0.00  0.00     0.210 C 
ATOM     15  C   LIG d   1      -3.138  93.237 121.118  0.00  0.00     0.109 C 
ATOM     16  O   LIG d   1      -2.690  93.732 118.804  0.00  0.00    -0.276 OA
ATOM     17  H   LIG d   1      -4.966  91.898 120.004  0.00  0.00     0.149 HD
ENDBRANCH   6  13
BRANCH   5  18
ATOM     18  N   LIG d   1      -6.702  93.763 117.822  0.00  0.00     0.381 N 
ATOM     19  H   LIG d   1      -5.926  94.347 117.583  0.00  0.00    -0.090 HD
ATOM     20  H   LIG d   1      -6.926  93.916 118.790  0.00  0.00    -0.090 HD
ATOM     21  H   LIG d   1      -7.487  93.990 117.252  0.00  0.00    -0.090 HD
ENDBRANCH   5  18
BRANCH   3  22
ATOM     22  C   LIG d   1      -7.009  89.974 114.908  0.00  0.00     0.382 C 
ATOM     23  O   LIG d   1      -6.565  88.903 114.430  0.00  0.00    -0.241 OA
ATOM     24  O   LIG d   1      -8.094  90.427 114.496  0.00  0.00    -0.241 OA
ENDBRANCH   3  22
TORSDOF 7
ENDMDL
MODEL 2
REMARK VINA RESULT:      -5.6      2.382      4.590
REMARK  7 active torsions:
REMARK  status: ('A' for Active; 'I' for Inactive)
REMARK    1  A    between atoms: C_2  and  C_3 
REMARK    2  A    between atoms: C_3  and  O_6 
REMARK    3  A    between atoms: C_3  and  C_4 
REMARK    4  A    between atoms: C_7  and  O_6 
REMARK    5  A    between atoms: C_9  and  C_10 
REMARK    6  A    between atoms: N_15  and  C_14 
REMARK    7  A    between atoms: N_20  and  C_19 
REMARK       I    between atoms: C_22  and  N_20 
ROOT
ATOM      1  C   LIG d   1      -6.128  92.289 117.359  0.00  0.00     0.161 C 
ATOM      2  C   LIG d   1      -7.163  91.466 116.886  0.00  0.00     0.016 C 
ATOM      3  C   LIG d   1      -6.952  90.159 116.388  0.00  0.00     0.038 C 
ATOM      4  C   LIG d   1      -5.703  89.527 116.471  0.00  0.00     0.028 C 
ATOM      5  C   LIG d   1      -4.530  90.501 116.476  0.00  0.00    -0.047 C 
ATOM      6  C   LIG d   1      -4.775  91.576 117.560  0.00  0.00     0.091 C 
ENDROOT
BRANCH   1   7
ATOM      7  O   LIG d   1      -6.539  92.938 118.578  0.00  0.00    -0.368 OA
BRANCH   7   8
ATOM      8  C   LIG d   1      -6.731  94.372 118.504  0.00  0.00     0.119 C 
BRANCH   8   9
ATOM      9  C   LIG d   1      -6.168  94.983 119.802  0.00  0.00     0.028 C 
ATOM     10  C   LIG d   1      -5.156  96.109 119.530  0.00  0.00     0.006 C 
ENDBRANCH   8   9
BRANCH   8  11
ATOM     11  C   LIG d   1      -8.219  94.735 118.496  0.00  0.00     0.028 C 
ATOM     12  C   LIG d   1      -8.964  94.218 119.736  0.00  0.00     0.006 C 
ENDBRANCH   8  11
ENDBRANCH   7   8
ENDBRANCH   1   7
BRANCH   6  13
ATOM     13  N   LIG d   1      -3.715  92.618 117.575  0.00  0.00    -0.311 N 
ATOM     14  C   LIG d   1      -3.113  93.035 118.687  0.00  0.00     0.210 C 
ATOM     15  C   LIG d   1      -2.063  94.131 118.482  0.00  0.00     0.109 C 
ATOM     16  O   LIG d   1      -3.326  92.579 119.821  0.00  0.00    -0.276 OA
ATOM     17  H   LIG d   1      -3.458  93.019 116.695  0.00  0.00     0.149 HD
ENDBRANCH   6  13
BRANCH   5  18
ATOM     18  N   LIG d   1      -3.301  89.718 116.705  0.00  0.00     0.381 N 
ATOM     19  H   LIG d   1      -2.872  89.498 115.829  0.00  0.00    -0.090 HD
ATOM     20  H   LIG d   1      -3.544  88.858 117.163  0.00  0.00    -0.090 HD
ATOM     21  H   LIG d   1      -2.667  90.237 117.272  0.00  0.00    -0.090 HD
ENDBRANCH   5  18
BRANCH   3  22
ATOM     22  C   LIG d   1      -7.991  89.486 115.764  0.00  0.00     0.382 C 
ATOM     23  O   LIG d   1      -8.529  88.502 116.327  0.00  0.00    -0.241 OA
ATOM     24  O   LIG d   1      -8.367  89.821 114.625  0.00  0.00    -0.241 OA
ENDBRANCH   3  22
TORSDOF 7
ENDMDL
MODEL 3
REMARK VINA RESULT:      -5.3      2.325      3.654
REMARK  7 active torsions:
REMARK  status: ('A' for Active; 'I' for Inactive)
REMARK    1  A    between atoms: C_2  and  C_3 
REMARK    2  A    between atoms: C_3  and  O_6 
REMARK    3  A    between atoms: C_3  and  C_4 
REMARK    4  A    between atoms: C_7  and  O_6 
REMARK    5  A    between atoms: C_9  and  C_10 
REMARK    6  A    between atoms: N_15  and  C_14 
REMARK    7  A    between atoms: N_20  and  C_19 
REMARK       I    between atoms: C_22  and  N_20 
ROOT
ATOM      1  C   LIG d   1      -5.086  92.170 118.576  0.00  0.00     0.161 C 
ATOM      2  C   LIG d   1      -6.369  92.530 118.132  0.00  0.00     0.016 C 
ATOM      3  C   LIG d   1      -6.981  93.767 118.441  0.00  0.00     0.038 C 
ATOM      4  C   LIG d   1      -6.284  94.796 119.092  0.00  0.00     0.028 C 
ATOM      5  C   LIG d   1      -5.165  94.292 119.997  0.00  0.00    -0.047 C 
ATOM      6  C   LIG d   1      -4.268  93.324 119.193  0.00  0.00     0.091 C 
ENDROOT
BRANCH   1   7
ATOM      7  O   LIG d   1      -4.351  91.556 117.498  0.00  0.00    -0.368 OA
BRANCH   7   8
ATOM      8  C   LIG d   1      -4.495  90.121 117.366  0.00  0.00     0.119 C 
BRANCH   8   9
ATOM      9  C   LIG d   1      -3.094  89.499 117.526  0.00  0.00     0.028 C 
ATOM     10  C   LIG d   1      -2.743  89.212 118.996  0.00  0.00     0.006 C 
ENDBRANCH   8   9
BRANCH   8  11
ATOM     11  C   LIG d   1      -4.952  89.734 115.956  0.00  0.00     0.028 C 
ATOM     12  C   LIG d   1      -6.481  89.655 115.826  0.00  0.00     0.006 C 
ENDBRANCH   8  11
ENDBRANCH   7   8
ENDBRANCH   1   7
BRANCH   6  13
ATOM     13  N   LIG d   1      -3.197  92.719 120.027  0.00  0.00    -0.311 N 
ATOM     14  C   LIG d   1      -1.901  92.808 119.734  0.00  0.00     0.210 C 
ATOM     15  C   LIG d   1      -0.965  92.096 120.716  0.00  0.00     0.109 C 
ATOM     16  O   LIG d   1      -1.435  93.436 118.771  0.00  0.00    -0.276 OA
ATOM     17  H   LIG d   1      -3.484  92.217 120.845  0.00  0.00     0.149 HD
ENDBRANCH   6  13
BRANCH   5  18
ATOM     18  N   LIG d   1      -4.436  95.470 120.504  0.00  0.00     0.381 N 
ATOM     19  H   LIG d   1      -3.495  95.216 120.729  0.00  0.00    -0.090 HD
ATOM     20  H   LIG d   1      -4.885  95.794 121.342  0.00  0.00    -0.090 HD
ATOM     21  H   LIG d   1      -4.437  96.193 119.817  0.00  0.00    -0.090 HD
ENDBRANCH   5  18
BRANCH   3  22
ATOM     22  C   LIG d   1      -8.317  93.970 118.132  0.00  0.00     0.382 C 
ATOM     23  O   LIG d   1      -9.139  94.231 119.043  0.00  0.00    -0.241 OA
ATOM     24  O   LIG d   1      -8.719  93.850 116.959  0.00  0.00    -0.241 OA
ENDBRANCH   3  22
TORSDOF 7
ENDMDL
MODEL 4
REMARK VINA RESULT:      -5.2      2.296      4.214
REMARK  7 active torsions:
REMARK  status: ('A' for Active; 'I' for Inactive)
REMARK    1  A    between atoms: C_2  and  C_3 
REMARK    2  A    between atoms: C_3  and  O_6 
REMARK    3  A    between atoms: C_3  and  C_4 
REMARK    4  A    between atoms: C_7  and  O_6 
REMARK    5  A    between atoms: C_9  and  C_10 
REMARK    6  A    between atoms: N_15  and  C_14 
REMARK    7  A    between atoms: N_20  and  C_19 
REMARK       I    between atoms: C_22  and  N_20 
ROOT
ATOM      1  C   LIG d   1      -4.738  92.519 118.715  0.00  0.00     0.161 C 
ATOM      2  C   LIG d   1      -6.011  93.111 118.670  0.00  0.00     0.016 C 
ATOM      3  C   LIG d   1      -6.986  92.787 117.699  0.00  0.00     0.038 C 
ATOM      4  C   LIG d   1      -6.807  91.731 116.793  0.00  0.00     0.028 C 
ATOM      5  C   LIG d   1      -5.343  91.445 116.477  0.00  0.00    -0.047 C 
ATOM      6  C   LIG d   1      -4.565  91.286 117.803  0.00  0.00     0.091 C 
ENDROOT
BRANCH   1   7
ATOM      7  O   LIG d   1      -4.402  92.186 120.077  0.00  0.00    -0.368 OA
BRANCH   7   8
ATOM      8  C   LIG d   1      -3.326  92.951 120.673  0.00  0.00     0.119 C 
BRANCH   8   9
ATOM      9  C   LIG d   1      -3.942  93.837 121.773  0.00  0.00     0.028 C 
ATOM     10  C   LIG d   1      -4.244  95.262 121.279  0.00  0.00     0.006 C 
ENDBRANCH   8   9
BRANCH   8  11
ATOM     11  C   LIG d   1      -2.710  93.926 119.665  0.00  0.00     0.028 C 
ATOM     12  C   LIG d   1      -1.221  93.650 119.403  0.00  0.00     0.006 C 
ENDBRANCH   8  11
ENDBRANCH   7   8
ENDBRANCH   1   7
BRANCH   6  13
ATOM     13  N   LIG d   1      -3.108  91.088 117.586  0.00  0.00    -0.311 N 
ATOM     14  C   LIG d   1      -2.522  89.892 117.594  0.00  0.00     0.210 C 
ATOM     15  C   LIG d   1      -1.007  89.913 117.369  0.00  0.00     0.109 C 
ATOM     16  O   LIG d   1      -3.118  88.813 117.735  0.00  0.00    -0.276 OA
ATOM     17  H   LIG d   1      -2.554  91.908 117.433  0.00  0.00     0.149 HD
ENDBRANCH   6  13
BRANCH   5  18
ATOM     18  N   LIG d   1      -5.297  90.237 115.631  0.00  0.00     0.381 N 
ATOM     19  H   LIG d   1      -4.470  89.713 115.835  0.00  0.00    -0.090 HD
ATOM     20  H   LIG d   1      -5.264  90.517 114.667  0.00  0.00    -0.090 HD
ATOM     21  H   LIG d   1      -6.103  89.676 115.794  0.00  0.00    -0.090 HD
ENDBRANCH   5  18
BRANCH   3  22
ATOM     22  C   LIG d   1      -8.140  93.549 117.603  0.00  0.00     0.382 C 
ATOM     23  O   LIG d   1      -8.640  94.062 118.633  0.00  0.00    -0.241 OA
ATOM     24  O   LIG d   1      -8.712  93.694 116.506  0.00  0.00    -0.241 OA
ENDBRANCH   3  22
TORSDOF 7
ENDMDL
MODEL 5
REMARK VINA RESULT:      -5.2      1.903      4.827
REMARK  7 active torsions:
REMARK  status: ('A' for Active; 'I' for Inactive)
REMARK    1  A    between atoms: C_2  and  C_3 
REMARK    2  A    between atoms: C_3  and  O_6 
REMARK    3  A    between atoms: C_3  and  C_4 
REMARK    4  A    between atoms: C_7  and  O_6 
REMARK    5  A    between atoms: C_9  and  C_10 
REMARK    6  A    between atoms: N_15  and  C_14 
REMARK    7  A    between atoms: N_20  and  C_19 
REMARK       I    between atoms: C_22  and  N_20 
ROOT
ATOM      1  C   LIG d   1      -3.922  91.885 117.982  0.00  0.00     0.161 C 
ATOM      2  C   LIG d   1      -3.982  92.905 118.946  0.00  0.00     0.016 C 
ATOM      3  C   LIG d   1      -5.178  93.573 119.298  0.00  0.00     0.038 C 
ATOM      4  C   LIG d   1      -6.428  93.158 118.816  0.00  0.00     0.028 C 
ATOM      5  C   LIG d   1      -6.355  92.464 117.460  0.00  0.00    -0.047 C 
ATOM      6  C   LIG d   1      -5.293  91.343 117.527  0.00  0.00     0.091 C 
ENDROOT
BRANCH   1   7
ATOM      7  O   LIG d   1      -3.092  90.808 118.463  0.00  0.00    -0.368 OA
BRANCH   7   8
ATOM      8  C   LIG d   1      -1.814  91.192 119.028  0.00  0.00     0.119 C 
BRANCH   8   9
ATOM      9  C   LIG d   1      -0.789  91.220 117.878  0.00  0.00     0.028 C 
ATOM     10  C   LIG d   1      -0.693  89.872 117.144  0.00  0.00     0.006 C 
ENDBRANCH   8   9
BRANCH   8  11
ATOM     11  C   LIG d   1      -1.297  90.133 120.006  0.00  0.00     0.028 C 
ATOM     12  C   LIG d   1      -2.381  89.640 120.978  0.00  0.00     0.006 C 
ENDBRANCH   8  11
ENDBRANCH   7   8
ENDBRANCH   1   7
BRANCH   6  13
ATOM     13  N   LIG d   1      -5.097  90.669 116.217  0.00  0.00    -0.311 N 
ATOM     14  C   LIG d   1      -5.837  89.641 115.804  0.00  0.00     0.210 C 
ATOM     15  C   LIG d   1      -5.456  89.081 114.430  0.00  0.00     0.109 C 
ATOM     16  O   LIG d   1      -6.794  89.161 116.430  0.00  0.00    -0.276 OA
ATOM     17  H   LIG d   1      -4.362  91.014 115.631  0.00  0.00     0.149 HD
ENDBRANCH   6  13
BRANCH   5  18
ATOM     18  N   LIG d   1      -7.705  91.963 117.142  0.00  0.00     0.381 N 
ATOM     19  H   LIG d   1      -8.290  92.723 116.857  0.00  0.00    -0.090 HD
ATOM     20  H   LIG d   1      -8.102  91.552 117.969  0.00  0.00    -0.090 HD
ATOM     21  H   LIG d   1      -7.655  91.283 116.416  0.00  0.00    -0.090 HD
ENDBRANCH   5  18
BRANCH   3  22
ATOM     22  C   LIG d   1      -5.125  94.694 120.112  0.00  0.00     0.382 C 
ATOM     23  O   LIG d   1      -5.929  94.815 121.067  0.00  0.00    -0.241 OA
ATOM     24  O   LIG d   1      -4.312  95.608 119.876  0.00  0.00    -0.241 OA
ENDBRANCH   3  22
TORSDOF 7
ENDMDL
MODEL 6
REMARK VINA RESULT:      -5.2      2.354      4.771
REMARK  7 active torsions:
REMARK  status: ('A' for Active; 'I' for Inactive)
REMARK    1  A    between atoms: C_2  and  C_3 
REMARK    2  A    between atoms: C_3  and  O_6 
REMARK    3  A    between atoms: C_3  and  C_4 
REMARK    4  A    between atoms: C_7  and  O_6 
REMARK    5  A    between atoms: C_9  and  C_10 
REMARK    6  A    between atoms: N_15  and  C_14 
REMARK    7  A    between atoms: N_20  and  C_19 
REMARK       I    between atoms: C_22  and  N_20 
ROOT
ATOM      1  C   LIG d   1      -6.268  92.654 117.724  0.00  0.00     0.161 C 
ATOM      2  C   LIG d   1      -7.047  91.671 117.092  0.00  0.00     0.016 C 
ATOM      3  C   LIG d   1      -6.525  90.440 116.633  0.00  0.00     0.038 C 
ATOM      4  C   LIG d   1      -5.209  90.043 116.913  0.00  0.00     0.028 C 
ATOM      5  C   LIG d   1      -4.251  91.213 117.105  0.00  0.00    -0.047 C 
ATOM      6  C   LIG d   1      -4.855  92.192 118.138  0.00  0.00     0.091 C 
ENDROOT
BRANCH   1   7
ATOM      7  O   LIG d   1      -6.976  93.181 118.864  0.00  0.00    -0.368 OA
BRANCH   7   8
ATOM      8  C   LIG d   1      -8.159  93.965 118.572  0.00  0.00     0.119 C 
BRANCH   8   9
ATOM      9  C   LIG d   1      -7.689  95.364 118.129  0.00  0.00     0.028 C 
ATOM     10  C   LIG d   1      -6.582  95.926 119.036  0.00  0.00     0.006 C 
ENDBRANCH   8   9
BRANCH   8  11
ATOM     11  C   LIG d   1      -8.997  94.200 119.833  0.00  0.00     0.028 C 
ATOM     12  C   LIG d   1      -8.392  93.539 121.081  0.00  0.00     0.006 C 
ENDBRANCH   8  11
ENDBRANCH   7   8
ENDBRANCH   1   7
BRANCH   6  13
ATOM     13  N   LIG d   1      -4.020  93.408 118.322  0.00  0.00    -0.311 N 
ATOM     14  C   LIG d   1      -3.094  93.523 119.272  0.00  0.00     0.210 C 
ATOM     15  C   LIG d   1      -2.361  94.868 119.300  0.00  0.00     0.109 C 
ATOM     16  O   LIG d   1      -2.787  92.628 120.074  0.00  0.00    -0.276 OA
ATOM     17  H   LIG d   1      -4.182  94.171 117.695  0.00  0.00     0.149 HD
ENDBRANCH   6  13
BRANCH   5  18
ATOM     18  N   LIG d   1      -2.950  90.660 117.526  0.00  0.00     0.381 N 
ATOM     19  H   LIG d   1      -3.080  90.037 118.298  0.00  0.00    -0.090 HD
ATOM     20  H   LIG d   1      -2.357  91.414 117.826  0.00  0.00    -0.090 HD
ATOM     21  H   LIG d   1      -2.524  90.174 116.767  0.00  0.00    -0.090 HD
ENDBRANCH   5  18
BRANCH   3  22
ATOM     22  C   LIG d   1      -7.311  89.609 115.850  0.00  0.00     0.382 C 
ATOM     23  O   LIG d   1      -6.896  89.224 114.730  0.00  0.00    -0.241 OA
ATOM     24  O   LIG d   1      -8.450  89.275 116.229  0.00  0.00    -0.241 OA
ENDBRANCH   3  22
TORSDOF 7
ENDMDL
MODEL 7
REMARK VINA RESULT:      -5.1      1.834      2.575
REMARK  7 active torsions:
REMARK  status: ('A' for Active; 'I' for Inactive)
REMARK    1  A    between atoms: C_2  and  C_3 
REMARK    2  A    between atoms: C_3  and  O_6 
REMARK    3  A    between atoms: C_3  and  C_4 
REMARK    4  A    between atoms: C_7  and  O_6 
REMARK    5  A    between atoms: C_9  and  C_10 
REMARK    6  A    between atoms: N_15  and  C_14 
REMARK    7  A    between atoms: N_20  and  C_19 
REMARK       I    between atoms: C_22  and  N_20 
ROOT
ATOM      1  C   LIG d   1      -5.171  92.015 118.578  0.00  0.00     0.161 C 
ATOM      2  C   LIG d   1      -5.551  91.098 117.584  0.00  0.00     0.016 C 
ATOM      3  C   LIG d   1      -6.663  91.289 116.733  0.00  0.00     0.038 C 
ATOM      4  C   LIG d   1      -7.387  92.490 116.717  0.00  0.00     0.028 C 
ATOM      5  C   LIG d   1      -7.352  93.236 118.046  0.00  0.00    -0.047 C 
ATOM      6  C   LIG d   1      -5.882  93.383 118.501  0.00  0.00     0.091 C 
ENDROOT
BRANCH   1   7
ATOM      7  O   LIG d   1      -3.741  92.192 118.559  0.00  0.00    -0.368 OA
BRANCH   7   8
ATOM      8  C   LIG d   1      -3.017  91.649 119.691  0.00  0.00     0.119 C 
BRANCH   8   9
ATOM      9  C   LIG d   1      -2.108  92.767 120.238  0.00  0.00     0.028 C 
ATOM     10  C   LIG d   1      -2.120  94.022 119.349  0.00  0.00     0.006 C 
ENDBRANCH   8   9
BRANCH   8  11
ATOM     11  C   LIG d   1      -2.066  90.529 119.258  0.00  0.00     0.028 C 
ATOM     12  C   LIG d   1      -2.781  89.182 119.068  0.00  0.00     0.006 C 
ENDBRANCH   8  11
ENDBRANCH   7   8
ENDBRANCH   1   7
BRANCH   6  13
ATOM     13  N   LIG d   1      -5.763  94.027 119.835  0.00  0.00    -0.311 N 
ATOM     14  C   LIG d   1      -5.573  95.334 120.003  0.00  0.00     0.210 C 
ATOM     15  C   LIG d   1      -5.458  95.789 121.462  0.00  0.00     0.109 C 
ATOM     16  O   LIG d   1      -5.520  96.166 119.084  0.00  0.00    -0.276 OA
ATOM     17  H   LIG d   1      -5.826  93.431 120.637  0.00  0.00     0.149 HD
ENDBRANCH   6  13
BRANCH   5  18
ATOM     18  N   LIG d   1      -8.028  94.532 117.848  0.00  0.00     0.381 N 
ATOM     19  H   LIG d   1      -8.809  94.605 118.469  0.00  0.00    -0.090 HD
ATOM     20  H   LIG d   1      -8.370  94.579 116.904  0.00  0.00    -0.090 HD
ATOM     21  H   LIG d   1      -7.390  95.279 118.016  0.00  0.00    -0.090 HD
ENDBRANCH   5  18
BRANCH   3  22
ATOM     22  C   LIG d   1      -7.086  90.254 115.912  0.00  0.00     0.382 C 
ATOM     23  O   LIG d   1      -7.936  90.472 115.016  0.00  0.00    -0.241 OA
ATOM     24  O   LIG d   1      -6.660  89.096 116.085  0.00  0.00    -0.241 OA
ENDBRANCH   3  22
TORSDOF 7
ENDMDL
MODEL 8
REMARK VINA RESULT:      -4.9      2.107      4.272
REMARK  7 active torsions:
REMARK  status: ('A' for Active; 'I' for Inactive)
REMARK    1  A    between atoms: C_2  and  C_3 
REMARK    2  A    between atoms: C_3  and  O_6 
REMARK    3  A    between atoms: C_3  and  C_4 
REMARK    4  A    between atoms: C_7  and  O_6 
REMARK    5  A    between atoms: C_9  and  C_10 
REMARK    6  A    between atoms: N_15  and  C_14 
REMARK    7  A    between atoms: N_20  and  C_19 
REMARK       I    between atoms: C_22  and  N_20 
ROOT
ATOM      1  C   LIG d   1      -5.711  92.068 117.775  0.00  0.00     0.161 C 
ATOM      2  C   LIG d   1      -6.649  91.609 116.835  0.00  0.00     0.016 C 
ATOM      3  C   LIG d   1      -6.427  90.495 115.994  0.00  0.00     0.038 C 
ATOM      4  C   LIG d   1      -5.305  89.666 116.142  0.00  0.00     0.028 C 
ATOM      5  C   LIG d   1      -4.096  90.383 116.734  0.00  0.00    -0.047 C 
ATOM      6  C   LIG d   1      -4.528  91.110 118.028  0.00  0.00     0.091 C 
ENDROOT
BRANCH   1   7
ATOM      7  O   LIG d   1      -6.375  92.383 119.014  0.00  0.00    -0.368 OA
BRANCH   7   8
ATOM      8  C   LIG d   1      -6.324  93.770 119.431  0.00  0.00     0.119 C 
BRANCH   8   9
ATOM      9  C   LIG d   1      -5.831  93.797 120.891  0.00  0.00     0.028 C 
ATOM     10  C   LIG d   1      -4.532  94.602 121.057  0.00  0.00     0.006 C 
ENDBRANCH   8   9
BRANCH   8  11
ATOM     11  C   LIG d   1      -7.722  94.395 119.463  0.00  0.00     0.028 C 
ATOM     12  C   LIG d   1      -8.158  94.948 118.097  0.00  0.00     0.006 C 
ENDBRANCH   8  11
ENDBRANCH   7   8
ENDBRANCH   1   7
BRANCH   6  13
ATOM     13  N   LIG d   1      -3.425  91.907 118.626  0.00  0.00    -0.311 N 
ATOM     14  C   LIG d   1      -2.626  91.447 119.587  0.00  0.00     0.210 C 
ATOM     15  C   LIG d   1      -1.566  92.438 120.076  0.00  0.00     0.109 C 
ATOM     16  O   LIG d   1      -2.675  90.301 120.059  0.00  0.00    -0.276 OA
ATOM     17  H   LIG d   1      -3.295  92.837 118.280  0.00  0.00     0.149 HD
ENDBRANCH   6  13
BRANCH   5  18
ATOM     18  N   LIG d   1      -3.046  89.373 116.962  0.00  0.00     0.381 N 
ATOM     19  H   LIG d   1      -3.440  88.455 116.904  0.00  0.00    -0.090 HD
ATOM     20  H   LIG d   1      -2.670  89.497 117.885  0.00  0.00    -0.090 HD
ATOM     21  H   LIG d   1      -2.322  89.475 116.285  0.00  0.00    -0.090 HD
ENDBRANCH   5  18
BRANCH   3  22
ATOM     22  C   LIG d   1      -7.315  90.223 114.964  0.00  0.00     0.382 C 
ATOM     23  O   LIG d   1      -7.961  91.157 114.430  0.00  0.00    -0.241 OA
ATOM     24  O   LIG d   1      -7.512  89.050 114.593  0.00  0.00    -0.241 OA
ENDBRANCH   3  22
TORSDOF 7
ENDMDL
MODEL 9
REMARK VINA RESULT:      -4.7      2.239      4.360
REMARK  7 active torsions:
REMARK  status: ('A' for Active; 'I' for Inactive)
REMARK    1  A    between atoms: C_2  and  C_3 
REMARK    2  A    between atoms: C_3  and  O_6 
REMARK    3  A    between atoms: C_3  and  C_4 
REMARK    4  A    between atoms: C_7  and  O_6 
REMARK    5  A    between atoms: C_9  and  C_10 
REMARK    6  A    between atoms: N_15  and  C_14 
REMARK    7  A    between atoms: N_20  and  C_19 
REMARK       I    between atoms: C_22  and  N_20 
ROOT
ATOM      1  C   LIG d   1      -5.743  92.218 118.358  0.00  0.00     0.161 C 
ATOM      2  C   LIG d   1      -6.692  91.510 117.601  0.00  0.00     0.016 C 
ATOM      3  C   LIG d   1      -6.356  90.451 116.726  0.00  0.00     0.038 C 
ATOM      4  C   LIG d   1      -5.057  89.926 116.662  0.00  0.00     0.028 C 
ATOM      5  C   LIG d   1      -3.976  90.937 117.030  0.00  0.00    -0.047 C 
ATOM      6  C   LIG d   1      -4.336  91.586 118.385  0.00  0.00     0.091 C 
ENDROOT
BRANCH   1   7
ATOM      7  O   LIG d   1      -6.233  92.409 119.700  0.00  0.00    -0.368 OA
BRANCH   7   8
ATOM      8  C   LIG d   1      -6.866  93.684 119.972  0.00  0.00     0.119 C 
BRANCH   8   9
ATOM      9  C   LIG d   1      -6.606  94.598 118.758  0.00  0.00     0.028 C 
ATOM     10  C   LIG d   1      -7.904  95.185 118.178  0.00  0.00     0.006 C 
ENDBRANCH   8   9
BRANCH   8  11
ATOM     11  C   LIG d   1      -6.206  94.391 121.160  0.00  0.00     0.028 C 
ATOM     12  C   LIG d   1      -5.158  95.429 120.729  0.00  0.00     0.006 C 
ENDBRANCH   8  11
ENDBRANCH   7   8
ENDBRANCH   1   7
BRANCH   6  13
ATOM     13  N   LIG d   1      -3.374  92.648 118.778  0.00  0.00    -0.311 N 
ATOM     14  C   LIG d   1      -2.775  92.691 119.967  0.00  0.00     0.210 C 
ATOM     15  C   LIG d   1      -1.834  93.883 120.175  0.00  0.00     0.109 C 
ATOM     16  O   LIG d   1      -2.908  91.839 120.858  0.00  0.00    -0.276 OA
ATOM     17  H   LIG d   1      -3.183  93.363 118.104  0.00  0.00     0.149 HD
ENDBRANCH   6  13
BRANCH   5  18
ATOM     18  N   LIG d   1      -2.686  90.221 117.056  0.00  0.00     0.381 N 
ATOM     19  H   LIG d   1      -2.497  89.832 116.154  0.00  0.00    -0.090 HD
ATOM     20  H   LIG d   1      -2.746  89.467 117.718  0.00  0.00    -0.090 HD
ATOM     21  H   LIG d   1      -1.955  90.845 117.317  0.00  0.00    -0.090 HD
ENDBRANCH   5  18
BRANCH   3  22
ATOM     22  C   LIG d   1      -7.319  89.933 115.873  0.00  0.00     0.382 C 
ATOM     23  O   LIG d   1      -7.738  90.620 114.910  0.00  0.00    -0.241 OA
ATOM     24  O   LIG d   1      -7.805  88.805 116.079  0.00  0.00    -0.241 OA
ENDBRANCH   3  22
TORSDOF 7
ENDMDL
