MODEL 1
REMARK VINA RESULT:      -4.8      0.000      0.000
REMARK  7 active torsions:
REMARK  status: ('A' for Active; 'I' for Inactive)
REMARK    1  A    between atoms: C_2  and  C_3 
REMARK    2  A    between atoms: C_3  and  O_6 
REMARK    3  A    between atoms: C_3  and  C_4 
REMARK    4  A    between atoms: C_7  and  O_6 
REMARK    5  A    between atoms: C_9  and  C_10 
REMARK    6  A    between atoms: N_15  and  C_14 
REMARK    7  A    between atoms: N_20  and  C_19 
REMARK       I    between atoms: C_22  and  N_20 
ROOT
ATOM      1  C   LIG d   1       2.214  91.105 117.013  0.00  0.00     0.161 C 
ATOM      2  C   LIG d   1       1.666  92.199 117.703  0.00  0.00     0.016 C 
ATOM      3  C   LIG d   1       0.301  92.289 118.062  0.00  0.00     0.038 C 
ATOM      4  C   LIG d   1      -0.584  91.215 117.886  0.00  0.00     0.028 C 
ATOM      5  C   LIG d   1      -0.192  90.289 116.740  0.00  0.00    -0.047 C 
ATOM      6  C   LIG d   1       1.287  89.875 116.912  0.00  0.00     0.091 C 
ENDROOT
BRANCH   1   7
ATOM      7  O   LIG d   1       3.474  90.735 117.606  0.00  0.00    -0.368 OA
BRANCH   7   8
ATOM      8  C   LIG d   1       4.657  91.317 117.004  0.00  0.00     0.119 C 
BRANCH   8   9
ATOM      9  C   LIG d   1       5.433  90.178 116.314  0.00  0.00     0.028 C 
ATOM     10  C   LIG d   1       5.210  90.154 114.793  0.00  0.00     0.006 C 
ENDBRANCH   8   9
BRANCH   8  11
ATOM     11  C   LIG d   1       5.609  91.870 118.069  0.00  0.00     0.028 C 
ATOM     12  C   LIG d   1       5.152  93.225 118.631  0.00  0.00     0.006 C 
ENDBRANCH   8  11
ENDBRANCH   7   8
ENDBRANCH   1   7
BRANCH   6  13
ATOM     13  N   LIG d   1       1.776  89.036 115.787  0.00  0.00    -0.311 N 
ATOM     14  C   LIG d   1       2.449  87.899 115.959  0.00  0.00     0.210 C 
ATOM     15  C   LIG d   1       2.877  87.200 114.665  0.00  0.00     0.109 C 
ATOM     16  O   LIG d   1       2.704  87.388 117.059  0.00  0.00    -0.276 OA
ATOM     17  H   LIG d   1       1.585  89.360 114.859  0.00  0.00     0.149 HD
ENDBRANCH   6  13
BRANCH   5  18
ATOM     18  N   LIG d   1      -1.119  89.141 116.758  0.00  0.00     0.381 N 
ATOM     19  H   LIG d   1      -0.967  88.571 115.950  0.00  0.00    -0.090 HD
ATOM     20  H   LIG d   1      -2.063  89.485 116.728  0.00  0.00    -0.090 HD
ATOM     21  H   LIG d   1      -0.980  88.604 117.585  0.00  0.00    -0.090 HD
ENDBRANCH   5  18
BRANCH   3  22
ATOM     22  C   LIG d   1      -0.200  93.480 118.566  0.00  0.00     0.382 C 
ATOM     23  O   LIG d   1      -0.008  93.781 119.769  0.00  0.00    -0.241 OA
ATOM     24  O   LIG d   1      -0.878  94.236 117.846  0.00  0.00    -0.241 OA
ENDBRANCH   3  22
TORSDOF 7
ENDMDL
MODEL 2
REMARK VINA RESULT:      -4.5      1.546      4.810
REMARK  7 active torsions:
REMARK  status: ('A' for Active; 'I' for Inactive)
REMARK    1  A    between atoms: C_2  and  C_3 
REMARK    2  A    between atoms: C_3  and  O_6 
REMARK    3  A    between atoms: C_3  and  C_4 
REMARK    4  A    between atoms: C_7  and  O_6 
REMARK    5  A    between atoms: C_9  and  C_10 
REMARK    6  A    between atoms: N_15  and  C_14 
REMARK    7  A    between atoms: N_20  and  C_19 
REMARK       I    between atoms: C_22  and  N_20 
ROOT
ATOM      1  C   LIG d   1       2.852  89.517 118.189  0.00  0.00     0.161 C 
ATOM      2  C   LIG d   1       3.243  88.385 117.455  0.00  0.00     0.016 C 
ATOM      3  C   LIG d   1       2.482  87.845 116.393  0.00  0.00     0.038 C 
ATOM      4  C   LIG d   1       1.345  88.495 115.890  0.00  0.00     0.028 C 
ATOM      5  C   LIG d   1       0.636  89.363 116.925  0.00  0.00    -0.047 C 
ATOM      6  C   LIG d   1       1.671  90.304 117.583  0.00  0.00     0.091 C 
ENDROOT
BRANCH   1   7
ATOM      7  O   LIG d   1       3.984  90.386 118.387  0.00  0.00    -0.368 OA
BRANCH   7   8
ATOM      8  C   LIG d   1       4.277  91.307 117.308  0.00  0.00     0.119 C 
BRANCH   8   9
ATOM      9  C   LIG d   1       5.646  90.912 116.721  0.00  0.00     0.028 C 
ATOM     10  C   LIG d   1       5.518  90.183 115.373  0.00  0.00     0.006 C 
ENDBRANCH   8   9
BRANCH   8  11
ATOM     11  C   LIG d   1       4.456  92.736 117.829  0.00  0.00     0.028 C 
ATOM     12  C   LIG d   1       4.271  92.844 119.351  0.00  0.00     0.006 C 
ENDBRANCH   8  11
ENDBRANCH   7   8
ENDBRANCH   1   7
BRANCH   6  13
ATOM     13  N   LIG d   1       1.077  91.129 118.667  0.00  0.00    -0.311 N 
ATOM     14  C   LIG d   1       0.619  92.366 118.480  0.00  0.00     0.210 C 
ATOM     15  C   LIG d   1       0.065  93.047 119.736  0.00  0.00     0.109 C 
ATOM     16  O   LIG d   1       0.589  92.951 117.387  0.00  0.00    -0.276 OA
ATOM     17  H   LIG d   1       1.033  90.720 119.580  0.00  0.00     0.149 HD
ENDBRANCH   6  13
BRANCH   5  18
ATOM     18  N   LIG d   1      -0.446  90.087 116.233  0.00  0.00     0.381 N 
ATOM     19  H   LIG d   1      -0.698  89.601 115.396  0.00  0.00    -0.090 HD
ATOM     20  H   LIG d   1      -0.115  91.001 115.978  0.00  0.00    -0.090 HD
ATOM     21  H   LIG d   1      -1.239  90.168 116.831  0.00  0.00    -0.090 HD
ENDBRANCH   5  18
BRANCH   3  22
ATOM     22  C   LIG d   1       2.835  86.620 115.848  0.00  0.00     0.382 C 
ATOM     23  O   LIG d   1       2.999  86.509 114.609  0.00  0.00    -0.241 OA
ATOM     24  O   LIG d   1       2.949  85.615 116.574  0.00  0.00    -0.241 OA
ENDBRANCH   3  22
TORSDOF 7
ENDMDL
MODEL 3
REMARK VINA RESULT:      -4.4      2.408      5.073
REMARK  7 active torsions:
REMARK  status: ('A' for Active; 'I' for Inactive)
REMARK    1  A    between atoms: C_2  and  C_3 
REMARK    2  A    between atoms: C_3  and  O_6 
REMARK    3  A    between atoms: C_3  and  C_4 
REMARK    4  A    between atoms: C_7  and  O_6 
REMARK    5  A    between atoms: C_9  and  C_10 
REMARK    6  A    between atoms: N_15  and  C_14 
REMARK    7  A    between atoms: N_20  and  C_19 
REMARK       I    between atoms: C_22  and  N_20 
ROOT
ATOM      1  C   LIG d   1       2.826  91.817 118.096  0.00  0.00     0.161 C 
ATOM      2  C   LIG d   1       3.350  92.623 119.121  0.00  0.00     0.016 C 
ATOM      3  C   LIG d   1       4.726  92.678 119.440  0.00  0.00     0.038 C 
ATOM      4  C   LIG d   1       5.696  92.042 118.651  0.00  0.00     0.028 C 
ATOM      5  C   LIG d   1       5.169  90.815 117.914  0.00  0.00    -0.047 C 
ATOM      6  C   LIG d   1       3.881  91.202 117.153  0.00  0.00     0.091 C 
ENDROOT
BRANCH   1   7
ATOM      7  O   LIG d   1       1.851  92.563 117.339  0.00  0.00    -0.368 OA
BRANCH   7   8
ATOM      8  C   LIG d   1       0.471  92.153 117.500  0.00  0.00     0.119 C 
BRANCH   8   9
ATOM      9  C   LIG d   1      -0.263  93.282 118.249  0.00  0.00     0.028 C 
ATOM     10  C   LIG d   1      -1.769  93.005 118.398  0.00  0.00     0.006 C 
ENDBRANCH   8   9
BRANCH   8  11
ATOM     11  C   LIG d   1       0.356  90.924 118.406  0.00  0.00     0.028 C 
ATOM     12  C   LIG d   1      -0.165  89.682 117.664  0.00  0.00     0.006 C 
ENDBRANCH   8  11
ENDBRANCH   7   8
ENDBRANCH   1   7
BRANCH   6  13
ATOM     13  N   LIG d   1       3.253  90.039 116.474  0.00  0.00    -0.311 N 
ATOM     14  C   LIG d   1       3.451  89.745 115.190  0.00  0.00     0.210 C 
ATOM     15  C   LIG d   1       2.692  88.514 114.683  0.00  0.00     0.109 C 
ATOM     16  O   LIG d   1       4.209  90.368 114.431  0.00  0.00    -0.276 OA
ATOM     17  H   LIG d   1       2.647  89.462 117.024  0.00  0.00     0.149 HD
ENDBRANCH   6  13
BRANCH   5  18
ATOM     18  N   LIG d   1       6.243  90.333 117.026  0.00  0.00     0.381 N 
ATOM     19  H   LIG d   1       7.063  90.134 117.563  0.00  0.00    -0.090 HD
ATOM     20  H   LIG d   1       6.467  91.055 116.364  0.00  0.00    -0.090 HD
ATOM     21  H   LIG d   1       5.945  89.513 116.545  0.00  0.00    -0.090 HD
ENDBRANCH   5  18
BRANCH   3  22
ATOM     22  C   LIG d   1       5.140  93.344 120.583  0.00  0.00     0.382 C 
ATOM     23  O   LIG d   1       5.880  92.763 121.414  0.00  0.00    -0.241 OA
ATOM     24  O   LIG d   1       4.748  94.503 120.816  0.00  0.00    -0.241 OA
ENDBRANCH   3  22
TORSDOF 7
ENDMDL
MODEL 4
REMARK VINA RESULT:      -4.4      4.835      8.758
REMARK  7 active torsions:
REMARK  status: ('A' for Active; 'I' for Inactive)
REMARK    1  A    between atoms: C_2  and  C_3 
REMARK    2  A    between atoms: C_3  and  O_6 
REMARK    3  A    between atoms: C_3  and  C_4 
REMARK    4  A    between atoms: C_7  and  O_6 
REMARK    5  A    between atoms: C_9  and  C_10 
REMARK    6  A    between atoms: N_15  and  C_14 
REMARK    7  A    between atoms: N_20  and  C_19 
REMARK       I    between atoms: C_22  and  N_20 
ROOT
ATOM      1  C   LIG d   1      -3.719  92.043 117.938  0.00  0.00     0.161 C 
ATOM      2  C   LIG d   1      -2.818  91.014 117.616  0.00  0.00     0.016 C 
ATOM      3  C   LIG d   1      -1.698  90.682 118.413  0.00  0.00     0.038 C 
ATOM      4  C   LIG d   1      -1.487  91.262 119.673  0.00  0.00     0.028 C 
ATOM      5  C   LIG d   1      -2.087  92.658 119.805  0.00  0.00    -0.047 C 
ATOM      6  C   LIG d   1      -3.568  92.612 119.364  0.00  0.00     0.091 C 
ENDROOT
BRANCH   1   7
ATOM      7  O   LIG d   1      -5.071  91.595 117.718  0.00  0.00    -0.368 OA
BRANCH   7   8
ATOM      8  C   LIG d   1      -5.650  91.922 116.431  0.00  0.00     0.119 C 
BRANCH   8   9
ATOM      9  C   LIG d   1      -7.144  92.221 116.658  0.00  0.00     0.028 C 
ATOM     10  C   LIG d   1      -7.372  93.286 117.744  0.00  0.00     0.006 C 
ENDBRANCH   8   9
BRANCH   8  11
ATOM     11  C   LIG d   1      -5.616  90.719 115.483  0.00  0.00     0.028 C 
ATOM     12  C   LIG d   1      -6.739  90.756 114.435  0.00  0.00     0.006 C 
ENDBRANCH   8  11
ENDBRANCH   7   8
ENDBRANCH   1   7
BRANCH   6  13
ATOM     13  N   LIG d   1      -4.207  93.953 119.384  0.00  0.00    -0.311 N 
ATOM     14  C   LIG d   1      -4.874  94.433 120.432  0.00  0.00     0.210 C 
ATOM     15  C   LIG d   1      -5.472  95.829 120.234  0.00  0.00     0.109 C 
ATOM     16  O   LIG d   1      -5.001  93.847 121.518  0.00  0.00    -0.276 OA
ATOM     17  H   LIG d   1      -4.127  94.509 118.554  0.00  0.00     0.149 HD
ENDBRANCH   6  13
BRANCH   5  18
ATOM     18  N   LIG d   1      -1.914  93.086 121.206  0.00  0.00     0.381 N 
ATOM     19  H   LIG d   1      -1.967  94.083 121.265  0.00  0.00    -0.090 HD
ATOM     20  H   LIG d   1      -1.004  92.800 121.524  0.00  0.00    -0.090 HD
ATOM     21  H   LIG d   1      -2.618  92.674 121.778  0.00  0.00    -0.090 HD
ENDBRANCH   5  18
BRANCH   3  22
ATOM     22  C   LIG d   1      -0.753  89.789 117.932  0.00  0.00     0.382 C 
ATOM     23  O   LIG d   1      -0.965  89.167 116.863  0.00  0.00    -0.241 OA
ATOM     24  O   LIG d   1       0.289  89.565 118.576  0.00  0.00    -0.241 OA
ENDBRANCH   3  22
TORSDOF 7
ENDMDL
MODEL 5
REMARK VINA RESULT:      -4.2      1.628      2.419
REMARK  7 active torsions:
REMARK  status: ('A' for Active; 'I' for Inactive)
REMARK    1  A    between atoms: C_2  and  C_3 
REMARK    2  A    between atoms: C_3  and  O_6 
REMARK    3  A    between atoms: C_3  and  C_4 
REMARK    4  A    between atoms: C_7  and  O_6 
REMARK    5  A    between atoms: C_9  and  C_10 
REMARK    6  A    between atoms: N_15  and  C_14 
REMARK    7  A    between atoms: N_20  and  C_19 
REMARK       I    between atoms: C_22  and  N_20 
ROOT
ATOM      1  C   LIG d   1       1.983  90.993 117.180  0.00  0.00     0.161 C 
ATOM      2  C   LIG d   1       1.385  92.152 117.703  0.00  0.00     0.016 C 
ATOM      3  C   LIG d   1       0.777  92.206 118.978  0.00  0.00     0.038 C 
ATOM      4  C   LIG d   1       0.858  91.138 119.884  0.00  0.00     0.028 C 
ATOM      5  C   LIG d   1       1.012  89.780 119.208  0.00  0.00    -0.047 C 
ATOM      6  C   LIG d   1       2.180  89.851 118.199  0.00  0.00     0.091 C 
ENDROOT
BRANCH   1   7
ATOM      7  O   LIG d   1       3.238  91.330 116.556  0.00  0.00    -0.368 OA
BRANCH   7   8
ATOM      8  C   LIG d   1       4.396  91.357 117.427  0.00  0.00     0.119 C 
BRANCH   8   9
ATOM      9  C   LIG d   1       4.655  92.828 117.807  0.00  0.00     0.028 C 
ATOM     10  C   LIG d   1       4.674  93.046 119.330  0.00  0.00     0.006 C 
ENDBRANCH   8   9
BRANCH   8  11
ATOM     11  C   LIG d   1       5.658  90.900 116.690  0.00  0.00     0.028 C 
ATOM     12  C   LIG d   1       5.348  90.152 115.384  0.00  0.00     0.006 C 
ENDBRANCH   8  11
ENDBRANCH   7   8
ENDBRANCH   1   7
BRANCH   6  13
ATOM     13  N   LIG d   1       2.345  88.588 117.433  0.00  0.00    -0.311 N 
ATOM     14  C   LIG d   1       3.421  87.809 117.526  0.00  0.00     0.210 C 
ATOM     15  C   LIG d   1       3.397  86.563 116.634  0.00  0.00     0.109 C 
ATOM     16  O   LIG d   1       4.379  88.014 118.287  0.00  0.00    -0.276 OA
ATOM     17  H   LIG d   1       1.601  88.330 116.814  0.00  0.00     0.149 HD
ENDBRANCH   6  13
BRANCH   5  18
ATOM     18  N   LIG d   1       1.223  88.776 120.268  0.00  0.00     0.381 N 
ATOM     19  H   LIG d   1       1.833  89.147 120.969  0.00  0.00    -0.090 HD
ATOM     20  H   LIG d   1       1.662  87.966 119.866  0.00  0.00    -0.090 HD
ATOM     21  H   LIG d   1       0.351  88.522 120.677  0.00  0.00    -0.090 HD
ENDBRANCH   5  18
BRANCH   3  22
ATOM     22  C   LIG d   1       0.042  93.324 119.342  0.00  0.00     0.382 C 
ATOM     23  O   LIG d   1       0.083  93.744 120.523  0.00  0.00    -0.241 OA
ATOM     24  O   LIG d   1      -0.696  93.892 118.514  0.00  0.00    -0.241 OA
ENDBRANCH   3  22
TORSDOF 7
ENDMDL
MODEL 6
REMARK VINA RESULT:      -4.2      2.583      4.265
REMARK  7 active torsions:
REMARK  status: ('A' for Active; 'I' for Inactive)
REMARK    1  A    between atoms: C_2  and  C_3 
REMARK    2  A    between atoms: C_3  and  O_6 
REMARK    3  A    between atoms: C_3  and  C_4 
REMARK    4  A    between atoms: C_7  and  O_6 
REMARK    5  A    between atoms: C_9  and  C_10 
REMARK    6  A    between atoms: N_15  and  C_14 
REMARK    7  A    between atoms: N_20  and  C_19 
REMARK       I    between atoms: C_22  and  N_20 
ROOT
ATOM      1  C   LIG d   1       3.706  90.831 116.951  0.00  0.00     0.161 C 
ATOM      2  C   LIG d   1       2.432  91.414 117.056  0.00  0.00     0.016 C 
ATOM      3  C   LIG d   1       2.012  92.170 118.174  0.00  0.00     0.038 C 
ATOM      4  C   LIG d   1       2.896  92.525 119.204  0.00  0.00     0.028 C 
ATOM      5  C   LIG d   1       4.044  91.537 119.384  0.00  0.00    -0.047 C 
ATOM      6  C   LIG d   1       4.721  91.300 118.015  0.00  0.00     0.091 C 
ENDROOT
BRANCH   1   7
ATOM      7  O   LIG d   1       4.234  91.044 115.627  0.00  0.00    -0.368 OA
BRANCH   7   8
ATOM      8  C   LIG d   1       4.229  89.893 114.747  0.00  0.00     0.119 C 
BRANCH   8   9
ATOM      9  C   LIG d   1       3.540  88.738 115.499  0.00  0.00     0.028 C 
ATOM     10  C   LIG d   1       2.251  88.270 114.802  0.00  0.00     0.006 C 
ENDBRANCH   8   9
BRANCH   8  11
ATOM     11  C   LIG d   1       5.651  89.402 114.463  0.00  0.00     0.028 C 
ATOM     12  C   LIG d   1       5.969  88.065 115.153  0.00  0.00     0.006 C 
ENDBRANCH   8  11
ENDBRANCH   7   8
ENDBRANCH   1   7
BRANCH   6  13
ATOM     13  N   LIG d   1       5.802  90.282 118.086  0.00  0.00    -0.311 N 
ATOM     14  C   LIG d   1       7.070  90.536 117.770  0.00  0.00     0.210 C 
ATOM     15  C   LIG d   1       8.019  89.340 117.894  0.00  0.00     0.109 C 
ATOM     16  O   LIG d   1       7.506  91.646 117.430  0.00  0.00    -0.276 OA
ATOM     17  H   LIG d   1       5.542  89.362 118.382  0.00  0.00     0.149 HD
ENDBRANCH   6  13
BRANCH   5  18
ATOM     18  N   LIG d   1       4.961  92.099 120.393  0.00  0.00     0.381 N 
ATOM     19  H   LIG d   1       5.071  91.452 121.148  0.00  0.00    -0.090 HD
ATOM     20  H   LIG d   1       4.562  92.946 120.759  0.00  0.00    -0.090 HD
ATOM     21  H   LIG d   1       5.847  92.292 119.979  0.00  0.00    -0.090 HD
ENDBRANCH   5  18
BRANCH   3  22
ATOM     22  C   LIG d   1       0.682  92.547 118.288  0.00  0.00     0.382 C 
ATOM     23  O   LIG d   1       0.170  93.305 117.430  0.00  0.00    -0.241 OA
ATOM     24  O   LIG d   1       0.002  92.174 119.262  0.00  0.00    -0.241 OA
ENDBRANCH   3  22
TORSDOF 7
ENDMDL
MODEL 7
REMARK VINA RESULT:      -3.9      2.672      3.909
REMARK  7 active torsions:
REMARK  status: ('A' for Active; 'I' for Inactive)
REMARK    1  A    between atoms: C_2  and  C_3 
REMARK    2  A    between atoms: C_3  and  O_6 
REMARK    3  A    between atoms: C_3  and  C_4 
REMARK    4  A    between atoms: C_7  and  O_6 
REMARK    5  A    between atoms: C_9  and  C_10 
REMARK    6  A    between atoms: N_15  and  C_14 
REMARK    7  A    between atoms: N_20  and  C_19 
REMARK       I    between atoms: C_22  and  N_20 
ROOT
ATOM      1  C   LIG d   1       1.670  89.323 117.175  0.00  0.00     0.161 C 
ATOM      2  C   LIG d   1       0.322  89.589 116.887  0.00  0.00     0.016 C 
ATOM      3  C   LIG d   1      -0.621  89.978 117.866  0.00  0.00     0.038 C 
ATOM      4  C   LIG d   1      -0.243  90.275 119.183  0.00  0.00     0.028 C 
ATOM      5  C   LIG d   1       1.011  89.534 119.635  0.00  0.00    -0.047 C 
ATOM      6  C   LIG d   1       2.126  89.749 118.586  0.00  0.00     0.091 C 
ENDROOT
BRANCH   1   7
ATOM      7  O   LIG d   1       2.513  89.926 116.173  0.00  0.00    -0.368 OA
BRANCH   7   8
ATOM      8  C   LIG d   1       2.900  89.072 115.068  0.00  0.00     0.119 C 
BRANCH   8   9
ATOM      9  C   LIG d   1       3.203  87.676 115.645  0.00  0.00     0.028 C 
ATOM     10  C   LIG d   1       2.776  86.543 114.697  0.00  0.00     0.006 C 
ENDBRANCH   8   9
BRANCH   8  11
ATOM     11  C   LIG d   1       4.212  89.542 114.433  0.00  0.00     0.028 C 
ATOM     12  C   LIG d   1       5.373  89.597 115.438  0.00  0.00     0.006 C 
ENDBRANCH   8  11
ENDBRANCH   7   8
ENDBRANCH   1   7
BRANCH   6  13
ATOM     13  N   LIG d   1       3.362  88.988 118.909  0.00  0.00    -0.311 N 
ATOM     14  C   LIG d   1       4.417  89.527 119.517  0.00  0.00     0.210 C 
ATOM     15  C   LIG d   1       5.594  88.572 119.737  0.00  0.00     0.109 C 
ATOM     16  O   LIG d   1       4.477  90.697 119.924  0.00  0.00    -0.276 OA
ATOM     17  H   LIG d   1       3.386  88.024 118.641  0.00  0.00     0.149 HD
ENDBRANCH   6  13
BRANCH   5  18
ATOM     18  N   LIG d   1       1.370  90.039 120.973  0.00  0.00     0.381 N 
ATOM     19  H   LIG d   1       0.691  90.708 121.276  0.00  0.00    -0.090 HD
ATOM     20  H   LIG d   1       2.262  90.499 120.918  0.00  0.00    -0.090 HD
ATOM     21  H   LIG d   1       1.417  89.284 121.622  0.00  0.00    -0.090 HD
ENDBRANCH   5  18
BRANCH   3  22
ATOM     22  C   LIG d   1      -1.968  90.035 117.539  0.00  0.00     0.382 C 
ATOM     23  O   LIG d   1      -2.462  89.178 116.767  0.00  0.00    -0.241 OA
ATOM     24  O   LIG d   1      -2.684  90.957 117.971  0.00  0.00    -0.241 OA
ENDBRANCH   3  22
TORSDOF 7
ENDMDL
MODEL 8
REMARK VINA RESULT:      -3.9      2.502      6.069
REMARK  7 active torsions:
REMARK  status: ('A' for Active; 'I' for Inactive)
REMARK    1  A    between atoms: C_2  and  C_3 
REMARK    2  A    between atoms: C_3  and  O_6 
REMARK    3  A    between atoms: C_3  and  C_4 
REMARK    4  A    between atoms: C_7  and  O_6 
REMARK    5  A    between atoms: C_9  and  C_10 
REMARK    6  A    between atoms: N_15  and  C_14 
REMARK    7  A    between atoms: N_20  and  C_19 
REMARK       I    between atoms: C_22  and  N_20 
ROOT
ATOM      1  C   LIG d   1       2.946  91.037 117.430  0.00  0.00     0.161 C 
ATOM      2  C   LIG d   1       4.237  90.612 117.075  0.00  0.00     0.016 C 
ATOM      3  C   LIG d   1       5.406  91.014 117.763  0.00  0.00     0.038 C 
ATOM      4  C   LIG d   1       5.348  91.754 118.953  0.00  0.00     0.028 C 
ATOM      5  C   LIG d   1       4.102  92.625 119.065  0.00  0.00    -0.047 C 
ATOM      6  C   LIG d   1       2.854  91.754 118.794  0.00  0.00     0.091 C 
ENDROOT
BRANCH   1   7
ATOM      7  O   LIG d   1       2.036  89.920 117.389  0.00  0.00    -0.368 OA
BRANCH   7   8
ATOM      8  C   LIG d   1       1.123  89.883 116.264  0.00  0.00     0.119 C 
BRANCH   8   9
ATOM      9  C   LIG d   1      -0.300  90.093 116.816  0.00  0.00     0.028 C 
ATOM     10  C   LIG d   1      -0.434  89.642 118.280  0.00  0.00     0.006 C 
ENDBRANCH   8   9
BRANCH   8  11
ATOM     11  C   LIG d   1       1.104  88.500 115.607  0.00  0.00     0.028 C 
ATOM     12  C   LIG d   1       2.431  87.743 115.774  0.00  0.00     0.006 C 
ENDBRANCH   8  11
ENDBRANCH   7   8
ENDBRANCH   1   7
BRANCH   6  13
ATOM     13  N   LIG d   1       1.597  92.547 118.800  0.00  0.00    -0.311 N 
ATOM     14  C   LIG d   1       0.838  92.710 119.883  0.00  0.00     0.210 C 
ATOM     15  C   LIG d   1      -0.426  93.547 119.667  0.00  0.00     0.109 C 
ATOM     16  O   LIG d   1       1.110  92.267 121.009  0.00  0.00    -0.276 OA
ATOM     17  H   LIG d   1       1.318  92.967 117.935  0.00  0.00     0.149 HD
ENDBRANCH   6  13
BRANCH   5  18
ATOM     18  N   LIG d   1       4.101  93.232 120.409  0.00  0.00     0.381 N 
ATOM     19  H   LIG d   1       4.756  93.988 120.440  0.00  0.00    -0.090 HD
ATOM     20  H   LIG d   1       4.388  92.540 121.079  0.00  0.00    -0.090 HD
ATOM     21  H   LIG d   1       3.189  93.564 120.634  0.00  0.00    -0.090 HD
ENDBRANCH   5  18
BRANCH   3  22
ATOM     22  C   LIG d   1       6.652  90.709 117.236  0.00  0.00     0.382 C 
ATOM     23  O   LIG d   1       7.632  91.457 117.472  0.00  0.00    -0.241 OA
ATOM     24  O   LIG d   1       6.799  89.721 116.493  0.00  0.00    -0.241 OA
ENDBRANCH   3  22
TORSDOF 7
ENDMDL
MODEL 9
REMARK VINA RESULT:      -3.8      2.090      5.234
REMARK  7 active torsions:
REMARK  status: ('A' for Active; 'I' for Inactive)
REMARK    1  A    between atoms: C_2  and  C_3 
REMARK    2  A    between atoms: C_3  and  O_6 
REMARK    3  A    between atoms: C_3  and  C_4 
REMARK    4  A    between atoms: C_7  and  O_6 
REMARK    5  A    between atoms: C_9  and  C_10 
REMARK    6  A    between atoms: N_15  and  C_14 
REMARK    7  A    between atoms: N_20  and  C_19 
REMARK       I    between atoms: C_22  and  N_20 
ROOT
ATOM      1  C   LIG d   1       4.025  91.712 117.795  0.00  0.00     0.161 C 
ATOM      2  C   LIG d   1       4.906  90.965 116.996  0.00  0.00     0.016 C 
ATOM      3  C   LIG d   1       4.477  90.005 116.051  0.00  0.00     0.038 C 
ATOM      4  C   LIG d   1       3.121  89.834 115.731  0.00  0.00     0.028 C 
ATOM      5  C   LIG d   1       2.179  90.206 116.870  0.00  0.00    -0.047 C 
ATOM      6  C   LIG d   1       2.541  91.619 117.381  0.00  0.00     0.091 C 
ENDROOT
BRANCH   1   7
ATOM      7  O   LIG d   1       4.449  93.089 117.835  0.00  0.00    -0.368 OA
BRANCH   7   8
ATOM      8  C   LIG d   1       5.004  93.548 119.091  0.00  0.00     0.119 C 
BRANCH   8   9
ATOM      9  C   LIG d   1       6.518  93.747 118.883  0.00  0.00     0.028 C 
ATOM     10  C   LIG d   1       7.343  92.556 119.398  0.00  0.00     0.006 C 
ENDBRANCH   8   9
BRANCH   8  11
ATOM     11  C   LIG d   1       4.882  92.477 120.179  0.00  0.00     0.028 C 
ATOM     12  C   LIG d   1       3.956  92.901 121.331  0.00  0.00     0.006 C 
ENDBRANCH   8  11
ENDBRANCH   7   8
ENDBRANCH   1   7
BRANCH   6  13
ATOM     13  N   LIG d   1       1.721  92.026 118.552  0.00  0.00    -0.311 N 
ATOM     14  C   LIG d   1       0.613  92.759 118.452  0.00  0.00     0.210 C 
ATOM     15  C   LIG d   1      -0.069  93.084 119.784  0.00  0.00     0.109 C 
ATOM     16  O   LIG d   1       0.114  93.143 117.384  0.00  0.00    -0.276 OA
ATOM     17  H   LIG d   1       2.037  91.731 119.455  0.00  0.00     0.149 HD
ENDBRANCH   6  13
BRANCH   5  18
ATOM     18  N   LIG d   1       0.799  90.113 116.356  0.00  0.00     0.381 N 
ATOM     19  H   LIG d   1       0.694  90.709 115.559  0.00  0.00    -0.090 HD
ATOM     20  H   LIG d   1       0.165  90.426 117.069  0.00  0.00    -0.090 HD
ATOM     21  H   LIG d   1       0.591  89.171 116.105  0.00  0.00    -0.090 HD
ENDBRANCH   5  18
BRANCH   3  22
ATOM     22  C   LIG d   1       5.406  89.175 115.443  0.00  0.00     0.382 C 
ATOM     23  O   LIG d   1       5.054  88.420 114.505  0.00  0.00    -0.241 OA
ATOM     24  O   LIG d   1       6.583  89.139 115.851  0.00  0.00    -0.241 OA
ENDBRANCH   3  22
TORSDOF 7
ENDMDL
