MODEL 1
REMARK VINA RESULT:      -4.3      0.000      0.000
REMARK  7 active torsions:
REMARK  status: ('A' for Active; 'I' for Inactive)
REMARK    1  A    between atoms: C_2  and  C_3 
REMARK    2  A    between atoms: C_3  and  O_6 
REMARK    3  A    between atoms: C_3  and  C_4 
REMARK    4  A    between atoms: C_7  and  O_6 
REMARK    5  A    between atoms: C_9  and  C_10 
REMARK    6  A    between atoms: N_15  and  C_14 
REMARK    7  A    between atoms: N_20  and  C_19 
REMARK       I    between atoms: C_22  and  N_20 
ROOT
ATOM      1  C   LIG d   1       2.823  90.114 116.873  0.00  0.00     0.161 C 
ATOM      2  C   LIG d   1       4.124  89.670 116.581  0.00  0.00     0.016 C 
ATOM      3  C   LIG d   1       5.287  90.249 117.140  0.00  0.00     0.038 C 
ATOM      4  C   LIG d   1       5.220  91.219 118.151  0.00  0.00     0.028 C 
ATOM      5  C   LIG d   1       3.941  92.050 118.110  0.00  0.00    -0.047 C 
ATOM      6  C   LIG d   1       2.725  91.097 118.058  0.00  0.00     0.091 C 
ENDROOT
BRANCH   1   7
ATOM      7  O   LIG d   1       1.958  88.981 117.088  0.00  0.00    -0.368 OA
BRANCH   7   8
ATOM      8  C   LIG d   1       2.564  87.676 116.925  0.00  0.00     0.119 C 
BRANCH   8   9
ATOM      9  C   LIG d   1       1.801  86.948 115.801  0.00  0.00     0.028 C 
ATOM     10  C   LIG d   1       2.714  86.568 114.623  0.00  0.00     0.006 C 
ENDBRANCH   8   9
BRANCH   8  11
ATOM     11  C   LIG d   1       2.368  86.810 118.174  0.00  0.00     0.028 C 
ATOM     12  C   LIG d   1       1.329  85.697 117.970  0.00  0.00     0.006 C 
ENDBRANCH   8  11
ENDBRANCH   7   8
ENDBRANCH   1   7
BRANCH   6  13
ATOM     13  N   LIG d   1       1.437  91.828 117.931  0.00  0.00    -0.311 N 
ATOM     14  C   LIG d   1       0.706  92.211 118.976  0.00  0.00     0.210 C 
ATOM     15  C   LIG d   1      -0.598  92.934 118.622  0.00  0.00     0.109 C 
ATOM     16  O   LIG d   1       1.028  92.049 120.162  0.00  0.00    -0.276 OA
ATOM     17  H   LIG d   1       1.116  92.028 117.004  0.00  0.00     0.149 HD
ENDBRANCH   6  13
BRANCH   5  18
ATOM     18  N   LIG d   1       3.940  92.925 119.297  0.00  0.00     0.381 N 
ATOM     19  H   LIG d   1       3.001  93.183 119.527  0.00  0.00    -0.090 HD
ATOM     20  H   LIG d   1       4.454  93.761 119.085  0.00  0.00    -0.090 HD
ATOM     21  H   LIG d   1       4.360  92.454 120.068  0.00  0.00    -0.090 HD
ENDBRANCH   5  18
BRANCH   3  22
ATOM     22  C   LIG d   1       6.535  89.886 116.658  0.00  0.00     0.382 C 
ATOM     23  O   LIG d   1       6.631  89.009 115.765  0.00  0.00    -0.241 OA
ATOM     24  O   LIG d   1       7.568  90.391 117.135  0.00  0.00    -0.241 OA
ENDBRANCH   3  22
TORSDOF 7
ENDMDL
MODEL 2
REMARK VINA RESULT:      -4.3      2.059      4.998
REMARK  7 active torsions:
REMARK  status: ('A' for Active; 'I' for Inactive)
REMARK    1  A    between atoms: C_2  and  C_3 
REMARK    2  A    between atoms: C_3  and  O_6 
REMARK    3  A    between atoms: C_3  and  C_4 
REMARK    4  A    between atoms: C_7  and  O_6 
REMARK    5  A    between atoms: C_9  and  C_10 
REMARK    6  A    between atoms: N_15  and  C_14 
REMARK    7  A    between atoms: N_20  and  C_19 
REMARK       I    between atoms: C_22  and  N_20 
ROOT
ATOM      1  C   LIG d   1       3.561  90.760 117.489  0.00  0.00     0.161 C 
ATOM      2  C   LIG d   1       2.300  91.352 117.668  0.00  0.00     0.016 C 
ATOM      3  C   LIG d   1       2.002  92.244 118.725  0.00  0.00     0.038 C 
ATOM      4  C   LIG d   1       2.995  92.724 119.591  0.00  0.00     0.028 C 
ATOM      5  C   LIG d   1       4.169  91.766 119.757  0.00  0.00    -0.047 C 
ATOM      6  C   LIG d   1       4.686  91.358 118.359  0.00  0.00     0.091 C 
ENDROOT
BRANCH   1   7
ATOM      7  O   LIG d   1       3.928  90.805 116.095  0.00  0.00    -0.368 OA
BRANCH   7   8
ATOM      8  C   LIG d   1       3.951  89.533 115.402  0.00  0.00     0.119 C 
BRANCH   8   9
ATOM      9  C   LIG d   1       3.505  88.450 116.404  0.00  0.00     0.028 C 
ATOM     10  C   LIG d   1       2.199  87.760 115.979  0.00  0.00     0.006 C 
ENDBRANCH   8   9
BRANCH   8  11
ATOM     11  C   LIG d   1       5.376  89.146 114.995  0.00  0.00     0.028 C 
ATOM     12  C   LIG d   1       5.913  87.938 115.778  0.00  0.00     0.006 C 
ENDBRANCH   8  11
ENDBRANCH   7   8
ENDBRANCH   1   7
BRANCH   6  13
ATOM     13  N   LIG d   1       5.781  90.356 118.429  0.00  0.00    -0.311 N 
ATOM     14  C   LIG d   1       7.073  90.682 118.453  0.00  0.00     0.210 C 
ATOM     15  C   LIG d   1       8.038  89.493 118.506  0.00  0.00     0.109 C 
ATOM     16  O   LIG d   1       7.509  91.842 118.467  0.00  0.00    -0.276 OA
ATOM     17  H   LIG d   1       5.516  89.391 118.452  0.00  0.00     0.149 HD
ENDBRANCH   6  13
BRANCH   5  18
ATOM     18  N   LIG d   1       5.190  92.449 120.574  0.00  0.00     0.381 N 
ATOM     19  H   LIG d   1       5.756  93.032 119.991  0.00  0.00    -0.090 HD
ATOM     20  H   LIG d   1       5.783  91.757 120.999  0.00  0.00    -0.090 HD
ATOM     21  H   LIG d   1       4.751  92.998 121.280  0.00  0.00    -0.090 HD
ENDBRANCH   5  18
BRANCH   3  22
ATOM     22  C   LIG d   1       0.690  92.633 118.946  0.00  0.00     0.382 C 
ATOM     23  O   LIG d   1      -0.254  91.954 118.474  0.00  0.00    -0.241 OA
ATOM     24  O   LIG d   1       0.438  93.679 119.574  0.00  0.00    -0.241 OA
ENDBRANCH   3  22
TORSDOF 7
ENDMDL
MODEL 3
REMARK VINA RESULT:      -4.2      2.158      2.782
REMARK  7 active torsions:
REMARK  status: ('A' for Active; 'I' for Inactive)
REMARK    1  A    between atoms: C_2  and  C_3 
REMARK    2  A    between atoms: C_3  and  O_6 
REMARK    3  A    between atoms: C_3  and  C_4 
REMARK    4  A    between atoms: C_7  and  O_6 
REMARK    5  A    between atoms: C_9  and  C_10 
REMARK    6  A    between atoms: N_15  and  C_14 
REMARK    7  A    between atoms: N_20  and  C_19 
REMARK       I    between atoms: C_22  and  N_20 
ROOT
ATOM      1  C   LIG d   1       3.174  92.208 117.785  0.00  0.00     0.161 C 
ATOM      2  C   LIG d   1       4.550  92.046 118.015  0.00  0.00     0.016 C 
ATOM      3  C   LIG d   1       5.154  92.225 119.281  0.00  0.00     0.038 C 
ATOM      4  C   LIG d   1       4.394  92.432 120.442  0.00  0.00     0.028 C 
ATOM      5  C   LIG d   1       3.051  93.102 120.175  0.00  0.00    -0.047 C 
ATOM      6  C   LIG d   1       2.314  92.325 119.061  0.00  0.00     0.091 C 
ENDROOT
BRANCH   1   7
ATOM      7  O   LIG d   1       2.688  91.138 116.950  0.00  0.00    -0.368 OA
BRANCH   7   8
ATOM      8  C   LIG d   1       3.526  89.958 116.875  0.00  0.00     0.119 C 
BRANCH   8   9
ATOM      9  C   LIG d   1       3.622  89.552 115.392  0.00  0.00     0.028 C 
ATOM     10  C   LIG d   1       5.074  89.506 114.888  0.00  0.00     0.006 C 
ENDBRANCH   8   9
BRANCH   8  11
ATOM     11  C   LIG d   1       2.874  88.765 117.581  0.00  0.00     0.028 C 
ATOM     12  C   LIG d   1       3.637  88.329 118.842  0.00  0.00     0.006 C 
ENDBRANCH   8  11
ENDBRANCH   7   8
ENDBRANCH   1   7
BRANCH   6  13
ATOM     13  N   LIG d   1       1.027  92.963 118.680  0.00  0.00    -0.311 N 
ATOM     14  C   LIG d   1      -0.137  92.670 119.257  0.00  0.00     0.210 C 
ATOM     15  C   LIG d   1      -1.345  93.429 118.700  0.00  0.00     0.109 C 
ATOM     16  O   LIG d   1      -0.278  91.876 120.199  0.00  0.00    -0.276 OA
ATOM     17  H   LIG d   1       1.055  93.642 117.944  0.00  0.00     0.149 HD
ENDBRANCH   6  13
BRANCH   5  18
ATOM     18  N   LIG d   1       2.307  93.132 121.449  0.00  0.00     0.381 N 
ATOM     19  H   LIG d   1       1.330  93.000 121.274  0.00  0.00    -0.090 HD
ATOM     20  H   LIG d   1       2.431  94.032 121.877  0.00  0.00    -0.090 HD
ATOM     21  H   LIG d   1       2.642  92.418 122.057  0.00  0.00    -0.090 HD
ENDBRANCH   5  18
BRANCH   3  22
ATOM     22  C   LIG d   1       6.536  92.236 119.388  0.00  0.00     0.382 C 
ATOM     23  O   LIG d   1       7.167  93.309 119.233  0.00  0.00    -0.241 OA
ATOM     24  O   LIG d   1       7.163  91.180 119.592  0.00  0.00    -0.241 OA
ENDBRANCH   3  22
TORSDOF 7
ENDMDL
MODEL 4
REMARK VINA RESULT:      -3.9      2.566      4.943
REMARK  7 active torsions:
REMARK  status: ('A' for Active; 'I' for Inactive)
REMARK    1  A    between atoms: C_2  and  C_3 
REMARK    2  A    between atoms: C_3  and  O_6 
REMARK    3  A    between atoms: C_3  and  C_4 
REMARK    4  A    between atoms: C_7  and  O_6 
REMARK    5  A    between atoms: C_9  and  C_10 
REMARK    6  A    between atoms: N_15  and  C_14 
REMARK    7  A    between atoms: N_20  and  C_19 
REMARK       I    between atoms: C_22  and  N_20 
ROOT
ATOM      1  C   LIG d   1       4.578  90.946 119.444  0.00  0.00     0.161 C 
ATOM      2  C   LIG d   1       5.365  90.487 118.374  0.00  0.00     0.016 C 
ATOM      3  C   LIG d   1       4.865  90.301 117.065  0.00  0.00     0.038 C 
ATOM      4  C   LIG d   1       3.573  90.707 116.699  0.00  0.00     0.028 C 
ATOM      5  C   LIG d   1       2.586  90.705 117.862  0.00  0.00    -0.047 C 
ATOM      6  C   LIG d   1       3.196  91.500 119.039  0.00  0.00     0.091 C 
ENDROOT
BRANCH   1   7
ATOM      7  O   LIG d   1       5.310  91.930 120.201  0.00  0.00    -0.368 OA
BRANCH   7   8
ATOM      8  C   LIG d   1       5.961  92.971 119.432  0.00  0.00     0.119 C 
BRANCH   8   9
ATOM      9  C   LIG d   1       7.435  93.022 119.877  0.00  0.00     0.028 C 
ATOM     10  C   LIG d   1       8.407  92.732 118.721  0.00  0.00     0.006 C 
ENDBRANCH   8   9
BRANCH   8  11
ATOM     11  C   LIG d   1       5.389  94.352 119.767  0.00  0.00     0.028 C 
ATOM     12  C   LIG d   1       4.600  94.366 121.087  0.00  0.00     0.006 C 
ENDBRANCH   8  11
ENDBRANCH   7   8
ENDBRANCH   1   7
BRANCH   6  13
ATOM     13  N   LIG d   1       2.331  91.476 120.247  0.00  0.00    -0.311 N 
ATOM     14  C   LIG d   1       1.422  92.412 120.517  0.00  0.00     0.210 C 
ATOM     15  C   LIG d   1       0.652  92.208 121.825  0.00  0.00     0.109 C 
ATOM     16  O   LIG d   1       1.159  93.375 119.781  0.00  0.00    -0.276 OA
ATOM     17  H   LIG d   1       2.456  90.713 120.883  0.00  0.00     0.149 HD
ENDBRANCH   6  13
BRANCH   5  18
ATOM     18  N   LIG d   1       1.319  91.279 117.372  0.00  0.00     0.381 N 
ATOM     19  H   LIG d   1       1.477  92.206 117.029  0.00  0.00    -0.090 HD
ATOM     20  H   LIG d   1       0.668  91.332 118.136  0.00  0.00    -0.090 HD
ATOM     21  H   LIG d   1       0.944  90.709 116.646  0.00  0.00    -0.090 HD
ENDBRANCH   5  18
BRANCH   3  22
ATOM     22  C   LIG d   1       5.649  89.664 116.114  0.00  0.00     0.382 C 
ATOM     23  O   LIG d   1       6.889  89.853 116.095  0.00  0.00    -0.241 OA
ATOM     24  O   LIG d   1       5.126  88.939 115.247  0.00  0.00    -0.241 OA
ENDBRANCH   3  22
TORSDOF 7
ENDMDL
MODEL 5
REMARK VINA RESULT:      -3.9      2.930      5.369
REMARK  7 active torsions:
REMARK  status: ('A' for Active; 'I' for Inactive)
REMARK    1  A    between atoms: C_2  and  C_3 
REMARK    2  A    between atoms: C_3  and  O_6 
REMARK    3  A    between atoms: C_3  and  C_4 
REMARK    4  A    between atoms: C_7  and  O_6 
REMARK    5  A    between atoms: C_9  and  C_10 
REMARK    6  A    between atoms: N_15  and  C_14 
REMARK    7  A    between atoms: N_20  and  C_19 
REMARK       I    between atoms: C_22  and  N_20 
ROOT
ATOM      1  C   LIG d   1       4.312  87.644 117.537  0.00  0.00     0.161 C 
ATOM      2  C   LIG d   1       3.462  88.738 117.768  0.00  0.00     0.016 C 
ATOM      3  C   LIG d   1       3.453  89.901 116.963  0.00  0.00     0.038 C 
ATOM      4  C   LIG d   1       4.193  89.985 115.775  0.00  0.00     0.028 C 
ATOM      5  C   LIG d   1       5.442  89.111 115.776  0.00  0.00    -0.047 C 
ATOM      6  C   LIG d   1       5.047  87.672 116.180  0.00  0.00     0.091 C 
ENDROOT
BRANCH   1   7
ATOM      7  O   LIG d   1       3.576  86.414 117.682  0.00  0.00    -0.368 OA
BRANCH   7   8
ATOM      8  C   LIG d   1       2.157  86.547 117.944  0.00  0.00     0.119 C 
BRANCH   8   9
ATOM      9  C   LIG d   1       1.852  85.776 119.243  0.00  0.00     0.028 C 
ATOM     10  C   LIG d   1       2.396  86.490 120.491  0.00  0.00     0.006 C 
ENDBRANCH   8   9
BRANCH   8  11
ATOM     11  C   LIG d   1       1.324  85.859 116.859  0.00  0.00     0.028 C 
ATOM     12  C   LIG d   1       1.489  86.512 115.477  0.00  0.00     0.006 C 
ENDBRANCH   8  11
ENDBRANCH   7   8
ENDBRANCH   1   7
BRANCH   6  13
ATOM     13  N   LIG d   1       6.224  86.771 116.288  0.00  0.00    -0.311 N 
ATOM     14  C   LIG d   1       7.414  87.168 116.735  0.00  0.00     0.210 C 
ATOM     15  C   LIG d   1       8.496  86.084 116.746  0.00  0.00     0.109 C 
ATOM     16  O   LIG d   1       7.667  88.308 117.153  0.00  0.00    -0.276 OA
ATOM     17  H   LIG d   1       6.098  85.820 115.999  0.00  0.00     0.149 HD
ENDBRANCH   6  13
BRANCH   5  18
ATOM     18  N   LIG d   1       6.042  89.189 114.430  0.00  0.00     0.381 N 
ATOM     19  H   LIG d   1       6.671  89.965 114.384  0.00  0.00    -0.090 HD
ATOM     20  H   LIG d   1       5.311  89.336 113.756  0.00  0.00    -0.090 HD
ATOM     21  H   LIG d   1       6.529  88.344 114.224  0.00  0.00    -0.090 HD
ENDBRANCH   5  18
BRANCH   3  22
ATOM     22  C   LIG d   1       2.726  91.011 117.367  0.00  0.00     0.382 C 
ATOM     23  O   LIG d   1       3.266  92.143 117.379  0.00  0.00    -0.241 OA
ATOM     24  O   LIG d   1       1.552  90.887 117.763  0.00  0.00    -0.241 OA
ENDBRANCH   3  22
TORSDOF 7
ENDMDL
MODEL 6
REMARK VINA RESULT:      -3.9      2.318      4.836
REMARK  7 active torsions:
REMARK  status: ('A' for Active; 'I' for Inactive)
REMARK    1  A    between atoms: C_2  and  C_3 
REMARK    2  A    between atoms: C_3  and  O_6 
REMARK    3  A    between atoms: C_3  and  C_4 
REMARK    4  A    between atoms: C_7  and  O_6 
REMARK    5  A    between atoms: C_9  and  C_10 
REMARK    6  A    between atoms: N_15  and  C_14 
REMARK    7  A    between atoms: N_20  and  C_19 
REMARK       I    between atoms: C_22  and  N_20 
ROOT
ATOM      1  C   LIG d   1       4.941  88.833 116.843  0.00  0.00     0.161 C 
ATOM      2  C   LIG d   1       4.313  87.824 116.095  0.00  0.00     0.016 C 
ATOM      3  C   LIG d   1       2.934  87.832 115.780  0.00  0.00     0.038 C 
ATOM      4  C   LIG d   1       2.115  88.935 116.067  0.00  0.00     0.028 C 
ATOM      5  C   LIG d   1       2.594  89.750 117.263  0.00  0.00    -0.047 C 
ATOM      6  C   LIG d   1       4.087  90.098 117.068  0.00  0.00     0.091 C 
ENDROOT
BRANCH   1   7
ATOM      7  O   LIG d   1       6.200  89.180 116.233  0.00  0.00    -0.368 OA
BRANCH   7   8
ATOM      8  C   LIG d   1       7.390  88.717 116.919  0.00  0.00     0.119 C 
BRANCH   8   9
ATOM      9  C   LIG d   1       7.824  87.398 116.253  0.00  0.00     0.028 C 
ATOM     10  C   LIG d   1       9.307  87.075 116.501  0.00  0.00     0.006 C 
ENDBRANCH   8   9
BRANCH   8  11
ATOM     11  C   LIG d   1       7.088  88.355 118.376  0.00  0.00     0.028 C 
ATOM     12  C   LIG d   1       7.759  89.308 119.378  0.00  0.00     0.006 C 
ENDBRANCH   8  11
ENDBRANCH   7   8
ENDBRANCH   1   7
BRANCH   6  13
ATOM     13  N   LIG d   1       4.657  90.823 118.234  0.00  0.00    -0.311 N 
ATOM     14  C   LIG d   1       4.618  92.148 118.363  0.00  0.00     0.210 C 
ATOM     15  C   LIG d   1       5.282  92.694 119.631  0.00  0.00     0.109 C 
ATOM     16  O   LIG d   1       4.069  92.921 117.563  0.00  0.00    -0.276 OA
ATOM     17  H   LIG d   1       5.095  90.271 118.945  0.00  0.00     0.149 HD
ENDBRANCH   6  13
BRANCH   5  18
ATOM     18  N   LIG d   1       1.731  90.943 117.364  0.00  0.00     0.381 N 
ATOM     19  H   LIG d   1       1.523  91.130 118.324  0.00  0.00    -0.090 HD
ATOM     20  H   LIG d   1       0.867  90.760 116.884  0.00  0.00    -0.090 HD
ATOM     21  H   LIG d   1       2.187  91.729 116.955  0.00  0.00    -0.090 HD
ENDBRANCH   5  18
BRANCH   3  22
ATOM     22  C   LIG d   1       2.353  86.711 115.208  0.00  0.00     0.382 C 
ATOM     23  O   LIG d   1       3.075  85.774 114.791  0.00  0.00    -0.241 OA
ATOM     24  O   LIG d   1       1.117  86.645 115.063  0.00  0.00    -0.241 OA
ENDBRANCH   3  22
TORSDOF 7
ENDMDL
MODEL 7
REMARK VINA RESULT:      -3.8      2.343      5.441
REMARK  7 active torsions:
REMARK  status: ('A' for Active; 'I' for Inactive)
REMARK    1  A    between atoms: C_2  and  C_3 
REMARK    2  A    between atoms: C_3  and  O_6 
REMARK    3  A    between atoms: C_3  and  C_4 
REMARK    4  A    between atoms: C_7  and  O_6 
REMARK    5  A    between atoms: C_9  and  C_10 
REMARK    6  A    between atoms: N_15  and  C_14 
REMARK    7  A    between atoms: N_20  and  C_19 
REMARK       I    between atoms: C_22  and  N_20 
ROOT
ATOM      1  C   LIG d   1       5.017  91.334 118.235  0.00  0.00     0.161 C 
ATOM      2  C   LIG d   1       4.998  92.244 119.305  0.00  0.00     0.016 C 
ATOM      3  C   LIG d   1       3.819  92.860 119.783  0.00  0.00     0.038 C 
ATOM      4  C   LIG d   1       2.548  92.489 119.318  0.00  0.00     0.028 C 
ATOM      5  C   LIG d   1       2.560  91.946 117.893  0.00  0.00    -0.047 C 
ATOM      6  C   LIG d   1       3.628  90.833 117.788  0.00  0.00     0.091 C 
ENDROOT
BRANCH   1   7
ATOM      7  O   LIG d   1       5.872  90.219 118.557  0.00  0.00    -0.368 OA
BRANCH   7   8
ATOM      8  C   LIG d   1       7.152  90.181 117.878  0.00  0.00     0.119 C 
BRANCH   8   9
ATOM      9  C   LIG d   1       7.506  88.700 117.641  0.00  0.00     0.028 C 
ATOM     10  C   LIG d   1       7.029  88.195 116.269  0.00  0.00     0.006 C 
ENDBRANCH   8   9
BRANCH   8  11
ATOM     11  C   LIG d   1       8.271  90.728 118.768  0.00  0.00     0.028 C 
ATOM     12  C   LIG d   1       8.678  92.164 118.399  0.00  0.00     0.006 C 
ENDBRANCH   8  11
ENDBRANCH   7   8
ENDBRANCH   1   7
BRANCH   6  13
ATOM     13  N   LIG d   1       3.763  90.306 116.406  0.00  0.00    -0.311 N 
ATOM     14  C   LIG d   1       3.467  89.052 116.067  0.00  0.00     0.210 C 
ATOM     15  C   LIG d   1       3.698  88.709 114.592  0.00  0.00     0.109 C 
ATOM     16  O   LIG d   1       3.005  88.200 116.841  0.00  0.00    -0.276 OA
ATOM     17  H   LIG d   1       4.102  90.938 115.707  0.00  0.00     0.149 HD
ENDBRANCH   6  13
BRANCH   5  18
ATOM     18  N   LIG d   1       1.198  91.470 117.586  0.00  0.00     0.381 N 
ATOM     19  H   LIG d   1       1.238  90.540 117.220  0.00  0.00    -0.090 HD
ATOM     20  H   LIG d   1       0.795  92.068 116.886  0.00  0.00    -0.090 HD
ATOM     21  H   LIG d   1       0.637  91.487 118.410  0.00  0.00    -0.090 HD
ENDBRANCH   5  18
BRANCH   3  22
ATOM     22  C   LIG d   1       3.906  93.887 120.710  0.00  0.00     0.382 C 
ATOM     23  O   LIG d   1       4.965  94.552 120.810  0.00  0.00    -0.241 OA
ATOM     24  O   LIG d   1       2.955  94.129 121.478  0.00  0.00    -0.241 OA
ENDBRANCH   3  22
TORSDOF 7
ENDMDL
MODEL 8
REMARK VINA RESULT:      -3.8      2.838      5.140
REMARK  7 active torsions:
REMARK  status: ('A' for Active; 'I' for Inactive)
REMARK    1  A    between atoms: C_2  and  C_3 
REMARK    2  A    between atoms: C_3  and  O_6 
REMARK    3  A    between atoms: C_3  and  C_4 
REMARK    4  A    between atoms: C_7  and  O_6 
REMARK    5  A    between atoms: C_9  and  C_10 
REMARK    6  A    between atoms: N_15  and  C_14 
REMARK    7  A    between atoms: N_20  and  C_19 
REMARK       I    between atoms: C_22  and  N_20 
ROOT
ATOM      1  C   LIG d   1       5.602  89.924 118.700  0.00  0.00     0.161 C 
ATOM      2  C   LIG d   1       6.786  89.246 118.363  0.00  0.00     0.016 C 
ATOM      3  C   LIG d   1       7.114  88.862 117.042  0.00  0.00     0.038 C 
ATOM      4  C   LIG d   1       6.345  89.266 115.940  0.00  0.00     0.028 C 
ATOM      5  C   LIG d   1       4.880  89.517 116.283  0.00  0.00    -0.047 C 
ATOM      6  C   LIG d   1       4.805  90.470 117.497  0.00  0.00     0.091 C 
ENDROOT
BRANCH   1   7
ATOM      7  O   LIG d   1       5.895  90.984 119.631  0.00  0.00    -0.368 OA
BRANCH   7   8
ATOM      8  C   LIG d   1       6.422  92.207 119.059  0.00  0.00     0.119 C 
BRANCH   8   9
ATOM      9  C   LIG d   1       7.896  92.322 119.494  0.00  0.00     0.028 C 
ATOM     10  C   LIG d   1       8.864  92.308 118.298  0.00  0.00     0.006 C 
ENDBRANCH   8   9
BRANCH   8  11
ATOM     11  C   LIG d   1       5.729  93.440 119.645  0.00  0.00     0.028 C 
ATOM     12  C   LIG d   1       6.044  94.727 118.865  0.00  0.00     0.006 C 
ENDBRANCH   8  11
ENDBRANCH   7   8
ENDBRANCH   1   7
BRANCH   6  13
ATOM     13  N   LIG d   1       3.409  90.701 117.951  0.00  0.00    -0.311 N 
ATOM     14  C   LIG d   1       2.799  91.883 117.873  0.00  0.00     0.210 C 
ATOM     15  C   LIG d   1       1.366  91.907 118.416  0.00  0.00     0.109 C 
ATOM     16  O   LIG d   1       3.296  92.905 117.378  0.00  0.00    -0.276 OA
ATOM     17  H   LIG d   1       2.919  89.918 118.338  0.00  0.00     0.149 HD
ENDBRANCH   6  13
BRANCH   5  18
ATOM     18  N   LIG d   1       4.228  90.063 115.078  0.00  0.00     0.381 N 
ATOM     19  H   LIG d   1       4.126  91.054 115.167  0.00  0.00    -0.090 HD
ATOM     20  H   LIG d   1       3.312  89.658 114.992  0.00  0.00    -0.090 HD
ATOM     21  H   LIG d   1       4.770  89.849 114.270  0.00  0.00    -0.090 HD
ENDBRANCH   5  18
BRANCH   3  22
ATOM     22  C   LIG d   1       8.201  88.031 116.817  0.00  0.00     0.382 C 
ATOM     23  O   LIG d   1       9.367  88.477 116.942  0.00  0.00    -0.241 OA
ATOM     24  O   LIG d   1       8.030  86.854 116.449  0.00  0.00    -0.241 OA
ENDBRANCH   3  22
TORSDOF 7
ENDMDL
MODEL 9
REMARK VINA RESULT:      -3.8      2.835      6.019
REMARK  7 active torsions:
REMARK  status: ('A' for Active; 'I' for Inactive)
REMARK    1  A    between atoms: C_2  and  C_3 
REMARK    2  A    between atoms: C_3  and  O_6 
REMARK    3  A    between atoms: C_3  and  C_4 
REMARK    4  A    between atoms: C_7  and  O_6 
REMARK    5  A    between atoms: C_9  and  C_10 
REMARK    6  A    between atoms: N_15  and  C_14 
REMARK    7  A    between atoms: N_20  and  C_19 
REMARK       I    between atoms: C_22  and  N_20 
ROOT
ATOM      1  C   LIG d   1       5.147  90.798 117.508  0.00  0.00     0.161 C 
ATOM      2  C   LIG d   1       4.147  90.140 116.771  0.00  0.00     0.016 C 
ATOM      3  C   LIG d   1       4.380  88.966 116.020  0.00  0.00     0.038 C 
ATOM      4  C   LIG d   1       5.602  88.279 116.076  0.00  0.00     0.028 C 
ATOM      5  C   LIG d   1       6.788  89.180 116.404  0.00  0.00    -0.047 C 
ATOM      6  C   LIG d   1       6.458  90.002 117.671  0.00  0.00     0.091 C 
ENDROOT
BRANCH   1   7
ATOM      7  O   LIG d   1       4.630  91.182 118.798  0.00  0.00    -0.368 OA
BRANCH   7   8
ATOM      8  C   LIG d   1       4.232  92.568 118.937  0.00  0.00     0.119 C 
BRANCH   8   9
ATOM      9  C   LIG d   1       5.294  93.270 119.806  0.00  0.00     0.028 C 
ATOM     10  C   LIG d   1       6.012  94.402 119.053  0.00  0.00     0.006 C 
ENDBRANCH   8   9
BRANCH   8  11
ATOM     11  C   LIG d   1       2.921  92.695 119.719  0.00  0.00     0.028 C 
ATOM     12  C   LIG d   1       1.680  92.460 118.843  0.00  0.00     0.006 C 
ENDBRANCH   8  11
ENDBRANCH   7   8
ENDBRANCH   1   7
BRANCH   6  13
ATOM     13  N   LIG d   1       7.532  90.970 118.014  0.00  0.00    -0.311 N 
ATOM     14  C   LIG d   1       8.482  90.724 118.915  0.00  0.00     0.210 C 
ATOM     15  C   LIG d   1       9.480  91.865 119.131  0.00  0.00     0.109 C 
ATOM     16  O   LIG d   1       8.611  89.656 119.532  0.00  0.00    -0.276 OA
ATOM     17  H   LIG d   1       7.522  91.851 117.538  0.00  0.00     0.149 HD
ENDBRANCH   6  13
BRANCH   5  18
ATOM     18  N   LIG d   1       7.972  88.316 116.568  0.00  0.00     0.381 N 
ATOM     19  H   LIG d   1       7.762  87.390 116.251  0.00  0.00    -0.090 HD
ATOM     20  H   LIG d   1       8.209  88.269 117.543  0.00  0.00    -0.090 HD
ATOM     21  H   LIG d   1       8.739  88.686 116.050  0.00  0.00    -0.090 HD
ENDBRANCH   5  18
BRANCH   3  22
ATOM     22  C   LIG d   1       3.395  88.488 115.168  0.00  0.00     0.382 C 
ATOM     23  O   LIG d   1       2.282  89.064 115.112  0.00  0.00    -0.241 OA
ATOM     24  O   LIG d   1       3.590  87.463 114.489  0.00  0.00    -0.241 OA
ENDBRANCH   3  22
TORSDOF 7
ENDMDL
