MODEL 1
REMARK VINA RESULT:      -5.4      0.000      0.000
REMARK  7 active torsions:
REMARK  status: ('A' for Active; 'I' for Inactive)
REMARK    1  A    between atoms: C_2  and  C_3 
REMARK    2  A    between atoms: C_3  and  O_6 
REMARK    3  A    between atoms: C_3  and  C_4 
REMARK    4  A    between atoms: C_7  and  O_6 
REMARK    5  A    between atoms: C_9  and  C_10 
REMARK    6  A    between atoms: N_15  and  C_14 
REMARK    7  A    between atoms: N_20  and  C_19 
REMARK       I    between atoms: C_22  and  N_20 
ROOT
ATOM      1  C   LIG d   1      -4.203  91.690 118.245  0.00  0.00     0.161 C 
ATOM      2  C   LIG d   1      -4.803  91.005 117.175  0.00  0.00     0.016 C 
ATOM      3  C   LIG d   1      -6.139  91.217 116.766  0.00  0.00     0.038 C 
ATOM      4  C   LIG d   1      -6.925  92.246 117.306  0.00  0.00     0.028 C 
ATOM      5  C   LIG d   1      -6.531  92.625 118.729  0.00  0.00    -0.047 C 
ATOM      6  C   LIG d   1      -5.010  92.894 118.774  0.00  0.00     0.091 C 
ENDROOT
BRANCH   1   7
ATOM      7  O   LIG d   1      -2.872  92.102 117.876  0.00  0.00    -0.368 OA
BRANCH   7   8
ATOM      8  C   LIG d   1      -1.785  91.402 118.531  0.00  0.00     0.119 C 
BRANCH   8   9
ATOM      9  C   LIG d   1      -1.218  90.382 117.524  0.00  0.00     0.028 C 
ATOM     10  C   LIG d   1       0.228  89.974 117.853  0.00  0.00     0.006 C 
ENDBRANCH   8   9
BRANCH   8  11
ATOM     11  C   LIG d   1      -2.290  90.568 119.712  0.00  0.00     0.028 C 
ATOM     12  C   LIG d   1      -1.689  91.013 121.055  0.00  0.00     0.006 C 
ENDBRANCH   8  11
ENDBRANCH   7   8
ENDBRANCH   1   7
BRANCH   6  13
ATOM     13  N   LIG d   1      -4.527  93.191 120.148  0.00  0.00    -0.311 N 
ATOM     14  C   LIG d   1      -3.670  94.171 120.428  0.00  0.00     0.210 C 
ATOM     15  C   LIG d   1      -3.286  94.291 121.906  0.00  0.00     0.109 C 
ATOM     16  O   LIG d   1      -3.216  94.972 119.598  0.00  0.00    -0.276 OA
ATOM     17  H   LIG d   1      -4.869  92.608 120.887  0.00  0.00     0.149 HD
ENDBRANCH   6  13
BRANCH   5  18
ATOM     18  N   LIG d   1      -7.338  93.798 119.117  0.00  0.00     0.381 N 
ATOM     19  H   LIG d   1      -6.736  94.572 119.316  0.00  0.00    -0.090 HD
ATOM     20  H   LIG d   1      -7.853  93.577 119.951  0.00  0.00    -0.090 HD
ATOM     21  H   LIG d   1      -7.967  94.037 118.382  0.00  0.00    -0.090 HD
ENDBRANCH   5  18
BRANCH   3  22
ATOM     22  C   LIG d   1      -6.715  90.369 115.832  0.00  0.00     0.382 C 
ATOM     23  O   LIG d   1      -7.725  90.739 115.187  0.00  0.00    -0.241 OA
ATOM     24  O   LIG d   1      -6.264  89.220 115.659  0.00  0.00    -0.241 OA
ENDBRANCH   3  22
TORSDOF 7
ENDMDL
MODEL 2
REMARK VINA RESULT:      -4.8      2.213      4.562
REMARK  7 active torsions:
REMARK  status: ('A' for Active; 'I' for Inactive)
REMARK    1  A    between atoms: C_2  and  C_3 
REMARK    2  A    between atoms: C_3  and  O_6 
REMARK    3  A    between atoms: C_3  and  C_4 
REMARK    4  A    between atoms: C_7  and  O_6 
REMARK    5  A    between atoms: C_9  and  C_10 
REMARK    6  A    between atoms: N_15  and  C_14 
REMARK    7  A    between atoms: N_20  and  C_19 
REMARK       I    between atoms: C_22  and  N_20 
ROOT
ATOM      1  C   LIG d   1      -5.435  92.921 119.187  0.00  0.00     0.161 C 
ATOM      2  C   LIG d   1      -6.161  92.232 118.201  0.00  0.00     0.016 C 
ATOM      3  C   LIG d   1      -5.574  91.304 117.310  0.00  0.00     0.038 C 
ATOM      4  C   LIG d   1      -4.242  90.887 117.444  0.00  0.00     0.028 C 
ATOM      5  C   LIG d   1      -3.345  91.929 118.103  0.00  0.00    -0.047 C 
ATOM      6  C   LIG d   1      -4.003  92.397 119.421  0.00  0.00     0.091 C 
ENDROOT
BRANCH   1   7
ATOM      7  O   LIG d   1      -6.175  92.926 120.424  0.00  0.00    -0.368 OA
BRANCH   7   8
ATOM      8  C   LIG d   1      -6.620  94.222 120.895  0.00  0.00     0.119 C 
BRANCH   8   9
ATOM      9  C   LIG d   1      -8.158  94.180 120.982  0.00  0.00     0.028 C 
ATOM     10  C   LIG d   1      -8.833  94.640 119.679  0.00  0.00     0.006 C 
ENDBRANCH   8   9
BRANCH   8  11
ATOM     11  C   LIG d   1      -6.302  95.324 119.879  0.00  0.00     0.028 C 
ATOM     12  C   LIG d   1      -5.407  96.430 120.461  0.00  0.00     0.006 C 
ENDBRANCH   8  11
ENDBRANCH   7   8
ENDBRANCH   1   7
BRANCH   6  13
ATOM     13  N   LIG d   1      -3.232  93.478 120.088  0.00  0.00    -0.311 N 
ATOM     14  C   LIG d   1      -2.318  93.253 121.031  0.00  0.00     0.210 C 
ATOM     15  C   LIG d   1      -1.654  94.510 121.601  0.00  0.00     0.109 C 
ATOM     16  O   LIG d   1      -1.972  92.130 121.426  0.00  0.00    -0.276 OA
ATOM     17  H   LIG d   1      -3.427  94.419 119.805  0.00  0.00     0.149 HD
ENDBRANCH   6  13
BRANCH   5  18
ATOM     18  N   LIG d   1      -2.020  91.313 118.305  0.00  0.00     0.381 N 
ATOM     19  H   LIG d   1      -1.305  92.005 118.199  0.00  0.00    -0.090 HD
ATOM     20  H   LIG d   1      -1.880  90.605 117.606  0.00  0.00    -0.090 HD
ATOM     21  H   LIG d   1      -1.967  90.908 119.214  0.00  0.00    -0.090 HD
ENDBRANCH   5  18
BRANCH   3  22
ATOM     22  C   LIG d   1      -6.314  90.813 116.245  0.00  0.00     0.382 C 
ATOM     23  O   LIG d   1      -6.222  89.604 115.923  0.00  0.00    -0.241 OA
ATOM     24  O   LIG d   1      -7.038  91.573 115.574  0.00  0.00    -0.241 OA
ENDBRANCH   3  22
TORSDOF 7
ENDMDL
MODEL 3
REMARK VINA RESULT:      -4.5      2.301      4.547
REMARK  7 active torsions:
REMARK  status: ('A' for Active; 'I' for Inactive)
REMARK    1  A    between atoms: C_2  and  C_3 
REMARK    2  A    between atoms: C_3  and  O_6 
REMARK    3  A    between atoms: C_3  and  C_4 
REMARK    4  A    between atoms: C_7  and  O_6 
REMARK    5  A    between atoms: C_9  and  C_10 
REMARK    6  A    between atoms: N_15  and  C_14 
REMARK    7  A    between atoms: N_20  and  C_19 
REMARK       I    between atoms: C_22  and  N_20 
ROOT
ATOM      1  C   LIG d   1      -5.752  92.943 119.081  0.00  0.00     0.161 C 
ATOM      2  C   LIG d   1      -6.570  92.415 118.068  0.00  0.00     0.016 C 
ATOM      3  C   LIG d   1      -6.112  91.498 117.095  0.00  0.00     0.038 C 
ATOM      4  C   LIG d   1      -4.833  90.926 117.161  0.00  0.00     0.028 C 
ATOM      5  C   LIG d   1      -3.810  91.808 117.868  0.00  0.00    -0.047 C 
ATOM      6  C   LIG d   1      -4.384  92.245 119.235  0.00  0.00     0.091 C 
ENDROOT
BRANCH   1   7
ATOM      7  O   LIG d   1      -6.461  92.937 120.335  0.00  0.00    -0.368 OA
BRANCH   7   8
ATOM      8  C   LIG d   1      -7.147  94.165 120.685  0.00  0.00     0.119 C 
BRANCH   8   9
ATOM      9  C   LIG d   1      -6.223  94.960 121.627  0.00  0.00     0.028 C 
ATOM     10  C   LIG d   1      -5.548  96.148 120.922  0.00  0.00     0.006 C 
ENDBRANCH   8   9
BRANCH   8  11
ATOM     11  C   LIG d   1      -8.412  93.883 121.501  0.00  0.00     0.028 C 
ATOM     12  C   LIG d   1      -9.703  94.195 120.726  0.00  0.00     0.006 C 
ENDBRANCH   8  11
ENDBRANCH   7   8
ENDBRANCH   1   7
BRANCH   6  13
ATOM     13  N   LIG d   1      -3.481  93.180 119.956  0.00  0.00    -0.311 N 
ATOM     14  C   LIG d   1      -3.073  92.985 121.209  0.00  0.00     0.210 C 
ATOM     15  C   LIG d   1      -2.162  94.081 121.770  0.00  0.00     0.109 C 
ATOM     16  O   LIG d   1      -3.354  91.993 121.898  0.00  0.00    -0.276 OA
ATOM     17  H   LIG d   1      -3.180  93.996 119.461  0.00  0.00     0.149 HD
ENDBRANCH   6  13
BRANCH   5  18
ATOM     18  N   LIG d   1      -2.560  91.034 117.987  0.00  0.00     0.381 N 
ATOM     19  H   LIG d   1      -2.661  90.332 118.693  0.00  0.00    -0.090 HD
ATOM     20  H   LIG d   1      -1.818  91.654 118.263  0.00  0.00    -0.090 HD
ATOM     21  H   LIG d   1      -2.338  90.608 117.114  0.00  0.00    -0.090 HD
ENDBRANCH   5  18
BRANCH   3  22
ATOM     22  C   LIG d   1      -6.924  91.174 116.019  0.00  0.00     0.382 C 
ATOM     23  O   LIG d   1      -7.036  91.971 115.056  0.00  0.00    -0.241 OA
ATOM     24  O   LIG d   1      -7.580  90.116 116.019  0.00  0.00    -0.241 OA
ENDBRANCH   3  22
TORSDOF 7
ENDMDL
MODEL 4
REMARK VINA RESULT:      -4.5      3.926      6.439
REMARK  7 active torsions:
REMARK  status: ('A' for Active; 'I' for Inactive)
REMARK    1  A    between atoms: C_2  and  C_3 
REMARK    2  A    between atoms: C_3  and  O_6 
REMARK    3  A    between atoms: C_3  and  C_4 
REMARK    4  A    between atoms: C_7  and  O_6 
REMARK    5  A    between atoms: C_9  and  C_10 
REMARK    6  A    between atoms: N_15  and  C_14 
REMARK    7  A    between atoms: N_20  and  C_19 
REMARK       I    between atoms: C_22  and  N_20 
ROOT
ATOM      1  C   LIG d   1       0.910  90.171 117.875  0.00  0.00     0.161 C 
ATOM      2  C   LIG d   1      -0.485  90.021 117.952  0.00  0.00     0.016 C 
ATOM      3  C   LIG d   1      -1.346  91.008 118.483  0.00  0.00     0.038 C 
ATOM      4  C   LIG d   1      -0.882  92.284 118.838  0.00  0.00     0.028 C 
ATOM      5  C   LIG d   1       0.587  92.301 119.249  0.00  0.00    -0.047 C 
ATOM      6  C   LIG d   1       1.423  91.600 118.155  0.00  0.00     0.091 C 
ENDROOT
BRANCH   1   7
ATOM      7  O   LIG d   1       1.381  89.711 116.593  0.00  0.00    -0.368 OA
BRANCH   7   8
ATOM      8  C   LIG d   1       1.989  88.396 116.572  0.00  0.00     0.119 C 
BRANCH   8   9
ATOM      9  C   LIG d   1       3.476  88.579 116.209  0.00  0.00     0.028 C 
ATOM     10  C   LIG d   1       3.670  89.402 114.925  0.00  0.00     0.006 C 
ENDBRANCH   8   9
BRANCH   8  11
ATOM     11  C   LIG d   1       1.402  87.530 115.453  0.00  0.00     0.028 C 
ATOM     12  C   LIG d   1       0.183  86.713 115.909  0.00  0.00     0.006 C 
ENDBRANCH   8  11
ENDBRANCH   7   8
ENDBRANCH   1   7
BRANCH   6  13
ATOM     13  N   LIG d   1       2.861  91.498 118.517  0.00  0.00    -0.311 N 
ATOM     14  C   LIG d   1       3.847  91.932 117.734  0.00  0.00     0.210 C 
ATOM     15  C   LIG d   1       5.257  91.713 118.289  0.00  0.00     0.109 C 
ATOM     16  O   LIG d   1       3.685  92.506 116.646  0.00  0.00    -0.276 OA
ATOM     17  H   LIG d   1       3.080  91.074 119.397  0.00  0.00     0.149 HD
ENDBRANCH   6  13
BRANCH   5  18
ATOM     18  N   LIG d   1       0.974  93.709 119.459  0.00  0.00     0.381 N 
ATOM     19  H   LIG d   1       1.886  93.752 119.868  0.00  0.00    -0.090 HD
ATOM     20  H   LIG d   1       0.323  94.134 120.095  0.00  0.00    -0.090 HD
ATOM     21  H   LIG d   1       0.968  94.197 118.591  0.00  0.00    -0.090 HD
ENDBRANCH   5  18
BRANCH   3  22
ATOM     22  C   LIG d   1      -2.682  90.709 118.702  0.00  0.00     0.382 C 
ATOM     23  O   LIG d   1      -3.407  91.510 119.341  0.00  0.00    -0.241 OA
ATOM     24  O   LIG d   1      -3.161  89.630 118.306  0.00  0.00    -0.241 OA
ENDBRANCH   3  22
TORSDOF 7
ENDMDL
MODEL 5
REMARK VINA RESULT:      -4.4      2.739      4.382
REMARK  7 active torsions:
REMARK  status: ('A' for Active; 'I' for Inactive)
REMARK    1  A    between atoms: C_2  and  C_3 
REMARK    2  A    between atoms: C_3  and  O_6 
REMARK    3  A    between atoms: C_3  and  C_4 
REMARK    4  A    between atoms: C_7  and  O_6 
REMARK    5  A    between atoms: C_9  and  C_10 
REMARK    6  A    between atoms: N_15  and  C_14 
REMARK    7  A    between atoms: N_20  and  C_19 
REMARK       I    between atoms: C_22  and  N_20 
ROOT
ATOM      1  C   LIG d   1      -1.116  90.900 118.351  0.00  0.00     0.161 C 
ATOM      2  C   LIG d   1      -2.425  90.749 117.864  0.00  0.00     0.016 C 
ATOM      3  C   LIG d   1      -3.472  91.655 118.150  0.00  0.00     0.038 C 
ATOM      4  C   LIG d   1      -3.242  92.864 118.824  0.00  0.00     0.028 C 
ATOM      5  C   LIG d   1      -2.045  92.813 119.767  0.00  0.00    -0.047 C 
ATOM      6  C   LIG d   1      -0.821  92.271 118.995  0.00  0.00     0.091 C 
ENDROOT
BRANCH   1   7
ATOM      7  O   LIG d   1      -0.169  90.626 117.300  0.00  0.00    -0.368 OA
BRANCH   7   8
ATOM      8  C   LIG d   1       0.392  89.290 117.280  0.00  0.00     0.119 C 
BRANCH   8   9
ATOM      9  C   LIG d   1       1.843  89.390 117.789  0.00  0.00     0.028 C 
ATOM     10  C   LIG d   1       2.011  88.803 119.201  0.00  0.00     0.006 C 
ENDBRANCH   8   9
BRANCH   8  11
ATOM     11  C   LIG d   1       0.500  88.753 115.849  0.00  0.00     0.028 C 
ATOM     12  C   LIG d   1       0.799  87.246 115.800  0.00  0.00     0.006 C 
ENDBRANCH   8  11
ENDBRANCH   7   8
ENDBRANCH   1   7
BRANCH   6  13
ATOM     13  N   LIG d   1       0.373  92.110 119.866  0.00  0.00    -0.311 N 
ATOM     14  C   LIG d   1       1.566  92.626 119.577  0.00  0.00     0.210 C 
ATOM     15  C   LIG d   1       2.666  92.325 120.601  0.00  0.00     0.109 C 
ATOM     16  O   LIG d   1       1.810  93.332 118.587  0.00  0.00    -0.276 OA
ATOM     17  H   LIG d   1       0.256  91.578 120.706  0.00  0.00     0.149 HD
ENDBRANCH   6  13
BRANCH   5  18
ATOM     18  N   LIG d   1      -1.838  94.174 120.297  0.00  0.00     0.381 N 
ATOM     19  H   LIG d   1      -1.274  94.703 119.662  0.00  0.00    -0.090 HD
ATOM     20  H   LIG d   1      -1.350  94.111 121.174  0.00  0.00    -0.090 HD
ATOM     21  H   LIG d   1      -2.716  94.626 120.429  0.00  0.00    -0.090 HD
ENDBRANCH   5  18
BRANCH   3  22
ATOM     22  C   LIG d   1      -4.774  91.336 117.795  0.00  0.00     0.382 C 
ATOM     23  O   LIG d   1      -4.993  90.384 117.008  0.00  0.00    -0.241 OA
ATOM     24  O   LIG d   1      -5.728  92.016 118.217  0.00  0.00    -0.241 OA
ENDBRANCH   3  22
TORSDOF 7
ENDMDL
MODEL 6
REMARK VINA RESULT:      -4.2      5.486      6.944
REMARK  7 active torsions:
REMARK  status: ('A' for Active; 'I' for Inactive)
REMARK    1  A    between atoms: C_2  and  C_3 
REMARK    2  A    between atoms: C_3  and  O_6 
REMARK    3  A    between atoms: C_3  and  C_4 
REMARK    4  A    between atoms: C_7  and  O_6 
REMARK    5  A    between atoms: C_9  and  C_10 
REMARK    6  A    between atoms: N_15  and  C_14 
REMARK    7  A    between atoms: N_20  and  C_19 
REMARK       I    between atoms: C_22  and  N_20 
ROOT
ATOM      1  C   LIG d   1       2.063  89.206 118.197  0.00  0.00     0.161 C 
ATOM      2  C   LIG d   1       1.813  88.008 117.508  0.00  0.00     0.016 C 
ATOM      3  C   LIG d   1       0.723  87.830 116.625  0.00  0.00     0.038 C 
ATOM      4  C   LIG d   1      -0.111  88.895 116.253  0.00  0.00     0.028 C 
ATOM      5  C   LIG d   1      -0.201  89.992 117.309  0.00  0.00    -0.047 C 
ATOM      6  C   LIG d   1       1.229  90.413 117.718  0.00  0.00     0.091 C 
ENDROOT
BRANCH   1   7
ATOM      7  O   LIG d   1       3.470  89.516 118.143  0.00  0.00    -0.368 OA
BRANCH   7   8
ATOM      8  C   LIG d   1       3.938  90.145 116.924  0.00  0.00     0.119 C 
BRANCH   8   9
ATOM      9  C   LIG d   1       5.010  89.224 116.311  0.00  0.00     0.028 C 
ATOM     10  C   LIG d   1       5.609  88.252 117.342  0.00  0.00     0.006 C 
ENDBRANCH   8   9
BRANCH   8  11
ATOM     11  C   LIG d   1       4.657  91.464 117.219  0.00  0.00     0.028 C 
ATOM     12  C   LIG d   1       4.921  91.677 118.718  0.00  0.00     0.006 C 
ENDBRANCH   8  11
ENDBRANCH   7   8
ENDBRANCH   1   7
BRANCH   6  13
ATOM     13  N   LIG d   1       1.233  91.422 118.809  0.00  0.00    -0.311 N 
ATOM     14  C   LIG d   1       1.375  92.730 118.598  0.00  0.00     0.210 C 
ATOM     15  C   LIG d   1       1.370  93.594 119.863  0.00  0.00     0.109 C 
ATOM     16  O   LIG d   1       1.473  93.259 117.480  0.00  0.00    -0.276 OA
ATOM     17  H   LIG d   1       1.128  91.083 119.745  0.00  0.00     0.149 HD
ENDBRANCH   6  13
BRANCH   5  18
ATOM     18  N   LIG d   1      -0.988  91.099 116.736  0.00  0.00     0.381 N 
ATOM     19  H   LIG d   1      -0.755  91.955 117.199  0.00  0.00    -0.090 HD
ATOM     20  H   LIG d   1      -1.965  90.916 116.887  0.00  0.00    -0.090 HD
ATOM     21  H   LIG d   1      -0.804  91.180 115.760  0.00  0.00    -0.090 HD
ENDBRANCH   5  18
BRANCH   3  22
ATOM     22  C   LIG d   1       0.434  86.566 116.135  0.00  0.00     0.382 C 
ATOM     23  O   LIG d   1       0.662  85.553 116.840  0.00  0.00    -0.241 OA
ATOM     24  O   LIG d   1      -0.011  86.422 114.981  0.00  0.00    -0.241 OA
ENDBRANCH   3  22
TORSDOF 7
ENDMDL
MODEL 7
REMARK VINA RESULT:      -4.2      4.786      8.372
REMARK  7 active torsions:
REMARK  status: ('A' for Active; 'I' for Inactive)
REMARK    1  A    between atoms: C_2  and  C_3 
REMARK    2  A    between atoms: C_3  and  O_6 
REMARK    3  A    between atoms: C_3  and  C_4 
REMARK    4  A    between atoms: C_7  and  O_6 
REMARK    5  A    between atoms: C_9  and  C_10 
REMARK    6  A    between atoms: N_15  and  C_14 
REMARK    7  A    between atoms: N_20  and  C_19 
REMARK       I    between atoms: C_22  and  N_20 
ROOT
ATOM      1  C   LIG d   1       1.305  90.429 119.235  0.00  0.00     0.161 C 
ATOM      2  C   LIG d   1       2.029  91.469 119.841  0.00  0.00     0.016 C 
ATOM      3  C   LIG d   1       3.152  92.087 119.243  0.00  0.00     0.038 C 
ATOM      4  C   LIG d   1       3.537  91.807 117.923  0.00  0.00     0.028 C 
ATOM      5  C   LIG d   1       3.145  90.407 117.462  0.00  0.00    -0.047 C 
ATOM      6  C   LIG d   1       1.642  90.186 117.749  0.00  0.00     0.091 C 
ENDROOT
BRANCH   1   7
ATOM      7  O   LIG d   1      -0.108  90.659 119.397  0.00  0.00    -0.368 OA
BRANCH   7   8
ATOM      8  C   LIG d   1      -0.652  91.805 118.697  0.00  0.00     0.119 C 
BRANCH   8   9
ATOM      9  C   LIG d   1      -1.450  92.637 119.719  0.00  0.00     0.028 C 
ATOM     10  C   LIG d   1      -0.689  93.894 120.174  0.00  0.00     0.006 C 
ENDBRANCH   8   9
BRANCH   8  11
ATOM     11  C   LIG d   1      -1.672  91.378 117.637  0.00  0.00     0.028 C 
ATOM     12  C   LIG d   1      -2.397  90.072 118.000  0.00  0.00     0.006 C 
ENDBRANCH   8  11
ENDBRANCH   7   8
ENDBRANCH   1   7
BRANCH   6  13
ATOM     13  N   LIG d   1       1.196  88.811 117.405  0.00  0.00    -0.311 N 
ATOM     14  C   LIG d   1       0.580  88.504 116.265  0.00  0.00     0.210 C 
ATOM     15  C   LIG d   1       0.187  87.030 116.119  0.00  0.00     0.109 C 
ATOM     16  O   LIG d   1       0.351  89.305 115.347  0.00  0.00    -0.276 OA
ATOM     17  H   LIG d   1       1.370  88.093 118.081  0.00  0.00     0.149 HD
ENDBRANCH   6  13
BRANCH   5  18
ATOM     18  N   LIG d   1       3.483  90.299 116.030  0.00  0.00     0.381 N 
ATOM     19  H   LIG d   1       4.030  89.476 115.872  0.00  0.00    -0.090 HD
ATOM     20  H   LIG d   1       4.031  91.098 115.764  0.00  0.00    -0.090 HD
ATOM     21  H   LIG d   1       2.649  90.262 115.485  0.00  0.00    -0.090 HD
ENDBRANCH   5  18
BRANCH   3  22
ATOM     22  C   LIG d   1       3.926  92.968 119.982  0.00  0.00     0.382 C 
ATOM     23  O   LIG d   1       5.176  92.943 119.878  0.00  0.00    -0.241 OA
ATOM     24  O   LIG d   1       3.393  93.758 120.784  0.00  0.00    -0.241 OA
ENDBRANCH   3  22
TORSDOF 7
ENDMDL
MODEL 8
REMARK VINA RESULT:      -4.1      3.259      5.754
REMARK  7 active torsions:
REMARK  status: ('A' for Active; 'I' for Inactive)
REMARK    1  A    between atoms: C_2  and  C_3 
REMARK    2  A    between atoms: C_3  and  O_6 
REMARK    3  A    between atoms: C_3  and  C_4 
REMARK    4  A    between atoms: C_7  and  O_6 
REMARK    5  A    between atoms: C_9  and  C_10 
REMARK    6  A    between atoms: N_15  and  C_14 
REMARK    7  A    between atoms: N_20  and  C_19 
REMARK       I    between atoms: C_22  and  N_20 
ROOT
ATOM      1  C   LIG d   1      -1.090  91.538 118.591  0.00  0.00     0.161 C 
ATOM      2  C   LIG d   1      -1.164  90.655 117.501  0.00  0.00     0.016 C 
ATOM      3  C   LIG d   1      -0.143  89.733 117.175  0.00  0.00     0.038 C 
ATOM      4  C   LIG d   1       0.964  89.527 118.012  0.00  0.00     0.028 C 
ATOM      5  C   LIG d   1       1.326  90.748 118.850  0.00  0.00    -0.047 C 
ATOM      6  C   LIG d   1       0.059  91.250 119.579  0.00  0.00     0.091 C 
ENDROOT
BRANCH   1   7
ATOM      7  O   LIG d   1      -2.353  91.565 119.284  0.00  0.00    -0.368 OA
BRANCH   7   8
ATOM      8  C   LIG d   1      -3.241  92.659 118.949  0.00  0.00     0.119 C 
BRANCH   8   9
ATOM      9  C   LIG d   1      -3.200  93.664 120.117  0.00  0.00     0.028 C 
ATOM     10  C   LIG d   1      -3.642  95.075 119.694  0.00  0.00     0.006 C 
ENDBRANCH   8   9
BRANCH   8  11
ATOM     11  C   LIG d   1      -4.697  92.191 118.869  0.00  0.00     0.028 C 
ATOM     12  C   LIG d   1      -5.008  91.431 117.570  0.00  0.00     0.006 C 
ENDBRANCH   8  11
ENDBRANCH   7   8
ENDBRANCH   1   7
BRANCH   6  13
ATOM     13  N   LIG d   1       0.307  92.493 120.356  0.00  0.00    -0.311 N 
ATOM     14  C   LIG d   1       0.727  93.630 119.804  0.00  0.00     0.210 C 
ATOM     15  C   LIG d   1       0.939  94.786 120.787  0.00  0.00     0.109 C 
ATOM     16  O   LIG d   1       0.914  93.801 118.590  0.00  0.00    -0.276 OA
ATOM     17  H   LIG d   1       0.150  92.453 121.344  0.00  0.00     0.149 HD
ENDBRANCH   6  13
BRANCH   5  18
ATOM     18  N   LIG d   1       2.406  90.351 119.773  0.00  0.00     0.381 N 
ATOM     19  H   LIG d   1       2.038  90.243 120.697  0.00  0.00    -0.090 HD
ATOM     20  H   LIG d   1       3.100  91.077 119.793  0.00  0.00    -0.090 HD
ATOM     21  H   LIG d   1       2.817  89.496 119.469  0.00  0.00    -0.090 HD
ENDBRANCH   5  18
BRANCH   3  22
ATOM     22  C   LIG d   1      -0.203  89.035 115.979  0.00  0.00     0.382 C 
ATOM     23  O   LIG d   1       0.241  89.554 114.926  0.00  0.00    -0.241 OA
ATOM     24  O   LIG d   1      -0.736  87.910 115.930  0.00  0.00    -0.241 OA
ENDBRANCH   3  22
TORSDOF 7
ENDMDL
MODEL 9
REMARK VINA RESULT:      -4.1      2.544      3.573
REMARK  7 active torsions:
REMARK  status: ('A' for Active; 'I' for Inactive)
REMARK    1  A    between atoms: C_2  and  C_3 
REMARK    2  A    between atoms: C_3  and  O_6 
REMARK    3  A    between atoms: C_3  and  C_4 
REMARK    4  A    between atoms: C_7  and  O_6 
REMARK    5  A    between atoms: C_9  and  C_10 
REMARK    6  A    between atoms: N_15  and  C_14 
REMARK    7  A    between atoms: N_20  and  C_19 
REMARK       I    between atoms: C_22  and  N_20 
ROOT
ATOM      1  C   LIG d   1      -4.812  93.409 119.780  0.00  0.00     0.161 C 
ATOM      2  C   LIG d   1      -6.130  93.325 119.301  0.00  0.00     0.016 C 
ATOM      3  C   LIG d   1      -7.026  94.419 119.296  0.00  0.00     0.038 C 
ATOM      4  C   LIG d   1      -6.614  95.717 119.631  0.00  0.00     0.028 C 
ATOM      5  C   LIG d   1      -5.435  95.748 120.598  0.00  0.00    -0.047 C 
ATOM      6  C   LIG d   1      -4.310  94.843 120.046  0.00  0.00     0.091 C 
ENDROOT
BRANCH   1   7
ATOM      7  O   LIG d   1      -3.920  92.725 118.877  0.00  0.00    -0.368 OA
BRANCH   7   8
ATOM      8  C   LIG d   1      -3.460  91.419 119.302  0.00  0.00     0.119 C 
BRANCH   8   9
ATOM      9  C   LIG d   1      -1.996  91.569 119.757  0.00  0.00     0.028 C 
ATOM     10  C   LIG d   1      -1.836  91.419 121.279  0.00  0.00     0.006 C 
ENDBRANCH   8   9
BRANCH   8  11
ATOM     11  C   LIG d   1      -3.422  90.433 118.131  0.00  0.00     0.028 C 
ATOM     12  C   LIG d   1      -1.999  89.950 117.805  0.00  0.00     0.006 C 
ENDBRANCH   8  11
ENDBRANCH   7   8
ENDBRANCH   1   7
BRANCH   6  13
ATOM     13  N   LIG d   1      -3.152  94.750 120.973  0.00  0.00    -0.311 N 
ATOM     14  C   LIG d   1      -2.080  95.537 120.888  0.00  0.00     0.210 C 
ATOM     15  C   LIG d   1      -0.992  95.260 121.930  0.00  0.00     0.109 C 
ATOM     16  O   LIG d   1      -1.942  96.458 120.070  0.00  0.00    -0.276 OA
ATOM     17  H   LIG d   1      -3.194  94.050 121.687  0.00  0.00     0.149 HD
ENDBRANCH   6  13
BRANCH   5  18
ATOM     18  N   LIG d   1      -5.023  97.155 120.752  0.00  0.00     0.381 N 
ATOM     19  H   LIG d   1      -5.048  97.411 121.719  0.00  0.00    -0.090 HD
ATOM     20  H   LIG d   1      -5.670  97.741 120.255  0.00  0.00    -0.090 HD
ATOM     21  H   LIG d   1      -4.103  97.283 120.391  0.00  0.00    -0.090 HD
ENDBRANCH   5  18
BRANCH   3  22
ATOM     22  C   LIG d   1      -8.363  94.210 118.990  0.00  0.00     0.382 C 
ATOM     23  O   LIG d   1      -9.238  94.348 119.878  0.00  0.00    -0.241 OA
ATOM     24  O   LIG d   1      -8.699  93.843 117.848  0.00  0.00    -0.241 OA
ENDBRANCH   3  22
TORSDOF 7
ENDMDL
