MODEL 1
REMARK VINA RESULT:      -5.8      0.000      0.000
REMARK  7 active torsions:
REMARK  status: ('A' for Active; 'I' for Inactive)
REMARK    1  A    between atoms: C_2  and  C_3 
REMARK    2  A    between atoms: C_3  and  O_6 
REMARK    3  A    between atoms: C_3  and  C_4 
REMARK    4  A    between atoms: C_7  and  O_6 
REMARK    5  A    between atoms: C_9  and  C_10 
REMARK    6  A    between atoms: N_15  and  C_14 
REMARK    7  A    between atoms: N_20  and  C_19 
REMARK       I    between atoms: C_22  and  N_20 
ROOT
ATOM      1  C   LIG d   1      -6.757  92.651 118.065  0.00  0.00     0.161 C 
ATOM      2  C   LIG d   1      -5.720  93.382 118.668  0.00  0.00     0.016 C 
ATOM      3  C   LIG d   1      -4.349  93.116 118.446  0.00  0.00     0.038 C 
ATOM      4  C   LIG d   1      -3.919  92.193 117.481  0.00  0.00     0.028 C 
ATOM      5  C   LIG d   1      -4.928  91.080 117.217  0.00  0.00    -0.047 C 
ATOM      6  C   LIG d   1      -6.308  91.713 116.924  0.00  0.00     0.091 C 
ENDROOT
BRANCH   1   7
ATOM      7  O   LIG d   1      -7.782  93.550 117.599  0.00  0.00    -0.368 OA
BRANCH   7   8
ATOM      8  C   LIG d   1      -8.123  94.642 118.488  0.00  0.00     0.119 C 
BRANCH   8   9
ATOM      9  C   LIG d   1      -9.236  94.143 119.429  0.00  0.00     0.028 C 
ATOM     10  C   LIG d   1     -10.060  95.295 120.028  0.00  0.00     0.006 C 
ENDBRANCH   8   9
BRANCH   8  11
ATOM     11  C   LIG d   1      -8.739  95.815 117.719  0.00  0.00     0.028 C 
ATOM     12  C   LIG d   1      -7.721  96.925 117.410  0.00  0.00     0.006 C 
ENDBRANCH   8  11
ENDBRANCH   7   8
ENDBRANCH   1   7
BRANCH   6  13
ATOM     13  N   LIG d   1      -7.371  90.692 116.737  0.00  0.00    -0.311 N 
ATOM     14  C   LIG d   1      -7.645  90.125 115.563  0.00  0.00     0.210 C 
ATOM     15  C   LIG d   1      -8.794  89.112 115.586  0.00  0.00     0.109 C 
ATOM     16  O   LIG d   1      -7.025  90.342 114.511  0.00  0.00    -0.276 OA
ATOM     17  H   LIG d   1      -7.903  90.433 117.545  0.00  0.00     0.149 HD
ENDBRANCH   6  13
BRANCH   5  18
ATOM     18  N   LIG d   1      -4.414  90.270 116.096  0.00  0.00     0.381 N 
ATOM     19  H   LIG d   1      -4.325  90.841 115.279  0.00  0.00    -0.090 HD
ATOM     20  H   LIG d   1      -5.071  89.536 115.898  0.00  0.00    -0.090 HD
ATOM     21  H   LIG d   1      -3.530  89.880 116.335  0.00  0.00    -0.090 HD
ENDBRANCH   5  18
BRANCH   3  22
ATOM     22  C   LIG d   1      -3.392  93.751 119.223  0.00  0.00     0.382 C 
ATOM     23  O   LIG d   1      -3.479  94.983 119.444  0.00  0.00    -0.241 OA
ATOM     24  O   LIG d   1      -2.417  93.115 119.668  0.00  0.00    -0.241 OA
ENDBRANCH   3  22
TORSDOF 7
ENDMDL
MODEL 2
REMARK VINA RESULT:      -5.7      2.777      6.359
REMARK  7 active torsions:
REMARK  status: ('A' for Active; 'I' for Inactive)
REMARK    1  A    between atoms: C_2  and  C_3 
REMARK    2  A    between atoms: C_3  and  O_6 
REMARK    3  A    between atoms: C_3  and  C_4 
REMARK    4  A    between atoms: C_7  and  O_6 
REMARK    5  A    between atoms: C_9  and  C_10 
REMARK    6  A    between atoms: N_15  and  C_14 
REMARK    7  A    between atoms: N_20  and  C_19 
REMARK       I    between atoms: C_22  and  N_20 
ROOT
ATOM      1  C   LIG d   1      -4.819  91.890 117.848  0.00  0.00     0.161 C 
ATOM      2  C   LIG d   1      -5.053  90.982 116.803  0.00  0.00     0.016 C 
ATOM      3  C   LIG d   1      -5.988  91.212 115.767  0.00  0.00     0.038 C 
ATOM      4  C   LIG d   1      -6.648  92.441 115.623  0.00  0.00     0.028 C 
ATOM      5  C   LIG d   1      -6.819  93.194 116.938  0.00  0.00    -0.047 C 
ATOM      6  C   LIG d   1      -5.448  93.285 117.647  0.00  0.00     0.091 C 
ENDROOT
BRANCH   1   7
ATOM      7  O   LIG d   1      -3.402  92.010 118.084  0.00  0.00    -0.368 OA
BRANCH   7   8
ATOM      8  C   LIG d   1      -2.863  91.196 119.155  0.00  0.00     0.119 C 
BRANCH   8   9
ATOM      9  C   LIG d   1      -2.124  92.139 120.125  0.00  0.00     0.028 C 
ATOM     10  C   LIG d   1      -1.129  93.062 119.402  0.00  0.00     0.006 C 
ENDBRANCH   8   9
BRANCH   8  11
ATOM     11  C   LIG d   1      -1.795  90.229 118.637  0.00  0.00     0.028 C 
ATOM     12  C   LIG d   1      -2.364  88.846 118.284  0.00  0.00     0.006 C 
ENDBRANCH   8  11
ENDBRANCH   7   8
ENDBRANCH   1   7
BRANCH   6  13
ATOM     13  N   LIG d   1      -5.541  93.933 118.981  0.00  0.00    -0.311 N 
ATOM     14  C   LIG d   1      -4.693  94.870 119.401  0.00  0.00     0.210 C 
ATOM     15  C   LIG d   1      -4.957  95.392 120.817  0.00  0.00     0.109 C 
ATOM     16  O   LIG d   1      -3.768  95.342 118.724  0.00  0.00    -0.276 OA
ATOM     17  H   LIG d   1      -6.282  93.633 119.583  0.00  0.00     0.149 HD
ENDBRANCH   6  13
BRANCH   5  18
ATOM     18  N   LIG d   1      -7.395  94.515 116.623  0.00  0.00     0.381 N 
ATOM     19  H   LIG d   1      -8.330  94.569 116.975  0.00  0.00    -0.090 HD
ATOM     20  H   LIG d   1      -7.427  94.627 115.625  0.00  0.00    -0.090 HD
ATOM     21  H   LIG d   1      -6.839  95.235 117.028  0.00  0.00    -0.090 HD
ENDBRANCH   5  18
BRANCH   3  22
ATOM     22  C   LIG d   1      -6.300  90.189 114.884  0.00  0.00     0.382 C 
ATOM     23  O   LIG d   1      -7.465  90.087 114.430  0.00  0.00    -0.241 OA
ATOM     24  O   LIG d   1      -5.443  89.341 114.571  0.00  0.00    -0.241 OA
ENDBRANCH   3  22
TORSDOF 7
ENDMDL
MODEL 3
REMARK VINA RESULT:      -5.5      1.837      4.848
REMARK  7 active torsions:
REMARK  status: ('A' for Active; 'I' for Inactive)
REMARK    1  A    between atoms: C_2  and  C_3 
REMARK    2  A    between atoms: C_3  and  O_6 
REMARK    3  A    between atoms: C_3  and  C_4 
REMARK    4  A    between atoms: C_7  and  O_6 
REMARK    5  A    between atoms: C_9  and  C_10 
REMARK    6  A    between atoms: N_15  and  C_14 
REMARK    7  A    between atoms: N_20  and  C_19 
REMARK       I    between atoms: C_22  and  N_20 
ROOT
ATOM      1  C   LIG d   1      -6.512  93.711 117.634  0.00  0.00     0.161 C 
ATOM      2  C   LIG d   1      -6.987  92.551 117.000  0.00  0.00     0.016 C 
ATOM      3  C   LIG d   1      -6.174  91.428 116.723  0.00  0.00     0.038 C 
ATOM      4  C   LIG d   1      -4.858  91.329 117.200  0.00  0.00     0.028 C 
ATOM      5  C   LIG d   1      -4.185  92.682 117.404  0.00  0.00    -0.047 C 
ATOM      6  C   LIG d   1      -5.108  93.577 118.261  0.00  0.00     0.091 C 
ENDROOT
BRANCH   1   7
ATOM      7  O   LIG d   1      -7.463  94.151 118.625  0.00  0.00    -0.368 OA
BRANCH   7   8
ATOM      8  C   LIG d   1      -8.525  95.014 118.149  0.00  0.00     0.119 C 
BRANCH   8   9
ATOM      9  C   LIG d   1      -7.868  96.286 117.580  0.00  0.00     0.028 C 
ATOM     10  C   LIG d   1      -7.350  97.224 118.683  0.00  0.00     0.006 C 
ENDBRANCH   8   9
BRANCH   8  11
ATOM     11  C   LIG d   1      -9.409  95.496 119.303  0.00  0.00     0.028 C 
ATOM     12  C   LIG d   1      -9.931  94.344 120.175  0.00  0.00     0.006 C 
ENDBRANCH   8  11
ENDBRANCH   7   8
ENDBRANCH   1   7
BRANCH   6  13
ATOM     13  N   LIG d   1      -4.562  94.948 118.438  0.00  0.00    -0.311 N 
ATOM     14  C   LIG d   1      -3.861  95.326 119.506  0.00  0.00     0.210 C 
ATOM     15  C   LIG d   1      -3.409  96.789 119.498  0.00  0.00     0.109 C 
ATOM     16  O   LIG d   1      -3.542  94.578 120.443  0.00  0.00    -0.276 OA
ATOM     17  H   LIG d   1      -4.747  95.611 117.711  0.00  0.00     0.149 HD
ENDBRANCH   6  13
BRANCH   5  18
ATOM     18  N   LIG d   1      -2.873  92.436 118.032  0.00  0.00     0.381 N 
ATOM     19  H   LIG d   1      -2.147  92.534 117.351  0.00  0.00    -0.090 HD
ATOM     20  H   LIG d   1      -2.851  91.494 118.382  0.00  0.00    -0.090 HD
ATOM     21  H   LIG d   1      -2.726  93.079 118.779  0.00  0.00    -0.090 HD
ENDBRANCH   5  18
BRANCH   3  22
ATOM     22  C   LIG d   1      -6.664  90.405 115.926  0.00  0.00     0.382 C 
ATOM     23  O   LIG d   1      -7.902  90.257 115.787  0.00  0.00    -0.241 OA
ATOM     24  O   LIG d   1      -5.885  89.601 115.380  0.00  0.00    -0.241 OA
ENDBRANCH   3  22
TORSDOF 7
ENDMDL
MODEL 4
REMARK VINA RESULT:      -5.4      1.861      4.689
REMARK  7 active torsions:
REMARK  status: ('A' for Active; 'I' for Inactive)
REMARK    1  A    between atoms: C_2  and  C_3 
REMARK    2  A    between atoms: C_3  and  O_6 
REMARK    3  A    between atoms: C_3  and  C_4 
REMARK    4  A    between atoms: C_7  and  O_6 
REMARK    5  A    between atoms: C_9  and  C_10 
REMARK    6  A    between atoms: N_15  and  C_14 
REMARK    7  A    between atoms: N_20  and  C_19 
REMARK       I    between atoms: C_22  and  N_20 
ROOT
ATOM      1  C   LIG d   1      -6.413  93.678 117.882  0.00  0.00     0.161 C 
ATOM      2  C   LIG d   1      -6.935  92.533 117.256  0.00  0.00     0.016 C 
ATOM      3  C   LIG d   1      -6.140  91.435 116.855  0.00  0.00     0.038 C 
ATOM      4  C   LIG d   1      -4.781  91.341 117.191  0.00  0.00     0.028 C 
ATOM      5  C   LIG d   1      -4.108  92.697 117.376  0.00  0.00    -0.047 C 
ATOM      6  C   LIG d   1      -4.951  93.546 118.356  0.00  0.00     0.091 C 
ENDROOT
BRANCH   1   7
ATOM      7  O   LIG d   1      -7.263  94.065 118.980  0.00  0.00    -0.368 OA
BRANCH   7   8
ATOM      8  C   LIG d   1      -7.843  95.391 118.900  0.00  0.00     0.119 C 
BRANCH   8   9
ATOM      9  C   LIG d   1      -9.345  95.258 119.217  0.00  0.00     0.028 C 
ATOM     10  C   LIG d   1      -9.669  93.973 119.998  0.00  0.00     0.006 C 
ENDBRANCH   8   9
BRANCH   8  11
ATOM     11  C   LIG d   1      -7.777  95.943 117.473  0.00  0.00     0.028 C 
ATOM     12  C   LIG d   1      -7.387  97.429 117.427  0.00  0.00     0.006 C 
ENDBRANCH   8  11
ENDBRANCH   7   8
ENDBRANCH   1   7
BRANCH   6  13
ATOM     13  N   LIG d   1      -4.408  94.919 118.528  0.00  0.00    -0.311 N 
ATOM     14  C   LIG d   1      -3.996  95.403 119.699  0.00  0.00     0.210 C 
ATOM     15  C   LIG d   1      -3.491  96.848 119.659  0.00  0.00     0.109 C 
ATOM     16  O   LIG d   1      -3.971  94.762 120.760  0.00  0.00    -0.276 OA
ATOM     17  H   LIG d   1      -4.363  95.497 117.712  0.00  0.00     0.149 HD
ENDBRANCH   6  13
BRANCH   5  18
ATOM     18  N   LIG d   1      -2.736  92.451 117.857  0.00  0.00     0.381 N 
ATOM     19  H   LIG d   1      -2.125  93.169 117.521  0.00  0.00    -0.090 HD
ATOM     20  H   LIG d   1      -2.417  91.570 117.494  0.00  0.00    -0.090 HD
ATOM     21  H   LIG d   1      -2.722  92.433 118.853  0.00  0.00    -0.090 HD
ENDBRANCH   5  18
BRANCH   3  22
ATOM     22  C   LIG d   1      -6.696  90.433 116.075  0.00  0.00     0.382 C 
ATOM     23  O   LIG d   1      -5.953  89.616 115.480  0.00  0.00    -0.241 OA
ATOM     24  O   LIG d   1      -7.931  90.363 115.922  0.00  0.00    -0.241 OA
ENDBRANCH   3  22
TORSDOF 7
ENDMDL
MODEL 5
REMARK VINA RESULT:      -5.1      2.740      6.196
REMARK  7 active torsions:
REMARK  status: ('A' for Active; 'I' for Inactive)
REMARK    1  A    between atoms: C_2  and  C_3 
REMARK    2  A    between atoms: C_3  and  O_6 
REMARK    3  A    between atoms: C_3  and  C_4 
REMARK    4  A    between atoms: C_7  and  O_6 
REMARK    5  A    between atoms: C_9  and  C_10 
REMARK    6  A    between atoms: N_15  and  C_14 
REMARK    7  A    between atoms: N_20  and  C_19 
REMARK       I    between atoms: C_22  and  N_20 
ROOT
ATOM      1  C   LIG d   1      -4.649  92.350 118.198  0.00  0.00     0.161 C 
ATOM      2  C   LIG d   1      -4.871  91.275 117.322  0.00  0.00     0.016 C 
ATOM      3  C   LIG d   1      -5.859  91.287 116.310  0.00  0.00     0.038 C 
ATOM      4  C   LIG d   1      -6.596  92.442 116.007  0.00  0.00     0.028 C 
ATOM      5  C   LIG d   1      -6.758  93.386 117.194  0.00  0.00    -0.047 C 
ATOM      6  C   LIG d   1      -5.367  93.660 117.811  0.00  0.00     0.091 C 
ENDROOT
BRANCH   1   7
ATOM      7  O   LIG d   1      -3.233  92.579 118.342  0.00  0.00    -0.368 OA
BRANCH   7   8
ATOM      8  C   LIG d   1      -2.659  92.236 119.627  0.00  0.00     0.119 C 
BRANCH   8   9
ATOM      9  C   LIG d   1      -2.009  90.846 119.488  0.00  0.00     0.028 C 
ATOM     10  C   LIG d   1      -0.541  90.927 119.036  0.00  0.00     0.006 C 
ENDBRANCH   8   9
BRANCH   8  11
ATOM     11  C   LIG d   1      -3.744  92.070 120.696  0.00  0.00     0.028 C 
ATOM     12  C   LIG d   1      -3.505  92.955 121.930  0.00  0.00     0.006 C 
ENDBRANCH   8  11
ENDBRANCH   7   8
ENDBRANCH   1   7
BRANCH   6  13
ATOM     13  N   LIG d   1      -5.445  94.507 119.029  0.00  0.00    -0.311 N 
ATOM     14  C   LIG d   1      -4.570  95.473 119.307  0.00  0.00     0.210 C 
ATOM     15  C   LIG d   1      -4.822  96.213 120.624  0.00  0.00     0.109 C 
ATOM     16  O   LIG d   1      -3.628  95.807 118.573  0.00  0.00    -0.276 OA
ATOM     17  H   LIG d   1      -6.196  94.325 119.665  0.00  0.00     0.149 HD
ENDBRANCH   6  13
BRANCH   5  18
ATOM     18  N   LIG d   1      -7.424  94.607 116.704  0.00  0.00     0.381 N 
ATOM     19  H   LIG d   1      -7.515  94.567 115.708  0.00  0.00    -0.090 HD
ATOM     20  H   LIG d   1      -6.855  95.403 116.936  0.00  0.00    -0.090 HD
ATOM     21  H   LIG d   1      -8.322  94.698 117.124  0.00  0.00    -0.090 HD
ENDBRANCH   5  18
BRANCH   3  22
ATOM     22  C   LIG d   1      -6.146  90.122 115.616  0.00  0.00     0.382 C 
ATOM     23  O   LIG d   1      -7.252  89.552 115.777  0.00  0.00    -0.241 OA
ATOM     24  O   LIG d   1      -5.296  89.609 114.864  0.00  0.00    -0.241 OA
ENDBRANCH   3  22
TORSDOF 7
ENDMDL
MODEL 6
REMARK VINA RESULT:      -5.0      2.415      5.254
REMARK  7 active torsions:
REMARK  status: ('A' for Active; 'I' for Inactive)
REMARK    1  A    between atoms: C_2  and  C_3 
REMARK    2  A    between atoms: C_3  and  O_6 
REMARK    3  A    between atoms: C_3  and  C_4 
REMARK    4  A    between atoms: C_7  and  O_6 
REMARK    5  A    between atoms: C_9  and  C_10 
REMARK    6  A    between atoms: N_15  and  C_14 
REMARK    7  A    between atoms: N_20  and  C_19 
REMARK       I    between atoms: C_22  and  N_20 
ROOT
ATOM      1  C   LIG d   1      -3.633  92.479 118.062  0.00  0.00     0.161 C 
ATOM      2  C   LIG d   1      -3.446  93.579 118.915  0.00  0.00     0.016 C 
ATOM      3  C   LIG d   1      -4.421  94.582 119.116  0.00  0.00     0.038 C 
ATOM      4  C   LIG d   1      -5.717  94.473 118.590  0.00  0.00     0.028 C 
ATOM      5  C   LIG d   1      -5.785  93.637 117.316  0.00  0.00    -0.047 C 
ATOM      6  C   LIG d   1      -5.081  92.284 117.566  0.00  0.00     0.091 C 
ENDROOT
BRANCH   1   7
ATOM      7  O   LIG d   1      -3.156  91.278 118.701  0.00  0.00    -0.368 OA
BRANCH   7   8
ATOM      8  C   LIG d   1      -2.045  90.609 118.054  0.00  0.00     0.119 C 
BRANCH   8   9
ATOM      9  C   LIG d   1      -2.493  89.169 117.738  0.00  0.00     0.028 C 
ATOM     10  C   LIG d   1      -2.147  88.185 118.868  0.00  0.00     0.006 C 
ENDBRANCH   8   9
BRANCH   8  11
ATOM     11  C   LIG d   1      -0.853  90.464 119.004  0.00  0.00     0.028 C 
ATOM     12  C   LIG d   1      -0.129  91.795 119.259  0.00  0.00     0.006 C 
ENDBRANCH   8  11
ENDBRANCH   7   8
ENDBRANCH   1   7
BRANCH   6  13
ATOM     13  N   LIG d   1      -5.028  91.438 116.345  0.00  0.00    -0.311 N 
ATOM     14  C   LIG d   1      -5.995  90.592 115.997  0.00  0.00     0.210 C 
ATOM     15  C   LIG d   1      -5.732  89.802 114.711  0.00  0.00     0.109 C 
ATOM     16  O   LIG d   1      -7.061  90.444 116.613  0.00  0.00    -0.276 OA
ATOM     17  H   LIG d   1      -4.212  91.518 115.770  0.00  0.00     0.149 HD
ENDBRANCH   6  13
BRANCH   5  18
ATOM     18  N   LIG d   1      -7.207  93.490 116.954  0.00  0.00     0.381 N 
ATOM     19  H   LIG d   1      -7.303  92.817 116.220  0.00  0.00    -0.090 HD
ATOM     20  H   LIG d   1      -7.550  94.373 116.619  0.00  0.00    -0.090 HD
ATOM     21  H   LIG d   1      -7.734  93.202 117.750  0.00  0.00    -0.090 HD
ENDBRANCH   5  18
BRANCH   3  22
ATOM     22  C   LIG d   1      -4.091  95.731 119.819  0.00  0.00     0.382 C 
ATOM     23  O   LIG d   1      -2.971  96.270 119.648  0.00  0.00    -0.241 OA
ATOM     24  O   LIG d   1      -4.881  96.210 120.654  0.00  0.00    -0.241 OA
ENDBRANCH   3  22
TORSDOF 7
ENDMDL
MODEL 7
REMARK VINA RESULT:      -4.9      2.286      5.450
REMARK  7 active torsions:
REMARK  status: ('A' for Active; 'I' for Inactive)
REMARK    1  A    between atoms: C_2  and  C_3 
REMARK    2  A    between atoms: C_3  and  O_6 
REMARK    3  A    between atoms: C_3  and  C_4 
REMARK    4  A    between atoms: C_7  and  O_6 
REMARK    5  A    between atoms: C_9  and  C_10 
REMARK    6  A    between atoms: N_15  and  C_14 
REMARK    7  A    between atoms: N_20  and  C_19 
REMARK       I    between atoms: C_22  and  N_20 
ROOT
ATOM      1  C   LIG d   1      -4.322  92.333 118.818  0.00  0.00     0.161 C 
ATOM      2  C   LIG d   1      -5.557  92.988 118.961  0.00  0.00     0.016 C 
ATOM      3  C   LIG d   1      -6.661  92.762 118.109  0.00  0.00     0.038 C 
ATOM      4  C   LIG d   1      -6.655  91.747 117.140  0.00  0.00     0.028 C 
ATOM      5  C   LIG d   1      -5.259  91.407 116.629  0.00  0.00    -0.047 C 
ATOM      6  C   LIG d   1      -4.332  91.142 117.837  0.00  0.00     0.091 C 
ENDROOT
BRANCH   1   7
ATOM      7  O   LIG d   1      -3.838  91.914 120.110  0.00  0.00    -0.368 OA
BRANCH   7   8
ATOM      8  C   LIG d   1      -2.699  92.642 120.630  0.00  0.00     0.119 C 
BRANCH   8   9
ATOM      9  C   LIG d   1      -2.360  93.755 119.620  0.00  0.00     0.028 C 
ATOM     10  C   LIG d   1      -2.501  95.161 120.227  0.00  0.00     0.006 C 
ENDBRANCH   8   9
BRANCH   8  11
ATOM     11  C   LIG d   1      -1.452  91.755 120.690  0.00  0.00     0.028 C 
ATOM     12  C   LIG d   1      -0.332  92.238 119.755  0.00  0.00     0.006 C 
ENDBRANCH   8  11
ENDBRANCH   7   8
ENDBRANCH   1   7
BRANCH   6  13
ATOM     13  N   LIG d   1      -2.927  90.884 117.428  0.00  0.00    -0.311 N 
ATOM     14  C   LIG d   1      -2.307  89.722 117.626  0.00  0.00     0.210 C 
ATOM     15  C   LIG d   1      -0.853  89.675 117.147  0.00  0.00     0.109 C 
ATOM     16  O   LIG d   1      -2.833  88.716 118.125  0.00  0.00    -0.276 OA
ATOM     17  H   LIG d   1      -2.435  91.637 116.988  0.00  0.00     0.149 HD
ENDBRANCH   6  13
BRANCH   5  18
ATOM     18  N   LIG d   1      -5.385  90.243 115.731  0.00  0.00     0.381 N 
ATOM     19  H   LIG d   1      -5.643  90.549 114.814  0.00  0.00    -0.090 HD
ATOM     20  H   LIG d   1      -6.110  89.641 116.078  0.00  0.00    -0.090 HD
ATOM     21  H   LIG d   1      -4.521  89.747 115.692  0.00  0.00    -0.090 HD
ENDBRANCH   5  18
BRANCH   3  22
ATOM     22  C   LIG d   1      -7.775  93.583 118.194  0.00  0.00     0.382 C 
ATOM     23  O   LIG d   1      -8.515  93.533 119.206  0.00  0.00    -0.241 OA
ATOM     24  O   LIG d   1      -8.074  94.342 117.253  0.00  0.00    -0.241 OA
ENDBRANCH   3  22
TORSDOF 7
ENDMDL
MODEL 8
REMARK VINA RESULT:      -4.9      3.288      6.152
REMARK  7 active torsions:
REMARK  status: ('A' for Active; 'I' for Inactive)
REMARK    1  A    between atoms: C_2  and  C_3 
REMARK    2  A    between atoms: C_3  and  O_6 
REMARK    3  A    between atoms: C_3  and  C_4 
REMARK    4  A    between atoms: C_7  and  O_6 
REMARK    5  A    between atoms: C_9  and  C_10 
REMARK    6  A    between atoms: N_15  and  C_14 
REMARK    7  A    between atoms: N_20  and  C_19 
REMARK       I    between atoms: C_22  and  N_20 
ROOT
ATOM      1  C   LIG d   1      -2.528  91.529 118.607  0.00  0.00     0.161 C 
ATOM      2  C   LIG d   1      -1.785  92.371 119.451  0.00  0.00     0.016 C 
ATOM      3  C   LIG d   1      -2.149  93.708 119.731  0.00  0.00     0.038 C 
ATOM      4  C   LIG d   1      -3.369  94.251 119.303  0.00  0.00     0.028 C 
ATOM      5  C   LIG d   1      -3.908  93.602 118.032  0.00  0.00    -0.047 C 
ATOM      6  C   LIG d   1      -3.921  92.067 118.219  0.00  0.00     0.091 C 
ENDROOT
BRANCH   1   7
ATOM      7  O   LIG d   1      -2.644  90.221 119.201  0.00  0.00    -0.368 OA
BRANCH   7   8
ATOM      8  C   LIG d   1      -1.565  89.295 118.920  0.00  0.00     0.119 C 
BRANCH   8   9
ATOM      9  C   LIG d   1      -1.284  89.358 117.406  0.00  0.00     0.028 C 
ATOM     10  C   LIG d   1       0.219  89.458 117.092  0.00  0.00     0.006 C 
ENDBRANCH   8   9
BRANCH   8  11
ATOM     11  C   LIG d   1      -1.986  87.849 119.195  0.00  0.00     0.028 C 
ATOM     12  C   LIG d   1      -0.836  86.987 119.740  0.00  0.00     0.006 C 
ENDBRANCH   8  11
ENDBRANCH   7   8
ENDBRANCH   1   7
BRANCH   6  13
ATOM     13  N   LIG d   1      -4.355  91.350 116.992  0.00  0.00    -0.311 N 
ATOM     14  C   LIG d   1      -5.630  91.091 116.706  0.00  0.00     0.210 C 
ATOM     15  C   LIG d   1      -5.857  90.323 115.400  0.00  0.00     0.109 C 
ATOM     16  O   LIG d   1      -6.597  91.453 117.394  0.00  0.00    -0.276 OA
ATOM     17  H   LIG d   1      -3.638  91.048 116.362  0.00  0.00     0.149 HD
ENDBRANCH   6  13
BRANCH   5  18
ATOM     18  N   LIG d   1      -5.247  94.165 117.777  0.00  0.00     0.381 N 
ATOM     19  H   LIG d   1      -5.160  95.054 117.326  0.00  0.00    -0.090 HD
ATOM     20  H   LIG d   1      -5.715  94.302 118.655  0.00  0.00    -0.090 HD
ATOM     21  H   LIG d   1      -5.775  93.544 117.204  0.00  0.00    -0.090 HD
ENDBRANCH   5  18
BRANCH   3  22
ATOM     22  C   LIG d   1      -1.266  94.531 120.415  0.00  0.00     0.382 C 
ATOM     23  O   LIG d   1      -1.609  95.049 121.505  0.00  0.00    -0.241 OA
ATOM     24  O   LIG d   1      -0.149  94.797 119.933  0.00  0.00    -0.241 OA
ENDBRANCH   3  22
TORSDOF 7
ENDMDL
MODEL 9
REMARK VINA RESULT:      -4.8      2.562      5.492
REMARK  7 active torsions:
REMARK  status: ('A' for Active; 'I' for Inactive)
REMARK    1  A    between atoms: C_2  and  C_3 
REMARK    2  A    between atoms: C_3  and  O_6 
REMARK    3  A    between atoms: C_3  and  C_4 
REMARK    4  A    between atoms: C_7  and  O_6 
REMARK    5  A    between atoms: C_9  and  C_10 
REMARK    6  A    between atoms: N_15  and  C_14 
REMARK    7  A    between atoms: N_20  and  C_19 
REMARK       I    between atoms: C_22  and  N_20 
ROOT
ATOM      1  C   LIG d   1      -4.890  93.157 118.351  0.00  0.00     0.161 C 
ATOM      2  C   LIG d   1      -4.765  92.114 117.419  0.00  0.00     0.016 C 
ATOM      3  C   LIG d   1      -5.672  91.909 116.354  0.00  0.00     0.038 C 
ATOM      4  C   LIG d   1      -6.687  92.831 116.057  0.00  0.00     0.028 C 
ATOM      5  C   LIG d   1      -7.157  93.625 117.270  0.00  0.00    -0.047 C 
ATOM      6  C   LIG d   1      -5.927  94.237 117.977  0.00  0.00     0.091 C 
ENDROOT
BRANCH   1   7
ATOM      7  O   LIG d   1      -3.601  93.760 118.585  0.00  0.00    -0.368 OA
BRANCH   7   8
ATOM      8  C   LIG d   1      -3.064  93.615 119.923  0.00  0.00     0.119 C 
BRANCH   8   9
ATOM      9  C   LIG d   1      -3.874  92.512 120.630  0.00  0.00     0.028 C 
ATOM     10  C   LIG d   1      -4.533  93.008 121.928  0.00  0.00     0.006 C 
ENDBRANCH   8   9
BRANCH   8  11
ATOM     11  C   LIG d   1      -3.291  94.881 120.754  0.00  0.00     0.028 C 
ATOM     12  C   LIG d   1      -2.819  96.157 120.038  0.00  0.00     0.006 C 
ENDBRANCH   8  11
ENDBRANCH   7   8
ENDBRANCH   1   7
BRANCH   6  13
ATOM     13  N   LIG d   1      -6.290  94.961 119.223  0.00  0.00    -0.311 N 
ATOM     14  C   LIG d   1      -6.536  96.270 119.266  0.00  0.00     0.210 C 
ATOM     15  C   LIG d   1      -6.874  96.819 120.655  0.00  0.00     0.109 C 
ATOM     16  O   LIG d   1      -6.538  97.021 118.279  0.00  0.00    -0.276 OA
ATOM     17  H   LIG d   1      -6.342  94.422 120.065  0.00  0.00     0.149 HD
ENDBRANCH   6  13
BRANCH   5  18
ATOM     18  N   LIG d   1      -8.115  94.641 116.794  0.00  0.00     0.381 N 
ATOM     19  H   LIG d   1      -8.276  95.318 117.512  0.00  0.00    -0.090 HD
ATOM     20  H   LIG d   1      -8.989  94.191 116.584  0.00  0.00    -0.090 HD
ATOM     21  H   LIG d   1      -7.759  95.089 115.978  0.00  0.00    -0.090 HD
ENDBRANCH   5  18
BRANCH   3  22
ATOM     22  C   LIG d   1      -5.592  90.750 115.596  0.00  0.00     0.382 C 
ATOM     23  O   LIG d   1      -6.321  90.611 114.584  0.00  0.00    -0.241 OA
ATOM     24  O   LIG d   1      -4.832  89.824 115.937  0.00  0.00    -0.241 OA
ENDBRANCH   3  22
TORSDOF 7
ENDMDL
