MODEL 1
REMARK VINA RESULT:      -5.5      0.000      0.000
REMARK  7 active torsions:
REMARK  status: ('A' for Active; 'I' for Inactive)
REMARK    1  A    between atoms: C_2  and  C_3 
REMARK    2  A    between atoms: C_3  and  O_6 
REMARK    3  A    between atoms: C_3  and  C_4 
REMARK    4  A    between atoms: C_7  and  O_6 
REMARK    5  A    between atoms: C_9  and  C_10 
REMARK    6  A    between atoms: N_15  and  C_14 
REMARK    7  A    between atoms: N_20  and  C_19 
REMARK       I    between atoms: C_22  and  N_20 
ROOT
ATOM      1  C   LIG d   1      -6.101  92.423 118.780  0.00  0.00     0.161 C 
ATOM      2  C   LIG d   1      -4.967  92.905 119.455  0.00  0.00     0.016 C 
ATOM      3  C   LIG d   1      -3.648  92.497 119.151  0.00  0.00     0.038 C 
ATOM      4  C   LIG d   1      -3.360  91.688 118.042  0.00  0.00     0.028 C 
ATOM      5  C   LIG d   1      -4.514  90.776 117.641  0.00  0.00    -0.047 C 
ATOM      6  C   LIG d   1      -5.798  91.625 117.495  0.00  0.00     0.091 C 
ENDROOT
BRANCH   1   7
ATOM      7  O   LIG d   1      -6.999  93.514 118.493  0.00  0.00    -0.368 OA
BRANCH   7   8
ATOM      8  C   LIG d   1      -7.091  94.546 119.505  0.00  0.00     0.119 C 
BRANCH   8   9
ATOM      9  C   LIG d   1      -8.250  94.168 120.448  0.00  0.00     0.028 C 
ATOM     10  C   LIG d   1      -7.833  94.190 121.928  0.00  0.00     0.006 C 
ENDBRANCH   8   9
BRANCH   8  11
ATOM     11  C   LIG d   1      -7.490  95.892 118.893  0.00  0.00     0.028 C 
ATOM     12  C   LIG d   1      -8.994  95.987 118.591  0.00  0.00     0.006 C 
ENDBRANCH   8  11
ENDBRANCH   7   8
ENDBRANCH   1   7
BRANCH   6  13
ATOM     13  N   LIG d   1      -6.993  90.798 117.187  0.00  0.00    -0.311 N 
ATOM     14  C   LIG d   1      -7.357  90.468 115.949  0.00  0.00     0.210 C 
ATOM     15  C   LIG d   1      -8.633  89.625 115.853  0.00  0.00     0.109 C 
ATOM     16  O   LIG d   1      -6.727  90.766 114.923  0.00  0.00    -0.276 OA
ATOM     17  H   LIG d   1      -7.545  90.486 117.962  0.00  0.00     0.149 HD
ENDBRANCH   6  13
BRANCH   5  18
ATOM     18  N   LIG d   1      -4.129  90.091 116.393  0.00  0.00     0.381 N 
ATOM     19  H   LIG d   1      -3.605  89.266 116.606  0.00  0.00    -0.090 HD
ATOM     20  H   LIG d   1      -3.545  90.705 115.852  0.00  0.00    -0.090 HD
ATOM     21  H   LIG d   1      -4.943  89.850 115.871  0.00  0.00    -0.090 HD
ENDBRANCH   5  18
BRANCH   3  22
ATOM     22  C   LIG d   1      -2.604  92.868 119.985  0.00  0.00     0.382 C 
ATOM     23  O   LIG d   1      -2.667  93.943 120.628  0.00  0.00    -0.241 OA
ATOM     24  O   LIG d   1      -1.581  92.162 120.068  0.00  0.00    -0.241 OA
ENDBRANCH   3  22
TORSDOF 7
ENDMDL
MODEL 2
REMARK VINA RESULT:      -5.0      2.547      5.386
REMARK  7 active torsions:
REMARK  status: ('A' for Active; 'I' for Inactive)
REMARK    1  A    between atoms: C_2  and  C_3 
REMARK    2  A    between atoms: C_3  and  O_6 
REMARK    3  A    between atoms: C_3  and  C_4 
REMARK    4  A    between atoms: C_7  and  O_6 
REMARK    5  A    between atoms: C_9  and  C_10 
REMARK    6  A    between atoms: N_15  and  C_14 
REMARK    7  A    between atoms: N_20  and  C_19 
REMARK       I    between atoms: C_22  and  N_20 
ROOT
ATOM      1  C   LIG d   1      -3.828  90.727 118.038  0.00  0.00     0.161 C 
ATOM      2  C   LIG d   1      -3.053  91.306 119.056  0.00  0.00     0.016 C 
ATOM      3  C   LIG d   1      -3.548  92.283 119.951  0.00  0.00     0.038 C 
ATOM      4  C   LIG d   1      -4.904  92.639 119.983  0.00  0.00     0.028 C 
ATOM      5  C   LIG d   1      -5.612  92.453 118.645  0.00  0.00    -0.047 C 
ATOM      6  C   LIG d   1      -5.340  91.021 118.129  0.00  0.00     0.091 C 
ENDROOT
BRANCH   1   7
ATOM      7  O   LIG d   1      -3.596  89.305 117.997  0.00  0.00    -0.368 OA
BRANCH   7   8
ATOM      8  C   LIG d   1      -2.453  88.824 118.746  0.00  0.00     0.119 C 
BRANCH   8   9
ATOM      9  C   LIG d   1      -1.477  88.182 117.741  0.00  0.00     0.028 C 
ATOM     10  C   LIG d   1      -0.312  89.118 117.375  0.00  0.00     0.006 C 
ENDBRANCH   8   9
BRANCH   8  11
ATOM     11  C   LIG d   1      -2.849  87.695 119.703  0.00  0.00     0.028 C 
ATOM     12  C   LIG d   1      -1.832  86.544 119.720  0.00  0.00     0.006 C 
ENDBRANCH   8  11
ENDBRANCH   7   8
ENDBRANCH   1   7
BRANCH   6  13
ATOM     13  N   LIG d   1      -5.926  90.782 116.785  0.00  0.00    -0.311 N 
ATOM     14  C   LIG d   1      -7.150  90.291 116.596  0.00  0.00     0.210 C 
ATOM     15  C   LIG d   1      -7.552  90.104 115.129  0.00  0.00     0.109 C 
ATOM     16  O   LIG d   1      -7.953  90.023 117.502  0.00  0.00    -0.276 OA
ATOM     17  H   LIG d   1      -5.355  91.002 115.992  0.00  0.00     0.149 HD
ENDBRANCH   6  13
BRANCH   5  18
ATOM     18  N   LIG d   1      -7.045  92.728 118.857  0.00  0.00     0.381 N 
ATOM     19  H   LIG d   1      -7.591  91.956 118.530  0.00  0.00    -0.090 HD
ATOM     20  H   LIG d   1      -7.302  93.543 118.327  0.00  0.00    -0.090 HD
ATOM     21  H   LIG d   1      -7.224  92.883 119.825  0.00  0.00    -0.090 HD
ENDBRANCH   5  18
BRANCH   3  22
ATOM     22  C   LIG d   1      -2.673  92.945 120.799  0.00  0.00     0.382 C 
ATOM     23  O   LIG d   1      -1.462  93.056 120.488  0.00  0.00    -0.241 OA
ATOM     24  O   LIG d   1      -3.069  93.393 121.891  0.00  0.00    -0.241 OA
ENDBRANCH   3  22
TORSDOF 7
ENDMDL
MODEL 3
REMARK VINA RESULT:      -4.9      1.632      4.653
REMARK  7 active torsions:
REMARK  status: ('A' for Active; 'I' for Inactive)
REMARK    1  A    between atoms: C_2  and  C_3 
REMARK    2  A    between atoms: C_3  and  O_6 
REMARK    3  A    between atoms: C_3  and  C_4 
REMARK    4  A    between atoms: C_7  and  O_6 
REMARK    5  A    between atoms: C_9  and  C_10 
REMARK    6  A    between atoms: N_15  and  C_14 
REMARK    7  A    between atoms: N_20  and  C_19 
REMARK       I    between atoms: C_22  and  N_20 
ROOT
ATOM      1  C   LIG d   1      -5.503  92.637 118.564  0.00  0.00     0.161 C 
ATOM      2  C   LIG d   1      -6.531  91.983 117.863  0.00  0.00     0.016 C 
ATOM      3  C   LIG d   1      -6.306  90.898 116.985  0.00  0.00     0.038 C 
ATOM      4  C   LIG d   1      -5.047  90.291 116.863  0.00  0.00     0.028 C 
ATOM      5  C   LIG d   1      -3.888  91.235 117.164  0.00  0.00    -0.047 C 
ATOM      6  C   LIG d   1      -4.138  91.918 118.529  0.00  0.00     0.091 C 
ENDROOT
BRANCH   1   7
ATOM      7  O   LIG d   1      -5.912  92.870 119.926  0.00  0.00    -0.368 OA
BRANCH   7   8
ATOM      8  C   LIG d   1      -6.092  94.256 120.309  0.00  0.00     0.119 C 
BRANCH   8   9
ATOM      9  C   LIG d   1      -7.250  94.309 121.325  0.00  0.00     0.028 C 
ATOM     10  C   LIG d   1      -8.625  94.401 120.643  0.00  0.00     0.006 C 
ENDBRANCH   8   9
BRANCH   8  11
ATOM     11  C   LIG d   1      -6.556  95.106 119.122  0.00  0.00     0.028 C 
ATOM     12  C   LIG d   1      -5.784  96.429 118.999  0.00  0.00     0.006 C 
ENDBRANCH   8  11
ENDBRANCH   7   8
ENDBRANCH   1   7
BRANCH   6  13
ATOM     13  N   LIG d   1      -3.093  92.921 118.861  0.00  0.00    -0.311 N 
ATOM     14  C   LIG d   1      -2.014  92.641 119.590  0.00  0.00     0.210 C 
ATOM     15  C   LIG d   1      -1.072  93.825 119.831  0.00  0.00     0.109 C 
ATOM     16  O   LIG d   1      -1.731  91.518 120.033  0.00  0.00    -0.276 OA
ATOM     17  H   LIG d   1      -3.227  93.851 118.515  0.00  0.00     0.149 HD
ENDBRANCH   6  13
BRANCH   5  18
ATOM     18  N   LIG d   1      -2.646  90.440 117.135  0.00  0.00     0.381 N 
ATOM     19  H   LIG d   1      -2.065  90.690 117.910  0.00  0.00    -0.090 HD
ATOM     20  H   LIG d   1      -2.148  90.647 116.287  0.00  0.00    -0.090 HD
ATOM     21  H   LIG d   1      -2.863  89.468 117.173  0.00  0.00    -0.090 HD
ENDBRANCH   5  18
BRANCH   3  22
ATOM     22  C   LIG d   1      -7.341  90.434 116.187  0.00  0.00     0.382 C 
ATOM     23  O   LIG d   1      -7.947  91.225 115.424  0.00  0.00    -0.241 OA
ATOM     24  O   LIG d   1      -7.706  89.245 116.254  0.00  0.00    -0.241 OA
ENDBRANCH   3  22
TORSDOF 7
ENDMDL
MODEL 4
REMARK VINA RESULT:      -4.8      2.691      6.826
REMARK  7 active torsions:
REMARK  status: ('A' for Active; 'I' for Inactive)
REMARK    1  A    between atoms: C_2  and  C_3 
REMARK    2  A    between atoms: C_3  and  O_6 
REMARK    3  A    between atoms: C_3  and  C_4 
REMARK    4  A    between atoms: C_7  and  O_6 
REMARK    5  A    between atoms: C_9  and  C_10 
REMARK    6  A    between atoms: N_15  and  C_14 
REMARK    7  A    between atoms: N_20  and  C_19 
REMARK       I    between atoms: C_22  and  N_20 
ROOT
ATOM      1  C   LIG d   1      -4.150  90.604 117.896  0.00  0.00     0.161 C 
ATOM      2  C   LIG d   1      -5.065  90.123 116.945  0.00  0.00     0.016 C 
ATOM      3  C   LIG d   1      -6.247  90.811 116.585  0.00  0.00     0.038 C 
ATOM      4  C   LIG d   1      -6.520  92.108 117.045  0.00  0.00     0.028 C 
ATOM      5  C   LIG d   1      -5.878  92.420 118.393  0.00  0.00    -0.047 C 
ATOM      6  C   LIG d   1      -4.374  92.069 118.326  0.00  0.00     0.091 C 
ENDROOT
BRANCH   1   7
ATOM      7  O   LIG d   1      -2.804  90.424 117.413  0.00  0.00    -0.368 OA
BRANCH   7   8
ATOM      8  C   LIG d   1      -1.935  89.609 118.237  0.00  0.00     0.119 C 
BRANCH   8   9
ATOM      9  C   LIG d   1      -0.580  89.495 117.511  0.00  0.00     0.028 C 
ATOM     10  C   LIG d   1      -0.114  88.037 117.363  0.00  0.00     0.006 C 
ENDBRANCH   8   9
BRANCH   8  11
ATOM     11  C   LIG d   1      -2.457  88.173 118.347  0.00  0.00     0.028 C 
ATOM     12  C   LIG d   1      -2.825  87.782 119.787  0.00  0.00     0.006 C 
ENDBRANCH   8  11
ENDBRANCH   7   8
ENDBRANCH   1   7
BRANCH   6  13
ATOM     13  N   LIG d   1      -3.687  92.265 119.629  0.00  0.00    -0.311 N 
ATOM     14  C   LIG d   1      -2.611  93.034 119.782  0.00  0.00     0.210 C 
ATOM     15  C   LIG d   1      -2.048  93.082 121.206  0.00  0.00     0.109 C 
ATOM     16  O   LIG d   1      -2.088  93.706 118.881  0.00  0.00    -0.276 OA
ATOM     17  H   LIG d   1      -4.064  91.781 120.420  0.00  0.00     0.149 HD
ENDBRANCH   6  13
BRANCH   5  18
ATOM     18  N   LIG d   1      -6.127  93.844 118.686  0.00  0.00     0.381 N 
ATOM     19  H   LIG d   1      -7.110  94.027 118.664  0.00  0.00    -0.090 HD
ATOM     20  H   LIG d   1      -5.686  94.403 117.978  0.00  0.00    -0.090 HD
ATOM     21  H   LIG d   1      -5.758  94.077 119.582  0.00  0.00    -0.090 HD
ENDBRANCH   5  18
BRANCH   3  22
ATOM     22  C   LIG d   1      -7.192  90.183 115.787  0.00  0.00     0.382 C 
ATOM     23  O   LIG d   1      -7.451  90.638 114.647  0.00  0.00    -0.241 OA
ATOM     24  O   LIG d   1      -7.819  89.194 116.210  0.00  0.00    -0.241 OA
ENDBRANCH   3  22
TORSDOF 7
ENDMDL
MODEL 5
REMARK VINA RESULT:      -4.7      3.177      6.344
REMARK  7 active torsions:
REMARK  status: ('A' for Active; 'I' for Inactive)
REMARK    1  A    between atoms: C_2  and  C_3 
REMARK    2  A    between atoms: C_3  and  O_6 
REMARK    3  A    between atoms: C_3  and  C_4 
REMARK    4  A    between atoms: C_7  and  O_6 
REMARK    5  A    between atoms: C_9  and  C_10 
REMARK    6  A    between atoms: N_15  and  C_14 
REMARK    7  A    between atoms: N_20  and  C_19 
REMARK       I    between atoms: C_22  and  N_20 
ROOT
ATOM      1  C   LIG d   1      -5.124  94.315 120.767  0.00  0.00     0.161 C 
ATOM      2  C   LIG d   1      -6.496  94.051 120.625  0.00  0.00     0.016 C 
ATOM      3  C   LIG d   1      -7.335  94.748 119.725  0.00  0.00     0.038 C 
ATOM      4  C   LIG d   1      -6.823  95.661 118.791  0.00  0.00     0.028 C 
ATOM      5  C   LIG d   1      -5.526  96.326 119.241  0.00  0.00    -0.047 C 
ATOM      6  C   LIG d   1      -4.526  95.230 119.677  0.00  0.00     0.091 C 
ENDROOT
BRANCH   1   7
ATOM      7  O   LIG d   1      -4.392  93.076 120.836  0.00  0.00    -0.368 OA
BRANCH   7   8
ATOM      8  C   LIG d   1      -4.000  92.494 119.568  0.00  0.00     0.119 C 
BRANCH   8   9
ATOM      9  C   LIG d   1      -4.792  91.184 119.395  0.00  0.00     0.028 C 
ATOM     10  C   LIG d   1      -5.767  91.240 118.207  0.00  0.00     0.006 C 
ENDBRANCH   8   9
BRANCH   8  11
ATOM     11  C   LIG d   1      -2.526  92.079 119.578  0.00  0.00     0.028 C 
ATOM     12  C   LIG d   1      -1.812  92.387 118.252  0.00  0.00     0.006 C 
ENDBRANCH   8  11
ENDBRANCH   7   8
ENDBRANCH   1   7
BRANCH   6  13
ATOM     13  N   LIG d   1      -3.261  95.798 120.212  0.00  0.00    -0.311 N 
ATOM     14  C   LIG d   1      -2.184  96.024 119.462  0.00  0.00     0.210 C 
ATOM     15  C   LIG d   1      -0.979  96.595 120.215  0.00  0.00     0.109 C 
ATOM     16  O   LIG d   1      -2.123  95.835 118.237  0.00  0.00    -0.276 OA
ATOM     17  H   LIG d   1      -3.234  96.010 121.190  0.00  0.00     0.149 HD
ENDBRANCH   6  13
BRANCH   5  18
ATOM     18  N   LIG d   1      -5.033  97.146 118.119  0.00  0.00     0.381 N 
ATOM     19  H   LIG d   1      -4.916  98.093 118.417  0.00  0.00    -0.090 HD
ATOM     20  H   LIG d   1      -5.713  97.129 117.380  0.00  0.00    -0.090 HD
ATOM     21  H   LIG d   1      -4.165  96.785 117.789  0.00  0.00    -0.090 HD
ENDBRANCH   5  18
BRANCH   3  22
ATOM     22  C   LIG d   1      -8.708  94.564 119.782  0.00  0.00     0.382 C 
ATOM     23  O   LIG d   1      -9.195  93.721 120.573  0.00  0.00    -0.241 OA
ATOM     24  O   LIG d   1      -9.462  95.197 119.020  0.00  0.00    -0.241 OA
ENDBRANCH   3  22
TORSDOF 7
ENDMDL
MODEL 6
REMARK VINA RESULT:      -4.6      2.209      4.268
REMARK  7 active torsions:
REMARK  status: ('A' for Active; 'I' for Inactive)
REMARK    1  A    between atoms: C_2  and  C_3 
REMARK    2  A    between atoms: C_3  and  O_6 
REMARK    3  A    between atoms: C_3  and  C_4 
REMARK    4  A    between atoms: C_7  and  O_6 
REMARK    5  A    between atoms: C_9  and  C_10 
REMARK    6  A    between atoms: N_15  and  C_14 
REMARK    7  A    between atoms: N_20  and  C_19 
REMARK       I    between atoms: C_22  and  N_20 
ROOT
ATOM      1  C   LIG d   1      -4.889  92.398 119.961  0.00  0.00     0.161 C 
ATOM      2  C   LIG d   1      -3.897  91.491 119.554  0.00  0.00     0.016 C 
ATOM      3  C   LIG d   1      -3.890  90.863 118.287  0.00  0.00     0.038 C 
ATOM      4  C   LIG d   1      -4.799  91.216 117.279  0.00  0.00     0.028 C 
ATOM      5  C   LIG d   1      -6.120  91.755 117.816  0.00  0.00    -0.047 C 
ATOM      6  C   LIG d   1      -5.826  92.881 118.834  0.00  0.00     0.091 C 
ENDROOT
BRANCH   1   7
ATOM      7  O   LIG d   1      -4.279  93.524 120.622  0.00  0.00    -0.368 OA
BRANCH   7   8
ATOM      8  C   LIG d   1      -3.698  94.532 119.759  0.00  0.00     0.119 C 
BRANCH   8   9
ATOM      9  C   LIG d   1      -2.167  94.433 119.898  0.00  0.00     0.028 C 
ATOM     10  C   LIG d   1      -1.475  94.122 118.559  0.00  0.00     0.006 C 
ENDBRANCH   8   9
BRANCH   8  11
ATOM     11  C   LIG d   1      -4.057  95.944 120.231  0.00  0.00     0.028 C 
ATOM     12  C   LIG d   1      -3.879  97.003 119.131  0.00  0.00     0.006 C 
ENDBRANCH   8  11
ENDBRANCH   7   8
ENDBRANCH   1   7
BRANCH   6  13
ATOM     13  N   LIG d   1      -7.062  93.406 119.472  0.00  0.00    -0.311 N 
ATOM     14  C   LIG d   1      -7.528  94.636 119.265  0.00  0.00     0.210 C 
ATOM     15  C   LIG d   1      -8.806  94.982 120.035  0.00  0.00     0.109 C 
ATOM     16  O   LIG d   1      -7.022  95.463 118.491  0.00  0.00    -0.276 OA
ATOM     17  H   LIG d   1      -7.553  92.790 120.090  0.00  0.00     0.149 HD
ENDBRANCH   6  13
BRANCH   5  18
ATOM     18  N   LIG d   1      -6.918  92.213 116.663  0.00  0.00     0.381 N 
ATOM     19  H   LIG d   1      -7.889  92.220 116.904  0.00  0.00    -0.090 HD
ATOM     20  H   LIG d   1      -6.787  91.570 115.902  0.00  0.00    -0.090 HD
ATOM     21  H   LIG d   1      -6.628  93.126 116.389  0.00  0.00    -0.090 HD
ENDBRANCH   5  18
BRANCH   3  22
ATOM     22  C   LIG d   1      -2.990  89.839 118.033  0.00  0.00     0.382 C 
ATOM     23  O   LIG d   1      -3.290  88.655 118.320  0.00  0.00    -0.241 OA
ATOM     24  O   LIG d   1      -1.865  90.090 117.561  0.00  0.00    -0.241 OA
ENDBRANCH   3  22
TORSDOF 7
ENDMDL
MODEL 7
REMARK VINA RESULT:      -4.4      3.505      5.890
REMARK  7 active torsions:
REMARK  status: ('A' for Active; 'I' for Inactive)
REMARK    1  A    between atoms: C_2  and  C_3 
REMARK    2  A    between atoms: C_3  and  O_6 
REMARK    3  A    between atoms: C_3  and  C_4 
REMARK    4  A    between atoms: C_7  and  O_6 
REMARK    5  A    between atoms: C_9  and  C_10 
REMARK    6  A    between atoms: N_15  and  C_14 
REMARK    7  A    between atoms: N_20  and  C_19 
REMARK       I    between atoms: C_22  and  N_20 
ROOT
ATOM      1  C   LIG d   1      -1.843  90.243 117.792  0.00  0.00     0.161 C 
ATOM      2  C   LIG d   1      -0.894  90.685 118.728  0.00  0.00     0.016 C 
ATOM      3  C   LIG d   1      -1.117  91.766 119.611  0.00  0.00     0.038 C 
ATOM      4  C   LIG d   1      -2.371  92.385 119.723  0.00  0.00     0.028 C 
ATOM      5  C   LIG d   1      -3.202  92.305 118.447  0.00  0.00    -0.047 C 
ATOM      6  C   LIG d   1      -3.257  90.834 117.976  0.00  0.00     0.091 C 
ENDROOT
BRANCH   1   7
ATOM      7  O   LIG d   1      -1.899  88.802 117.795  0.00  0.00    -0.368 OA
BRANCH   7   8
ATOM      8  C   LIG d   1      -1.414  88.149 118.994  0.00  0.00     0.119 C 
BRANCH   8   9
ATOM      9  C   LIG d   1      -0.633  86.896 118.554  0.00  0.00     0.028 C 
ATOM     10  C   LIG d   1      -1.081  85.631 119.306  0.00  0.00     0.006 C 
ENDBRANCH   8   9
BRANCH   8  11
ATOM     11  C   LIG d   1      -2.571  87.626 119.851  0.00  0.00     0.028 C 
ATOM     12  C   LIG d   1      -2.792  88.457 121.124  0.00  0.00     0.006 C 
ENDBRANCH   8  11
ENDBRANCH   7   8
ENDBRANCH   1   7
BRANCH   6  13
ATOM     13  N   LIG d   1      -3.981  90.679 116.687  0.00  0.00    -0.311 N 
ATOM     14  C   LIG d   1      -5.287  90.434 116.605  0.00  0.00     0.210 C 
ATOM     15  C   LIG d   1      -5.830  90.289 115.180  0.00  0.00     0.109 C 
ATOM     16  O   LIG d   1      -6.054  90.355 117.576  0.00  0.00    -0.276 OA
ATOM     17  H   LIG d   1      -3.440  90.759 115.848  0.00  0.00     0.149 HD
ENDBRANCH   6  13
BRANCH   5  18
ATOM     18  N   LIG d   1      -4.533  92.866 118.747  0.00  0.00     0.381 N 
ATOM     19  H   LIG d   1      -4.446  93.832 118.991  0.00  0.00    -0.090 HD
ATOM     20  H   LIG d   1      -4.923  92.376 119.532  0.00  0.00    -0.090 HD
ATOM     21  H   LIG d   1      -5.130  92.769 117.955  0.00  0.00    -0.090 HD
ENDBRANCH   5  18
BRANCH   3  22
ATOM     22  C   LIG d   1      -0.066  92.264 120.367  0.00  0.00     0.382 C 
ATOM     23  O   LIG d   1       0.460  93.361 120.062  0.00  0.00    -0.241 OA
ATOM     24  O   LIG d   1       0.390  91.609 121.323  0.00  0.00    -0.241 OA
ENDBRANCH   3  22
TORSDOF 7
ENDMDL
MODEL 8
REMARK VINA RESULT:      -4.4      3.850      6.640
REMARK  7 active torsions:
REMARK  status: ('A' for Active; 'I' for Inactive)
REMARK    1  A    between atoms: C_2  and  C_3 
REMARK    2  A    between atoms: C_3  and  O_6 
REMARK    3  A    between atoms: C_3  and  C_4 
REMARK    4  A    between atoms: C_7  and  O_6 
REMARK    5  A    between atoms: C_9  and  C_10 
REMARK    6  A    between atoms: N_15  and  C_14 
REMARK    7  A    between atoms: N_20  and  C_19 
REMARK       I    between atoms: C_22  and  N_20 
ROOT
ATOM      1  C   LIG d   1      -0.750  91.157 118.058  0.00  0.00     0.161 C 
ATOM      2  C   LIG d   1       0.610  91.431 118.277  0.00  0.00     0.016 C 
ATOM      3  C   LIG d   1       1.136  92.740 118.366  0.00  0.00     0.038 C 
ATOM      4  C   LIG d   1       0.308  93.872 118.393  0.00  0.00     0.028 C 
ATOM      5  C   LIG d   1      -1.019  93.669 117.669  0.00  0.00    -0.047 C 
ATOM      6  C   LIG d   1      -1.685  92.377 118.196  0.00  0.00     0.091 C 
ENDROOT
BRANCH   1   7
ATOM      7  O   LIG d   1      -1.181  90.094 118.931  0.00  0.00    -0.368 OA
BRANCH   7   8
ATOM      8  C   LIG d   1      -1.561  88.854 118.285  0.00  0.00     0.119 C 
BRANCH   8   9
ATOM      9  C   LIG d   1      -2.822  88.328 118.998  0.00  0.00     0.028 C 
ATOM     10  C   LIG d   1      -2.504  87.208 120.002  0.00  0.00     0.006 C 
ENDBRANCH   8   9
BRANCH   8  11
ATOM     11  C   LIG d   1      -0.498  87.771 118.490  0.00  0.00     0.028 C 
ATOM     12  C   LIG d   1       0.347  87.520 117.231  0.00  0.00     0.006 C 
ENDBRANCH   8  11
ENDBRANCH   7   8
ENDBRANCH   1   7
BRANCH   6  13
ATOM     13  N   LIG d   1      -2.949  92.058 117.481  0.00  0.00    -0.311 N 
ATOM     14  C   LIG d   1      -4.071  91.696 118.100  0.00  0.00     0.210 C 
ATOM     15  C   LIG d   1      -5.252  91.393 117.174  0.00  0.00     0.109 C 
ATOM     16  O   LIG d   1      -4.209  91.629 119.331  0.00  0.00    -0.276 OA
ATOM     17  H   LIG d   1      -2.935  92.118 116.481  0.00  0.00     0.149 HD
ENDBRANCH   6  13
BRANCH   5  18
ATOM     18  N   LIG d   1      -1.838  94.875 117.893  0.00  0.00     0.381 N 
ATOM     19  H   LIG d   1      -2.791  94.613 118.051  0.00  0.00    -0.090 HD
ATOM     20  H   LIG d   1      -1.802  95.450 117.070  0.00  0.00    -0.090 HD
ATOM     21  H   LIG d   1      -1.491  95.382 118.677  0.00  0.00    -0.090 HD
ENDBRANCH   5  18
BRANCH   3  22
ATOM     22  C   LIG d   1       2.510  92.929 118.389  0.00  0.00     0.382 C 
ATOM     23  O   LIG d   1       3.123  92.940 119.483  0.00  0.00    -0.241 OA
ATOM     24  O   LIG d   1       3.137  93.132 117.332  0.00  0.00    -0.241 OA
ENDBRANCH   3  22
TORSDOF 7
ENDMDL
MODEL 9
REMARK VINA RESULT:      -4.3      2.217      4.739
REMARK  7 active torsions:
REMARK  status: ('A' for Active; 'I' for Inactive)
REMARK    1  A    between atoms: C_2  and  C_3 
REMARK    2  A    between atoms: C_3  and  O_6 
REMARK    3  A    between atoms: C_3  and  C_4 
REMARK    4  A    between atoms: C_7  and  O_6 
REMARK    5  A    between atoms: C_9  and  C_10 
REMARK    6  A    between atoms: N_15  and  C_14 
REMARK    7  A    between atoms: N_20  and  C_19 
REMARK       I    between atoms: C_22  and  N_20 
ROOT
ATOM      1  C   LIG d   1      -5.226  91.030 118.589  0.00  0.00     0.161 C 
ATOM      2  C   LIG d   1      -5.847  92.255 118.885  0.00  0.00     0.016 C 
ATOM      3  C   LIG d   1      -5.147  93.384 119.369  0.00  0.00     0.038 C 
ATOM      4  C   LIG d   1      -3.747  93.412 119.447  0.00  0.00     0.028 C 
ATOM      5  C   LIG d   1      -3.124  92.033 119.638  0.00  0.00    -0.047 C 
ATOM      6  C   LIG d   1      -3.684  91.076 118.562  0.00  0.00     0.091 C 
ENDROOT
BRANCH   1   7
ATOM      7  O   LIG d   1      -5.734  90.514 117.342  0.00  0.00    -0.368 OA
BRANCH   7   8
ATOM      8  C   LIG d   1      -7.089  90.896 116.999  0.00  0.00     0.119 C 
BRANCH   8   9
ATOM      9  C   LIG d   1      -7.875  89.602 116.711  0.00  0.00     0.028 C 
ATOM     10  C   LIG d   1      -8.902  89.780 115.580  0.00  0.00     0.006 C 
ENDBRANCH   8   9
BRANCH   8  11
ATOM     11  C   LIG d   1      -7.128  91.694 115.693  0.00  0.00     0.028 C 
ATOM     12  C   LIG d   1      -5.884  91.469 114.819  0.00  0.00     0.006 C 
ENDBRANCH   8  11
ENDBRANCH   7   8
ENDBRANCH   1   7
BRANCH   6  13
ATOM     13  N   LIG d   1      -3.190  89.684 118.728  0.00  0.00    -0.311 N 
ATOM     14  C   LIG d   1      -2.103  89.214 118.118  0.00  0.00     0.210 C 
ATOM     15  C   LIG d   1      -1.781  87.746 118.411  0.00  0.00     0.109 C 
ATOM     16  O   LIG d   1      -1.358  89.883 117.386  0.00  0.00    -0.276 OA
ATOM     17  H   LIG d   1      -3.717  89.082 119.330  0.00  0.00     0.149 HD
ENDBRANCH   6  13
BRANCH   5  18
ATOM     18  N   LIG d   1      -1.659  92.193 119.564  0.00  0.00     0.381 N 
ATOM     19  H   LIG d   1      -1.376  92.284 118.609  0.00  0.00    -0.090 HD
ATOM     20  H   LIG d   1      -1.223  91.371 119.945  0.00  0.00    -0.090 HD
ATOM     21  H   LIG d   1      -1.377  92.997 120.080  0.00  0.00    -0.090 HD
ENDBRANCH   5  18
BRANCH   3  22
ATOM     22  C   LIG d   1      -5.854  94.489 119.820  0.00  0.00     0.382 C 
ATOM     23  O   LIG d   1      -7.037  94.672 119.444  0.00  0.00    -0.241 OA
ATOM     24  O   LIG d   1      -5.309  95.328 120.561  0.00  0.00    -0.241 OA
ENDBRANCH   3  22
TORSDOF 7
ENDMDL
