MODEL 1
REMARK VINA RESULT:      -5.6      0.000      0.000
REMARK  7 active torsions:
REMARK  status: ('A' for Active; 'I' for Inactive)
REMARK    1  A    between atoms: C_2  and  C_3 
REMARK    2  A    between atoms: C_3  and  O_6 
REMARK    3  A    between atoms: C_3  and  C_4 
REMARK    4  A    between atoms: C_7  and  O_6 
REMARK    5  A    between atoms: C_9  and  C_10 
REMARK    6  A    between atoms: N_15  and  C_14 
REMARK    7  A    between atoms: N_20  and  C_19 
REMARK       I    between atoms: C_22  and  N_20 
ROOT
ATOM      1  C   LIG d   1      -5.920  91.597 119.325  0.00  0.00     0.161 C 
ATOM      2  C   LIG d   1      -7.251  92.021 119.470  0.00  0.00     0.016 C 
ATOM      3  C   LIG d   1      -7.628  93.380 119.575  0.00  0.00     0.038 C 
ATOM      4  C   LIG d   1      -6.707  94.421 119.390  0.00  0.00     0.028 C 
ATOM      5  C   LIG d   1      -5.275  94.034 119.745  0.00  0.00    -0.047 C 
ATOM      6  C   LIG d   1      -4.913  92.723 119.010  0.00  0.00     0.091 C 
ENDROOT
BRANCH   1   7
ATOM      7  O   LIG d   1      -5.843  90.562 118.325  0.00  0.00    -0.368 OA
BRANCH   7   8
ATOM      8  C   LIG d   1      -6.206  90.949 116.977  0.00  0.00     0.119 C 
BRANCH   8   9
ATOM      9  C   LIG d   1      -7.291  89.969 116.490  0.00  0.00     0.028 C 
ATOM     10  C   LIG d   1      -7.462  89.996 114.962  0.00  0.00     0.006 C 
ENDBRANCH   8   9
BRANCH   8  11
ATOM     11  C   LIG d   1      -5.032  90.767 116.010  0.00  0.00     0.028 C 
ATOM     12  C   LIG d   1      -3.870  89.973 116.627  0.00  0.00     0.006 C 
ENDBRANCH   8  11
ENDBRANCH   7   8
ENDBRANCH   1   7
BRANCH   6  13
ATOM     13  N   LIG d   1      -3.558  92.228 119.367  0.00  0.00    -0.311 N 
ATOM     14  C   LIG d   1      -2.463  92.519 118.667  0.00  0.00     0.210 C 
ATOM     15  C   LIG d   1      -1.171  91.890 119.197  0.00  0.00     0.109 C 
ATOM     16  O   LIG d   1      -2.434  93.264 117.676  0.00  0.00    -0.276 OA
ATOM     17  H   LIG d   1      -3.485  91.642 120.176  0.00  0.00     0.149 HD
ENDBRANCH   6  13
BRANCH   5  18
ATOM     18  N   LIG d   1      -4.403  95.164 119.375  0.00  0.00     0.381 N 
ATOM     19  H   LIG d   1      -4.738  96.005 119.802  0.00  0.00    -0.090 HD
ATOM     20  H   LIG d   1      -4.431  95.284 118.378  0.00  0.00    -0.090 HD
ATOM     21  H   LIG d   1      -3.468  94.984 119.669  0.00  0.00    -0.090 HD
ENDBRANCH   5  18
BRANCH   3  22
ATOM     22  C   LIG d   1      -8.934  93.707 119.909  0.00  0.00     0.382 C 
ATOM     23  O   LIG d   1      -9.621  92.917 120.601  0.00  0.00    -0.241 OA
ATOM     24  O   LIG d   1      -9.448  94.761 119.489  0.00  0.00    -0.241 OA
ENDBRANCH   3  22
TORSDOF 7
ENDMDL
MODEL 2
REMARK VINA RESULT:      -5.4      1.952      4.580
REMARK  7 active torsions:
REMARK  status: ('A' for Active; 'I' for Inactive)
REMARK    1  A    between atoms: C_2  and  C_3 
REMARK    2  A    between atoms: C_3  and  O_6 
REMARK    3  A    between atoms: C_3  and  C_4 
REMARK    4  A    between atoms: C_7  and  O_6 
REMARK    5  A    between atoms: C_9  and  C_10 
REMARK    6  A    between atoms: N_15  and  C_14 
REMARK    7  A    between atoms: N_20  and  C_19 
REMARK       I    between atoms: C_22  and  N_20 
ROOT
ATOM      1  C   LIG d   1      -5.875  92.933 118.401  0.00  0.00     0.161 C 
ATOM      2  C   LIG d   1      -6.574  91.927 117.713  0.00  0.00     0.016 C 
ATOM      3  C   LIG d   1      -5.938  90.863 117.034  0.00  0.00     0.038 C 
ATOM      4  C   LIG d   1      -4.555  90.647 117.123  0.00  0.00     0.028 C 
ATOM      5  C   LIG d   1      -3.759  91.921 117.386  0.00  0.00    -0.047 C 
ATOM      6  C   LIG d   1      -4.371  92.653 118.603  0.00  0.00     0.091 C 
ENDROOT
BRANCH   1   7
ATOM      7  O   LIG d   1      -6.511  93.192 119.668  0.00  0.00    -0.368 OA
BRANCH   7   8
ATOM      8  C   LIG d   1      -7.225  94.448 119.778  0.00  0.00     0.119 C 
BRANCH   8   9
ATOM      9  C   LIG d   1      -8.730  94.122 119.828  0.00  0.00     0.028 C 
ATOM     10  C   LIG d   1      -9.034  92.882 120.685  0.00  0.00     0.006 C 
ENDBRANCH   8   9
BRANCH   8  11
ATOM     11  C   LIG d   1      -7.037  95.307 118.525  0.00  0.00     0.028 C 
ATOM     12  C   LIG d   1      -8.364  95.632 117.821  0.00  0.00     0.006 C 
ENDBRANCH   8  11
ENDBRANCH   7   8
ENDBRANCH   1   7
BRANCH   6  13
ATOM     13  N   LIG d   1      -3.704  93.952 118.877  0.00  0.00    -0.311 N 
ATOM     14  C   LIG d   1      -2.695  94.092 119.735  0.00  0.00     0.210 C 
ATOM     15  C   LIG d   1      -2.166  95.522 119.884  0.00  0.00     0.109 C 
ATOM     16  O   LIG d   1      -2.167  93.162 120.363  0.00  0.00    -0.276 OA
ATOM     17  H   LIG d   1      -4.049  94.754 118.387  0.00  0.00     0.149 HD
ENDBRANCH   6  13
BRANCH   5  18
ATOM     18  N   LIG d   1      -2.351  91.533 117.594  0.00  0.00     0.381 N 
ATOM     19  H   LIG d   1      -2.241  90.554 117.417  0.00  0.00    -0.090 HD
ATOM     20  H   LIG d   1      -2.102  91.711 118.551  0.00  0.00    -0.090 HD
ATOM     21  H   LIG d   1      -1.760  92.056 116.986  0.00  0.00    -0.090 HD
ENDBRANCH   5  18
BRANCH   3  22
ATOM     22  C   LIG d   1      -6.684  90.023 116.221  0.00  0.00     0.382 C 
ATOM     23  O   LIG d   1      -6.363  89.866 115.018  0.00  0.00    -0.241 OA
ATOM     24  O   LIG d   1      -7.701  89.455 116.663  0.00  0.00    -0.241 OA
ENDBRANCH   3  22
TORSDOF 7
ENDMDL
MODEL 3
REMARK VINA RESULT:      -5.2      2.399      5.321
REMARK  7 active torsions:
REMARK  status: ('A' for Active; 'I' for Inactive)
REMARK    1  A    between atoms: C_2  and  C_3 
REMARK    2  A    between atoms: C_3  and  O_6 
REMARK    3  A    between atoms: C_3  and  C_4 
REMARK    4  A    between atoms: C_7  and  O_6 
REMARK    5  A    between atoms: C_9  and  C_10 
REMARK    6  A    between atoms: N_15  and  C_14 
REMARK    7  A    between atoms: N_20  and  C_19 
REMARK       I    between atoms: C_22  and  N_20 
ROOT
ATOM      1  C   LIG d   1      -6.154  92.289 118.288  0.00  0.00     0.161 C 
ATOM      2  C   LIG d   1      -5.378  92.746 119.366  0.00  0.00     0.016 C 
ATOM      3  C   LIG d   1      -4.010  92.428 119.531  0.00  0.00     0.038 C 
ATOM      4  C   LIG d   1      -3.282  91.750 118.542  0.00  0.00     0.028 C 
ATOM      5  C   LIG d   1      -4.142  90.836 117.676  0.00  0.00    -0.047 C 
ATOM      6  C   LIG d   1      -5.349  91.641 117.142  0.00  0.00     0.091 C 
ENDROOT
BRANCH   1   7
ATOM      7  O   LIG d   1      -6.969  93.364 117.782  0.00  0.00    -0.368 OA
BRANCH   7   8
ATOM      8  C   LIG d   1      -7.273  94.428 118.717  0.00  0.00     0.119 C 
BRANCH   8   9
ATOM      9  C   LIG d   1      -8.556  94.030 119.471  0.00  0.00     0.028 C 
ATOM     10  C   LIG d   1      -8.487  94.372 120.969  0.00  0.00     0.006 C 
ENDBRANCH   8   9
BRANCH   8  11
ATOM     11  C   LIG d   1      -7.618  95.730 117.988  0.00  0.00     0.028 C 
ATOM     12  C   LIG d   1      -6.735  96.909 118.423  0.00  0.00     0.006 C 
ENDBRANCH   8  11
ENDBRANCH   7   8
ENDBRANCH   1   7
BRANCH   6  13
ATOM     13  N   LIG d   1      -6.287  90.799 116.354  0.00  0.00    -0.311 N 
ATOM     14  C   LIG d   1      -6.656  91.084 115.106  0.00  0.00     0.210 C 
ATOM     15  C   LIG d   1      -7.647  90.096 114.483  0.00  0.00     0.109 C 
ATOM     16  O   LIG d   1      -6.231  92.043 114.444  0.00  0.00    -0.276 OA
ATOM     17  H   LIG d   1      -6.656  89.984 116.803  0.00  0.00     0.149 HD
ENDBRANCH   6  13
BRANCH   5  18
ATOM     18  N   LIG d   1      -3.284  90.300 116.603  0.00  0.00     0.381 N 
ATOM     19  H   LIG d   1      -3.482  89.330 116.463  0.00  0.00    -0.090 HD
ATOM     20  H   LIG d   1      -2.322  90.389 116.882  0.00  0.00    -0.090 HD
ATOM     21  H   LIG d   1      -3.440  90.804 115.758  0.00  0.00    -0.090 HD
ENDBRANCH   5  18
BRANCH   3  22
ATOM     22  C   LIG d   1      -3.366  92.755 120.715  0.00  0.00     0.382 C 
ATOM     23  O   LIG d   1      -4.003  93.311 121.642  0.00  0.00    -0.241 OA
ATOM     24  O   LIG d   1      -2.147  92.541 120.851  0.00  0.00    -0.241 OA
ENDBRANCH   3  22
TORSDOF 7
ENDMDL
MODEL 4
REMARK VINA RESULT:      -5.1      2.088      4.839
REMARK  7 active torsions:
REMARK  status: ('A' for Active; 'I' for Inactive)
REMARK    1  A    between atoms: C_2  and  C_3 
REMARK    2  A    between atoms: C_3  and  O_6 
REMARK    3  A    between atoms: C_3  and  C_4 
REMARK    4  A    between atoms: C_7  and  O_6 
REMARK    5  A    between atoms: C_9  and  C_10 
REMARK    6  A    between atoms: N_15  and  C_14 
REMARK    7  A    between atoms: N_20  and  C_19 
REMARK       I    between atoms: C_22  and  N_20 
ROOT
ATOM      1  C   LIG d   1      -6.012  92.774 118.182  0.00  0.00     0.161 C 
ATOM      2  C   LIG d   1      -6.573  91.774 117.371  0.00  0.00     0.016 C 
ATOM      3  C   LIG d   1      -5.808  90.774 116.727  0.00  0.00     0.038 C 
ATOM      4  C   LIG d   1      -4.437  90.615 116.975  0.00  0.00     0.028 C 
ATOM      5  C   LIG d   1      -3.742  91.908 117.389  0.00  0.00    -0.047 C 
ATOM      6  C   LIG d   1      -4.531  92.551 118.553  0.00  0.00     0.091 C 
ENDROOT
BRANCH   1   7
ATOM      7  O   LIG d   1      -6.807  92.941 119.372  0.00  0.00    -0.368 OA
BRANCH   7   8
ATOM      8  C   LIG d   1      -7.849  93.945 119.307  0.00  0.00     0.119 C 
BRANCH   8   9
ATOM      9  C   LIG d   1      -7.311  95.116 118.463  0.00  0.00     0.028 C 
ATOM     10  C   LIG d   1      -8.438  95.929 117.802  0.00  0.00     0.006 C 
ENDBRANCH   8   9
BRANCH   8  11
ATOM     11  C   LIG d   1      -8.137  94.540 120.689  0.00  0.00     0.028 C 
ATOM     12  C   LIG d   1      -6.973  95.386 121.228  0.00  0.00     0.006 C 
ENDBRANCH   8  11
ENDBRANCH   7   8
ENDBRANCH   1   7
BRANCH   6  13
ATOM     13  N   LIG d   1      -3.967  93.863 118.963  0.00  0.00    -0.311 N 
ATOM     14  C   LIG d   1      -3.618  94.152 120.216  0.00  0.00     0.210 C 
ATOM     15  C   LIG d   1      -3.077  95.569 120.426  0.00  0.00     0.109 C 
ATOM     16  O   LIG d   1      -3.676  93.358 121.167  0.00  0.00    -0.276 OA
ATOM     17  H   LIG d   1      -3.857  94.556 118.249  0.00  0.00     0.149 HD
ENDBRANCH   6  13
BRANCH   5  18
ATOM     18  N   LIG d   1      -2.352  91.572 117.748  0.00  0.00     0.381 N 
ATOM     19  H   LIG d   1      -2.328  91.157 118.658  0.00  0.00    -0.090 HD
ATOM     20  H   LIG d   1      -1.809  92.417 117.773  0.00  0.00    -0.090 HD
ATOM     21  H   LIG d   1      -1.969  90.942 117.078  0.00  0.00    -0.090 HD
ENDBRANCH   5  18
BRANCH   3  22
ATOM     22  C   LIG d   1      -6.409  89.944 115.793  0.00  0.00     0.382 C 
ATOM     23  O   LIG d   1      -7.606  89.597 115.941  0.00  0.00    -0.241 OA
ATOM     24  O   LIG d   1      -5.757  89.501 114.829  0.00  0.00    -0.241 OA
ENDBRANCH   3  22
TORSDOF 7
ENDMDL
MODEL 5
REMARK VINA RESULT:      -4.8      2.312      4.898
REMARK  7 active torsions:
REMARK  status: ('A' for Active; 'I' for Inactive)
REMARK    1  A    between atoms: C_2  and  C_3 
REMARK    2  A    between atoms: C_3  and  O_6 
REMARK    3  A    between atoms: C_3  and  C_4 
REMARK    4  A    between atoms: C_7  and  O_6 
REMARK    5  A    between atoms: C_9  and  C_10 
REMARK    6  A    between atoms: N_15  and  C_14 
REMARK    7  A    between atoms: N_20  and  C_19 
REMARK       I    between atoms: C_22  and  N_20 
ROOT
ATOM      1  C   LIG d   1      -4.889  92.229 119.209  0.00  0.00     0.161 C 
ATOM      2  C   LIG d   1      -4.981  91.251 118.206  0.00  0.00     0.016 C 
ATOM      3  C   LIG d   1      -5.845  91.357 117.092  0.00  0.00     0.038 C 
ATOM      4  C   LIG d   1      -6.571  92.527 116.825  0.00  0.00     0.028 C 
ATOM      5  C   LIG d   1      -6.893  93.338 118.076  0.00  0.00    -0.047 C 
ATOM      6  C   LIG d   1      -5.591  93.563 118.878  0.00  0.00     0.091 C 
ENDROOT
BRANCH   1   7
ATOM      7  O   LIG d   1      -3.506  92.460 119.542  0.00  0.00    -0.368 OA
BRANCH   7   8
ATOM      8  C   LIG d   1      -2.545  92.192 118.491  0.00  0.00     0.119 C 
BRANCH   8   9
ATOM      9  C   LIG d   1      -1.314  91.536 119.147  0.00  0.00     0.028 C 
ATOM     10  C   LIG d   1      -1.461  91.406 120.672  0.00  0.00     0.006 C 
ENDBRANCH   8   9
BRANCH   8  11
ATOM     11  C   LIG d   1      -2.027  93.490 117.864  0.00  0.00     0.028 C 
ATOM     12  C   LIG d   1      -2.014  94.666 118.854  0.00  0.00     0.006 C 
ENDBRANCH   8  11
ENDBRANCH   7   8
ENDBRANCH   1   7
BRANCH   6  13
ATOM     13  N   LIG d   1      -5.831  94.276 120.160  0.00  0.00    -0.311 N 
ATOM     14  C   LIG d   1      -5.700  95.594 120.301  0.00  0.00     0.210 C 
ATOM     15  C   LIG d   1      -5.975  96.123 121.712  0.00  0.00     0.109 C 
ATOM     16  O   LIG d   1      -5.415  96.379 119.384  0.00  0.00    -0.276 OA
ATOM     17  H   LIG d   1      -6.097  93.719 120.948  0.00  0.00     0.149 HD
ENDBRANCH   6  13
BRANCH   5  18
ATOM     18  N   LIG d   1      -7.529  94.596 117.640  0.00  0.00     0.381 N 
ATOM     19  H   LIG d   1      -7.751  94.543 116.666  0.00  0.00    -0.090 HD
ATOM     20  H   LIG d   1      -6.881  95.351 117.776  0.00  0.00    -0.090 HD
ATOM     21  H   LIG d   1      -8.358  94.760 118.169  0.00  0.00    -0.090 HD
ENDBRANCH   5  18
BRANCH   3  22
ATOM     22  C   LIG d   1      -6.020  90.268 116.251  0.00  0.00     0.382 C 
ATOM     23  O   LIG d   1      -5.137  89.979 115.408  0.00  0.00    -0.241 OA
ATOM     24  O   LIG d   1      -7.069  89.598 116.295  0.00  0.00    -0.241 OA
ENDBRANCH   3  22
TORSDOF 7
ENDMDL
MODEL 6
REMARK VINA RESULT:      -4.7      2.584      5.951
REMARK  7 active torsions:
REMARK  status: ('A' for Active; 'I' for Inactive)
REMARK    1  A    between atoms: C_2  and  C_3 
REMARK    2  A    between atoms: C_3  and  O_6 
REMARK    3  A    between atoms: C_3  and  C_4 
REMARK    4  A    between atoms: C_7  and  O_6 
REMARK    5  A    between atoms: C_9  and  C_10 
REMARK    6  A    between atoms: N_15  and  C_14 
REMARK    7  A    between atoms: N_20  and  C_19 
REMARK       I    between atoms: C_22  and  N_20 
ROOT
ATOM      1  C   LIG d   1      -2.430  92.835 118.179  0.00  0.00     0.161 C 
ATOM      2  C   LIG d   1      -1.237  92.113 118.013  0.00  0.00     0.016 C 
ATOM      3  C   LIG d   1       0.001  92.518 118.564  0.00  0.00     0.038 C 
ATOM      4  C   LIG d   1       0.099  93.601 119.449  0.00  0.00     0.028 C 
ATOM      5  C   LIG d   1      -0.984  94.654 119.242  0.00  0.00    -0.047 C 
ATOM      6  C   LIG d   1      -2.364  93.959 119.234  0.00  0.00     0.091 C 
ENDROOT
BRANCH   1   7
ATOM      7  O   LIG d   1      -3.511  91.930 118.478  0.00  0.00    -0.368 OA
BRANCH   7   8
ATOM      8  C   LIG d   1      -4.486  91.732 117.424  0.00  0.00     0.119 C 
BRANCH   8   9
ATOM      9  C   LIG d   1      -5.878  91.688 118.083  0.00  0.00     0.028 C 
ATOM     10  C   LIG d   1      -6.609  93.039 118.001  0.00  0.00     0.006 C 
ENDBRANCH   8   9
BRANCH   8  11
ATOM     11  C   LIG d   1      -4.312  90.366 116.753  0.00  0.00     0.028 C 
ATOM     12  C   LIG d   1      -5.239  90.174 115.543  0.00  0.00     0.006 C 
ENDBRANCH   8  11
ENDBRANCH   7   8
ENDBRANCH   1   7
BRANCH   6  13
ATOM     13  N   LIG d   1      -3.475  94.906 118.952  0.00  0.00    -0.311 N 
ATOM     14  C   LIG d   1      -4.192  95.499 119.905  0.00  0.00     0.210 C 
ATOM     15  C   LIG d   1      -5.303  96.423 119.397  0.00  0.00     0.109 C 
ATOM     16  O   LIG d   1      -3.994  95.372 121.122  0.00  0.00    -0.276 OA
ATOM     17  H   LIG d   1      -3.683  95.091 117.991  0.00  0.00     0.149 HD
ENDBRANCH   6  13
BRANCH   5  18
ATOM     18  N   LIG d   1      -0.846  95.654 120.317  0.00  0.00     0.381 N 
ATOM     19  H   LIG d   1      -1.455  95.422 121.076  0.00  0.00    -0.090 HD
ATOM     20  H   LIG d   1      -1.115  96.554 119.960  0.00  0.00    -0.090 HD
ATOM     21  H   LIG d   1       0.098  95.684 120.636  0.00  0.00    -0.090 HD
ENDBRANCH   5  18
BRANCH   3  22
ATOM     22  C   LIG d   1       1.165  91.860 118.196  0.00  0.00     0.382 C 
ATOM     23  O   LIG d   1       2.163  92.517 117.815  0.00  0.00    -0.241 OA
ATOM     24  O   LIG d   1       1.215  90.615 118.199  0.00  0.00    -0.241 OA
ENDBRANCH   3  22
TORSDOF 7
ENDMDL
MODEL 7
REMARK VINA RESULT:      -4.5      2.275      5.619
REMARK  7 active torsions:
REMARK  status: ('A' for Active; 'I' for Inactive)
REMARK    1  A    between atoms: C_2  and  C_3 
REMARK    2  A    between atoms: C_3  and  O_6 
REMARK    3  A    between atoms: C_3  and  C_4 
REMARK    4  A    between atoms: C_7  and  O_6 
REMARK    5  A    between atoms: C_9  and  C_10 
REMARK    6  A    between atoms: N_15  and  C_14 
REMARK    7  A    between atoms: N_20  and  C_19 
REMARK       I    between atoms: C_22  and  N_20 
ROOT
ATOM      1  C   LIG d   1      -5.483  92.497 118.758  0.00  0.00     0.161 C 
ATOM      2  C   LIG d   1      -4.342  93.057 119.357  0.00  0.00     0.016 C 
ATOM      3  C   LIG d   1      -3.023  92.649 119.050  0.00  0.00     0.038 C 
ATOM      4  C   LIG d   1      -2.747  91.753 118.007  0.00  0.00     0.028 C 
ATOM      5  C   LIG d   1      -3.893  90.788 117.719  0.00  0.00    -0.047 C 
ATOM      6  C   LIG d   1      -5.197  91.597 117.538  0.00  0.00     0.091 C 
ENDROOT
BRANCH   1   7
ATOM      7  O   LIG d   1      -6.411  93.541 118.405  0.00  0.00    -0.368 OA
BRANCH   7   8
ATOM      8  C   LIG d   1      -7.728  93.452 119.001  0.00  0.00     0.119 C 
BRANCH   8   9
ATOM      9  C   LIG d   1      -8.123  94.868 119.466  0.00  0.00     0.028 C 
ATOM     10  C   LIG d   1      -6.909  95.804 119.590  0.00  0.00     0.006 C 
ENDBRANCH   8   9
BRANCH   8  11
ATOM     11  C   LIG d   1      -7.707  92.599 120.273  0.00  0.00     0.028 C 
ATOM     12  C   LIG d   1      -8.911  92.867 121.190  0.00  0.00     0.006 C 
ENDBRANCH   8  11
ENDBRANCH   7   8
ENDBRANCH   1   7
BRANCH   6  13
ATOM     13  N   LIG d   1      -6.383  90.724 117.336  0.00  0.00    -0.311 N 
ATOM     14  C   LIG d   1      -6.805  90.327 116.137  0.00  0.00     0.210 C 
ATOM     15  C   LIG d   1      -8.058  89.446 116.152  0.00  0.00     0.109 C 
ATOM     16  O   LIG d   1      -6.243  90.594 115.065  0.00  0.00    -0.276 OA
ATOM     17  H   LIG d   1      -6.880  90.434 118.155  0.00  0.00     0.149 HD
ENDBRANCH   6  13
BRANCH   5  18
ATOM     18  N   LIG d   1      -3.526  90.006 116.523  0.00  0.00     0.381 N 
ATOM     19  H   LIG d   1      -3.900  90.444 115.705  0.00  0.00    -0.090 HD
ATOM     20  H   LIG d   1      -3.927  89.088 116.600  0.00  0.00    -0.090 HD
ATOM     21  H   LIG d   1      -2.535  89.939 116.450  0.00  0.00    -0.090 HD
ENDBRANCH   5  18
BRANCH   3  22
ATOM     22  C   LIG d   1      -1.965  93.110 119.819  0.00  0.00     0.382 C 
ATOM     23  O   LIG d   1      -1.133  93.910 119.326  0.00  0.00    -0.241 OA
ATOM     24  O   LIG d   1      -1.806  92.702 120.985  0.00  0.00    -0.241 OA
ENDBRANCH   3  22
TORSDOF 7
ENDMDL
MODEL 8
REMARK VINA RESULT:      -4.2      2.496      4.435
REMARK  7 active torsions:
REMARK  status: ('A' for Active; 'I' for Inactive)
REMARK    1  A    between atoms: C_2  and  C_3 
REMARK    2  A    between atoms: C_3  and  O_6 
REMARK    3  A    between atoms: C_3  and  C_4 
REMARK    4  A    between atoms: C_7  and  O_6 
REMARK    5  A    between atoms: C_9  and  C_10 
REMARK    6  A    between atoms: N_15  and  C_14 
REMARK    7  A    between atoms: N_20  and  C_19 
REMARK       I    between atoms: C_22  and  N_20 
ROOT
ATOM      1  C   LIG d   1      -4.706  93.356 119.133  0.00  0.00     0.161 C 
ATOM      2  C   LIG d   1      -4.581  94.312 120.155  0.00  0.00     0.016 C 
ATOM      3  C   LIG d   1      -5.586  95.257 120.464  0.00  0.00     0.038 C 
ATOM      4  C   LIG d   1      -6.855  95.211 119.867  0.00  0.00     0.028 C 
ATOM      5  C   LIG d   1      -6.848  94.585 118.477  0.00  0.00    -0.047 C 
ATOM      6  C   LIG d   1      -6.126  93.220 118.546  0.00  0.00     0.091 C 
ENDROOT
BRANCH   1   7
ATOM      7  O   LIG d   1      -4.232  92.077 119.599  0.00  0.00    -0.368 OA
BRANCH   7   8
ATOM      8  C   LIG d   1      -2.793  91.910 119.648  0.00  0.00     0.119 C 
BRANCH   8   9
ATOM      9  C   LIG d   1      -2.369  91.174 118.362  0.00  0.00     0.028 C 
ATOM     10  C   LIG d   1      -0.952  91.558 117.906  0.00  0.00     0.006 C 
ENDBRANCH   8   9
BRANCH   8  11
ATOM     11  C   LIG d   1      -2.378  90.989 120.799  0.00  0.00     0.028 C 
ATOM     12  C   LIG d   1      -3.553  90.177 121.366  0.00  0.00     0.006 C 
ENDBRANCH   8  11
ENDBRANCH   7   8
ENDBRANCH   1   7
BRANCH   6  13
ATOM     13  N   LIG d   1      -6.001  92.577 117.211  0.00  0.00    -0.311 N 
ATOM     14  C   LIG d   1      -6.238  91.284 116.995  0.00  0.00     0.210 C 
ATOM     15  C   LIG d   1      -6.030  90.822 115.550  0.00  0.00     0.109 C 
ATOM     16  O   LIG d   1      -6.631  90.484 117.857  0.00  0.00    -0.276 OA
ATOM     17  H   LIG d   1      -5.717  93.160 116.449  0.00  0.00     0.149 HD
ENDBRANCH   6  13
BRANCH   5  18
ATOM     18  N   LIG d   1      -8.250  94.476 118.030  0.00  0.00     0.381 N 
ATOM     19  H   LIG d   1      -8.278  94.243 117.058  0.00  0.00    -0.090 HD
ATOM     20  H   LIG d   1      -8.701  95.365 118.155  0.00  0.00    -0.090 HD
ATOM     21  H   LIG d   1      -8.723  93.777 118.560  0.00  0.00    -0.090 HD
ENDBRANCH   5  18
BRANCH   3  22
ATOM     22  C   LIG d   1      -5.313  96.286 121.352  0.00  0.00     0.382 C 
ATOM     23  O   LIG d   1      -6.162  97.189 121.546  0.00  0.00    -0.241 OA
ATOM     24  O   LIG d   1      -4.210  96.347 121.928  0.00  0.00    -0.241 OA
ENDBRANCH   3  22
TORSDOF 7
ENDMDL
MODEL 9
REMARK VINA RESULT:      -4.2      8.918     11.855
REMARK  7 active torsions:
REMARK  status: ('A' for Active; 'I' for Inactive)
REMARK    1  A    between atoms: C_2  and  C_3 
REMARK    2  A    between atoms: C_3  and  O_6 
REMARK    3  A    between atoms: C_3  and  C_4 
REMARK    4  A    between atoms: C_7  and  O_6 
REMARK    5  A    between atoms: C_9  and  C_10 
REMARK    6  A    between atoms: N_15  and  C_14 
REMARK    7  A    between atoms: N_20  and  C_19 
REMARK       I    between atoms: C_22  and  N_20 
ROOT
ATOM      1  C   LIG d   1       4.681  89.973 115.705  0.00  0.00     0.161 C 
ATOM      2  C   LIG d   1       3.755  89.022 115.246  0.00  0.00     0.016 C 
ATOM      3  C   LIG d   1       3.888  87.633 115.474  0.00  0.00     0.038 C 
ATOM      4  C   LIG d   1       4.885  87.111 116.312  0.00  0.00     0.028 C 
ATOM      5  C   LIG d   1       6.134  87.983 116.383  0.00  0.00    -0.047 C 
ATOM      6  C   LIG d   1       5.715  89.434 116.716  0.00  0.00     0.091 C 
ENDROOT
BRANCH   1   7
ATOM      7  O   LIG d   1       3.984  91.106 116.259  0.00  0.00    -0.368 OA
BRANCH   7   8
ATOM      8  C   LIG d   1       3.263  90.871 117.493  0.00  0.00     0.119 C 
BRANCH   8   9
ATOM      9  C   LIG d   1       1.827  91.395 117.298  0.00  0.00     0.028 C 
ATOM     10  C   LIG d   1       1.057  91.505 118.625  0.00  0.00     0.006 C 
ENDBRANCH   8   9
BRANCH   8  11
ATOM     11  C   LIG d   1       3.844  91.697 118.644  0.00  0.00     0.028 C 
ATOM     12  C   LIG d   1       4.520  92.992 118.166  0.00  0.00     0.006 C 
ENDBRANCH   8  11
ENDBRANCH   7   8
ENDBRANCH   1   7
BRANCH   6  13
ATOM     13  N   LIG d   1       6.869  90.370 116.721  0.00  0.00    -0.311 N 
ATOM     14  C   LIG d   1       7.530  90.713 117.826  0.00  0.00     0.210 C 
ATOM     15  C   LIG d   1       8.675  91.707 117.612  0.00  0.00     0.109 C 
ATOM     16  O   LIG d   1       7.297  90.263 118.958  0.00  0.00    -0.276 OA
ATOM     17  H   LIG d   1       7.146  90.758 115.841  0.00  0.00     0.149 HD
ENDBRANCH   6  13
BRANCH   5  18
ATOM     18  N   LIG d   1       7.032  87.394 117.395  0.00  0.00     0.381 N 
ATOM     19  H   LIG d   1       6.836  86.418 117.495  0.00  0.00    -0.090 HD
ATOM     20  H   LIG d   1       6.863  87.842 118.279  0.00  0.00    -0.090 HD
ATOM     21  H   LIG d   1       7.982  87.524 117.124  0.00  0.00    -0.090 HD
ENDBRANCH   5  18
BRANCH   3  22
ATOM     22  C   LIG d   1       3.041  86.746 114.827  0.00  0.00     0.382 C 
ATOM     23  O   LIG d   1       3.475  85.634 114.440  0.00  0.00    -0.241 OA
ATOM     24  O   LIG d   1       1.860  87.061 114.587  0.00  0.00    -0.241 OA
ENDBRANCH   3  22
TORSDOF 7
ENDMDL
