MODEL 1
REMARK VINA RESULT:      -4.4      0.000      0.000
REMARK  7 active torsions:
REMARK  status: ('A' for Active; 'I' for Inactive)
REMARK    1  A    between atoms: C_2  and  C_3 
REMARK    2  A    between atoms: C_3  and  O_6 
REMARK    3  A    between atoms: C_3  and  C_4 
REMARK    4  A    between atoms: C_7  and  O_6 
REMARK    5  A    between atoms: C_9  and  C_10 
REMARK    6  A    between atoms: N_15  and  C_14 
REMARK    7  A    between atoms: N_20  and  C_19 
REMARK       I    between atoms: C_22  and  N_20 
ROOT
ATOM      1  C   LIG d   1       2.881  90.635 116.963  0.00  0.00     0.161 C 
ATOM      2  C   LIG d   1       4.140  90.211 116.504  0.00  0.00     0.016 C 
ATOM      3  C   LIG d   1       5.361  90.747 116.974  0.00  0.00     0.038 C 
ATOM      4  C   LIG d   1       5.410  91.643 118.052  0.00  0.00     0.028 C 
ATOM      5  C   LIG d   1       4.143  92.477 118.206  0.00  0.00    -0.047 C 
ATOM      6  C   LIG d   1       2.919  91.532 118.218  0.00  0.00     0.091 C 
ENDROOT
BRANCH   1   7
ATOM      7  O   LIG d   1       2.033  89.492 117.190  0.00  0.00    -0.368 OA
BRANCH   7   8
ATOM      8  C   LIG d   1       2.449  88.255 116.559  0.00  0.00     0.119 C 
BRANCH   8   9
ATOM      9  C   LIG d   1       1.411  87.919 115.471  0.00  0.00     0.028 C 
ATOM     10  C   LIG d   1       0.811  86.514 115.647  0.00  0.00     0.006 C 
ENDBRANCH   8   9
BRANCH   8  11
ATOM     11  C   LIG d   1       2.398  87.083 117.544  0.00  0.00     0.028 C 
ATOM     12  C   LIG d   1       2.870  87.469 118.955  0.00  0.00     0.006 C 
ENDBRANCH   8  11
ENDBRANCH   7   8
ENDBRANCH   1   7
BRANCH   6  13
ATOM     13  N   LIG d   1       1.632  92.272 118.280  0.00  0.00    -0.311 N 
ATOM     14  C   LIG d   1       1.002  92.552 119.420  0.00  0.00     0.210 C 
ATOM     15  C   LIG d   1      -0.321  93.307 119.258  0.00  0.00     0.109 C 
ATOM     16  O   LIG d   1       1.430  92.276 120.551  0.00  0.00    -0.276 OA
ATOM     17  H   LIG d   1       1.230  92.562 117.410  0.00  0.00     0.149 HD
ENDBRANCH   6  13
BRANCH   5  18
ATOM     18  N   LIG d   1       4.276  93.265 119.445  0.00  0.00     0.381 N 
ATOM     19  H   LIG d   1       5.241  93.458 119.622  0.00  0.00    -0.090 HD
ATOM     20  H   LIG d   1       3.916  92.727 120.214  0.00  0.00    -0.090 HD
ATOM     21  H   LIG d   1       3.769  94.119 119.362  0.00  0.00    -0.090 HD
ENDBRANCH   5  18
BRANCH   3  22
ATOM     22  C   LIG d   1       6.547  90.416 116.337  0.00  0.00     0.382 C 
ATOM     23  O   LIG d   1       6.530  90.020 115.147  0.00  0.00    -0.241 OA
ATOM     24  O   LIG d   1       7.629  90.466 116.952  0.00  0.00    -0.241 OA
ENDBRANCH   3  22
TORSDOF 7
ENDMDL
MODEL 2
REMARK VINA RESULT:      -4.2      2.014      4.926
REMARK  7 active torsions:
REMARK  status: ('A' for Active; 'I' for Inactive)
REMARK    1  A    between atoms: C_2  and  C_3 
REMARK    2  A    between atoms: C_3  and  O_6 
REMARK    3  A    between atoms: C_3  and  C_4 
REMARK    4  A    between atoms: C_7  and  O_6 
REMARK    5  A    between atoms: C_9  and  C_10 
REMARK    6  A    between atoms: N_15  and  C_14 
REMARK    7  A    between atoms: N_20  and  C_19 
REMARK       I    between atoms: C_22  and  N_20 
ROOT
ATOM      1  C   LIG d   1       3.822  90.932 117.286  0.00  0.00     0.161 C 
ATOM      2  C   LIG d   1       2.664  91.593 117.727  0.00  0.00     0.016 C 
ATOM      3  C   LIG d   1       2.635  92.442 118.857  0.00  0.00     0.038 C 
ATOM      4  C   LIG d   1       3.805  92.809 119.539  0.00  0.00     0.028 C 
ATOM      5  C   LIG d   1       4.916  91.769 119.438  0.00  0.00    -0.047 C 
ATOM      6  C   LIG d   1       5.131  91.407 117.950  0.00  0.00     0.091 C 
ENDROOT
BRANCH   1   7
ATOM      7  O   LIG d   1       3.924  91.030 115.851  0.00  0.00    -0.368 OA
BRANCH   7   8
ATOM      8  C   LIG d   1       3.716  89.801 115.112  0.00  0.00     0.119 C 
BRANCH   8   9
ATOM      9  C   LIG d   1       2.987  88.817 116.047  0.00  0.00     0.028 C 
ATOM     10  C   LIG d   1       1.590  88.439 115.527  0.00  0.00     0.006 C 
ENDBRANCH   8   9
BRANCH   8  11
ATOM     11  C   LIG d   1       5.046  89.125 114.769  0.00  0.00     0.028 C 
ATOM     12  C   LIG d   1       5.248  87.795 115.511  0.00  0.00     0.006 C 
ENDBRANCH   8  11
ENDBRANCH   7   8
ENDBRANCH   1   7
BRANCH   6  13
ATOM     13  N   LIG d   1       6.143  90.334 117.768  0.00  0.00    -0.311 N 
ATOM     14  C   LIG d   1       7.429  90.574 117.519  0.00  0.00     0.210 C 
ATOM     15  C   LIG d   1       8.298  89.324 117.346  0.00  0.00     0.109 C 
ATOM     16  O   LIG d   1       7.939  91.703 117.457  0.00  0.00    -0.276 OA
ATOM     17  H   LIG d   1       5.821  89.388 117.834  0.00  0.00     0.149 HD
ENDBRANCH   6  13
BRANCH   5  18
ATOM     18  N   LIG d   1       6.119  92.338 120.074  0.00  0.00     0.381 N 
ATOM     19  H   LIG d   1       6.489  91.690 120.740  0.00  0.00    -0.090 HD
ATOM     20  H   LIG d   1       5.862  93.179 120.560  0.00  0.00    -0.090 HD
ATOM     21  H   LIG d   1       6.806  92.543 119.382  0.00  0.00    -0.090 HD
ENDBRANCH   5  18
BRANCH   3  22
ATOM     22  C   LIG d   1       1.420  92.902 119.341  0.00  0.00     0.382 C 
ATOM     23  O   LIG d   1       1.388  93.643 120.353  0.00  0.00    -0.241 OA
ATOM     24  O   LIG d   1       0.352  92.550 118.805  0.00  0.00    -0.241 OA
ENDBRANCH   3  22
TORSDOF 7
ENDMDL
MODEL 3
REMARK VINA RESULT:      -4.1      2.502      4.816
REMARK  7 active torsions:
REMARK  status: ('A' for Active; 'I' for Inactive)
REMARK    1  A    between atoms: C_2  and  C_3 
REMARK    2  A    between atoms: C_3  and  O_6 
REMARK    3  A    between atoms: C_3  and  C_4 
REMARK    4  A    between atoms: C_7  and  O_6 
REMARK    5  A    between atoms: C_9  and  C_10 
REMARK    6  A    between atoms: N_15  and  C_14 
REMARK    7  A    between atoms: N_20  and  C_19 
REMARK       I    between atoms: C_22  and  N_20 
ROOT
ATOM      1  C   LIG d   1       4.254  89.215 118.235  0.00  0.00     0.161 C 
ATOM      2  C   LIG d   1       5.478  89.836 118.531  0.00  0.00     0.016 C 
ATOM      3  C   LIG d   1       6.456  90.134 117.554  0.00  0.00     0.038 C 
ATOM      4  C   LIG d   1       6.210  89.965 116.184  0.00  0.00     0.028 C 
ATOM      5  C   LIG d   1       5.188  88.875 115.881  0.00  0.00    -0.047 C 
ATOM      6  C   LIG d   1       3.921  89.125 116.731  0.00  0.00     0.091 C 
ENDROOT
BRANCH   1   7
ATOM      7  O   LIG d   1       3.187  89.874 118.946  0.00  0.00    -0.368 OA
BRANCH   7   8
ATOM      8  C   LIG d   1       3.507  91.163 119.523  0.00  0.00     0.119 C 
BRANCH   8   9
ATOM      9  C   LIG d   1       2.916  91.193 120.946  0.00  0.00     0.028 C 
ATOM     10  C   LIG d   1       1.964  92.382 121.161  0.00  0.00     0.006 C 
ENDBRANCH   8   9
BRANCH   8  11
ATOM     11  C   LIG d   1       2.810  92.300 118.770  0.00  0.00     0.028 C 
ATOM     12  C   LIG d   1       3.692  92.918 117.674  0.00  0.00     0.006 C 
ENDBRANCH   8  11
ENDBRANCH   7   8
ENDBRANCH   1   7
BRANCH   6  13
ATOM     13  N   LIG d   1       2.903  88.056 116.559  0.00  0.00    -0.311 N 
ATOM     14  C   LIG d   1       1.904  88.129 115.681  0.00  0.00     0.210 C 
ATOM     15  C   LIG d   1       0.955  86.927 115.680  0.00  0.00     0.109 C 
ATOM     16  O   LIG d   1       1.733  89.062 114.882  0.00  0.00    -0.276 OA
ATOM     17  H   LIG d   1       2.985  87.249 117.146  0.00  0.00     0.149 HD
ENDBRANCH   6  13
BRANCH   5  18
ATOM     18  N   LIG d   1       4.925  88.900 114.430  0.00  0.00     0.381 N 
ATOM     19  H   LIG d   1       4.175  89.532 114.233  0.00  0.00    -0.090 HD
ATOM     20  H   LIG d   1       4.649  87.981 114.134  0.00  0.00    -0.090 HD
ATOM     21  H   LIG d   1       5.745  89.183 113.940  0.00  0.00    -0.090 HD
ENDBRANCH   5  18
BRANCH   3  22
ATOM     22  C   LIG d   1       7.712  90.569 117.949  0.00  0.00     0.382 C 
ATOM     23  O   LIG d   1       8.301  90.003 118.902  0.00  0.00    -0.241 OA
ATOM     24  O   LIG d   1       8.245  91.548 117.394  0.00  0.00    -0.241 OA
ENDBRANCH   3  22
TORSDOF 7
ENDMDL
MODEL 4
REMARK VINA RESULT:      -4.1      1.919      4.837
REMARK  7 active torsions:
REMARK  status: ('A' for Active; 'I' for Inactive)
REMARK    1  A    between atoms: C_2  and  C_3 
REMARK    2  A    between atoms: C_3  and  O_6 
REMARK    3  A    between atoms: C_3  and  C_4 
REMARK    4  A    between atoms: C_7  and  O_6 
REMARK    5  A    between atoms: C_9  and  C_10 
REMARK    6  A    between atoms: N_15  and  C_14 
REMARK    7  A    between atoms: N_20  and  C_19 
REMARK       I    between atoms: C_22  and  N_20 
ROOT
ATOM      1  C   LIG d   1       3.815  89.892 117.309  0.00  0.00     0.161 C 
ATOM      2  C   LIG d   1       2.814  90.755 117.786  0.00  0.00     0.016 C 
ATOM      3  C   LIG d   1       3.087  91.995 118.409  0.00  0.00     0.038 C 
ATOM      4  C   LIG d   1       4.383  92.528 118.462  0.00  0.00     0.028 C 
ATOM      5  C   LIG d   1       5.477  91.466 118.446  0.00  0.00    -0.047 C 
ATOM      6  C   LIG d   1       5.229  90.508 117.258  0.00  0.00     0.091 C 
ENDROOT
BRANCH   1   7
ATOM      7  O   LIG d   1       3.444  89.382 116.014  0.00  0.00    -0.368 OA
BRANCH   7   8
ATOM      8  C   LIG d   1       2.906  88.037 115.989  0.00  0.00     0.119 C 
BRANCH   8   9
ATOM      9  C   LIG d   1       3.691  87.244 114.927  0.00  0.00     0.028 C 
ATOM     10  C   LIG d   1       4.461  86.057 115.531  0.00  0.00     0.006 C 
ENDBRANCH   8   9
BRANCH   8  11
ATOM     11  C   LIG d   1       1.451  88.027 115.508  0.00  0.00     0.028 C 
ATOM     12  C   LIG d   1       0.812  86.631 115.573  0.00  0.00     0.006 C 
ENDBRANCH   8  11
ENDBRANCH   7   8
ENDBRANCH   1   7
BRANCH   6  13
ATOM     13  N   LIG d   1       6.206  89.389 117.219  0.00  0.00    -0.311 N 
ATOM     14  C   LIG d   1       6.749  88.929 116.094  0.00  0.00     0.210 C 
ATOM     15  C   LIG d   1       7.717  87.756 116.275  0.00  0.00     0.109 C 
ATOM     16  O   LIG d   1       6.546  89.402 114.965  0.00  0.00    -0.276 OA
ATOM     17  H   LIG d   1       6.451  88.967 118.093  0.00  0.00     0.149 HD
ENDBRANCH   6  13
BRANCH   5  18
ATOM     18  N   LIG d   1       6.774  92.163 118.366  0.00  0.00     0.381 N 
ATOM     19  H   LIG d   1       6.654  93.054 117.928  0.00  0.00    -0.090 HD
ATOM     20  H   LIG d   1       7.402  91.617 117.802  0.00  0.00    -0.090 HD
ATOM     21  H   LIG d   1       7.154  92.282 119.279  0.00  0.00    -0.090 HD
ENDBRANCH   5  18
BRANCH   3  22
ATOM     22  C   LIG d   1       2.060  92.696 119.023  0.00  0.00     0.382 C 
ATOM     23  O   LIG d   1       0.866  92.415 118.762  0.00  0.00    -0.241 OA
ATOM     24  O   LIG d   1       2.314  93.635 119.801  0.00  0.00    -0.241 OA
ENDBRANCH   3  22
TORSDOF 7
ENDMDL
MODEL 5
REMARK VINA RESULT:      -4.0      2.238      4.290
REMARK  7 active torsions:
REMARK  status: ('A' for Active; 'I' for Inactive)
REMARK    1  A    between atoms: C_2  and  C_3 
REMARK    2  A    between atoms: C_3  and  O_6 
REMARK    3  A    between atoms: C_3  and  C_4 
REMARK    4  A    between atoms: C_7  and  O_6 
REMARK    5  A    between atoms: C_9  and  C_10 
REMARK    6  A    between atoms: N_15  and  C_14 
REMARK    7  A    between atoms: N_20  and  C_19 
REMARK       I    between atoms: C_22  and  N_20 
ROOT
ATOM      1  C   LIG d   1       4.905  90.948 117.504  0.00  0.00     0.161 C 
ATOM      2  C   LIG d   1       5.532  92.000 118.192  0.00  0.00     0.016 C 
ATOM      3  C   LIG d   1       4.823  93.041 118.835  0.00  0.00     0.038 C 
ATOM      4  C   LIG d   1       3.426  93.018 118.963  0.00  0.00     0.028 C 
ATOM      5  C   LIG d   1       2.729  92.242 117.851  0.00  0.00    -0.047 C 
ATOM      6  C   LIG d   1       3.382  90.846 117.727  0.00  0.00     0.091 C 
ENDROOT
BRANCH   1   7
ATOM      7  O   LIG d   1       5.545  89.699 117.834  0.00  0.00    -0.368 OA
BRANCH   7   8
ATOM      8  C   LIG d   1       6.410  89.138 116.816  0.00  0.00     0.119 C 
BRANCH   8   9
ATOM      9  C   LIG d   1       6.170  89.930 115.516  0.00  0.00     0.028 C 
ATOM     10  C   LIG d   1       5.488  89.081 114.430  0.00  0.00     0.006 C 
ENDBRANCH   8   9
BRANCH   8  11
ATOM     11  C   LIG d   1       6.022  87.693 116.489  0.00  0.00     0.028 C 
ATOM     12  C   LIG d   1       7.184  86.706 116.681  0.00  0.00     0.006 C 
ENDBRANCH   8  11
ENDBRANCH   7   8
ENDBRANCH   1   7
BRANCH   6  13
ATOM     13  N   LIG d   1       2.815  90.052 116.606  0.00  0.00    -0.311 N 
ATOM     14  C   LIG d   1       2.418  88.787 116.730  0.00  0.00     0.210 C 
ATOM     15  C   LIG d   1       1.883  88.148 115.445  0.00  0.00     0.109 C 
ATOM     16  O   LIG d   1       2.429  88.143 117.791  0.00  0.00    -0.276 OA
ATOM     17  H   LIG d   1       2.742  90.507 115.717  0.00  0.00     0.149 HD
ENDBRANCH   6  13
BRANCH   5  18
ATOM     18  N   LIG d   1       1.293  92.181 118.182  0.00  0.00     0.381 N 
ATOM     19  H   LIG d   1       1.122  92.669 119.038  0.00  0.00    -0.090 HD
ATOM     20  H   LIG d   1       1.029  91.220 118.308  0.00  0.00    -0.090 HD
ATOM     21  H   LIG d   1       0.756  92.587 117.447  0.00  0.00    -0.090 HD
ENDBRANCH   5  18
BRANCH   3  22
ATOM     22  C   LIG d   1       5.511  94.141 119.325  0.00  0.00     0.382 C 
ATOM     23  O   LIG d   1       5.005  94.844 120.232  0.00  0.00    -0.241 OA
ATOM     24  O   LIG d   1       6.611  94.465 118.839  0.00  0.00    -0.241 OA
ENDBRANCH   3  22
TORSDOF 7
ENDMDL
MODEL 6
REMARK VINA RESULT:      -3.6      1.789      2.395
REMARK  7 active torsions:
REMARK  status: ('A' for Active; 'I' for Inactive)
REMARK    1  A    between atoms: C_2  and  C_3 
REMARK    2  A    between atoms: C_3  and  O_6 
REMARK    3  A    between atoms: C_3  and  C_4 
REMARK    4  A    between atoms: C_7  and  O_6 
REMARK    5  A    between atoms: C_9  and  C_10 
REMARK    6  A    between atoms: N_15  and  C_14 
REMARK    7  A    between atoms: N_20  and  C_19 
REMARK       I    between atoms: C_22  and  N_20 
ROOT
ATOM      1  C   LIG d   1       4.233  91.105 116.961  0.00  0.00     0.161 C 
ATOM      2  C   LIG d   1       5.608  90.923 116.738  0.00  0.00     0.016 C 
ATOM      3  C   LIG d   1       6.506  90.478 117.735  0.00  0.00     0.038 C 
ATOM      4  C   LIG d   1       6.061  90.036 118.990  0.00  0.00     0.028 C 
ATOM      5  C   LIG d   1       4.748  90.677 119.427  0.00  0.00    -0.047 C 
ATOM      6  C   LIG d   1       3.711  90.522 118.291  0.00  0.00     0.091 C 
ENDROOT
BRANCH   1   7
ATOM      7  O   LIG d   1       3.483  90.570 115.852  0.00  0.00    -0.368 OA
BRANCH   7   8
ATOM      8  C   LIG d   1       3.115  89.172 115.946  0.00  0.00     0.119 C 
BRANCH   8   9
ATOM      9  C   LIG d   1       3.976  88.398 114.929  0.00  0.00     0.028 C 
ATOM     10  C   LIG d   1       5.017  87.493 115.609  0.00  0.00     0.006 C 
ENDBRANCH   8   9
BRANCH   8  11
ATOM     11  C   LIG d   1       1.666  88.947 115.505  0.00  0.00     0.028 C 
ATOM     12  C   LIG d   1       1.259  87.465 115.530  0.00  0.00     0.006 C 
ENDBRANCH   8  11
ENDBRANCH   7   8
ENDBRANCH   1   7
BRANCH   6  13
ATOM     13  N   LIG d   1       2.424  91.195 118.603  0.00  0.00    -0.311 N 
ATOM     14  C   LIG d   1       2.327  92.488 118.907  0.00  0.00     0.210 C 
ATOM     15  C   LIG d   1       0.908  92.977 119.214  0.00  0.00     0.109 C 
ATOM     16  O   LIG d   1       3.278  93.285 118.919  0.00  0.00    -0.276 OA
ATOM     17  H   LIG d   1       1.597  90.630 118.586  0.00  0.00     0.149 HD
ENDBRANCH   6  13
BRANCH   5  18
ATOM     18  N   LIG d   1       4.331  90.026 120.683  0.00  0.00     0.381 N 
ATOM     19  H   LIG d   1       4.518  90.632 121.457  0.00  0.00    -0.090 HD
ATOM     20  H   LIG d   1       4.866  89.184 120.806  0.00  0.00    -0.090 HD
ATOM     21  H   LIG d   1       3.360  89.810 120.649  0.00  0.00    -0.090 HD
ENDBRANCH   5  18
BRANCH   3  22
ATOM     22  C   LIG d   1       7.871  90.510 117.494  0.00  0.00     0.382 C 
ATOM     23  O   LIG d   1       8.529  91.546 117.750  0.00  0.00    -0.241 OA
ATOM     24  O   LIG d   1       8.445  89.530 116.981  0.00  0.00    -0.241 OA
ENDBRANCH   3  22
TORSDOF 7
ENDMDL
MODEL 7
REMARK VINA RESULT:      -3.6      2.494      4.815
REMARK  7 active torsions:
REMARK  status: ('A' for Active; 'I' for Inactive)
REMARK    1  A    between atoms: C_2  and  C_3 
REMARK    2  A    between atoms: C_3  and  O_6 
REMARK    3  A    between atoms: C_3  and  C_4 
REMARK    4  A    between atoms: C_7  and  O_6 
REMARK    5  A    between atoms: C_9  and  C_10 
REMARK    6  A    between atoms: N_15  and  C_14 
REMARK    7  A    between atoms: N_20  and  C_19 
REMARK       I    between atoms: C_22  and  N_20 
ROOT
ATOM      1  C   LIG d   1       4.843  90.809 118.906  0.00  0.00     0.161 C 
ATOM      2  C   LIG d   1       5.464  90.354 117.731  0.00  0.00     0.016 C 
ATOM      3  C   LIG d   1       4.808  90.286 116.480  0.00  0.00     0.038 C 
ATOM      4  C   LIG d   1       3.523  90.813 116.287  0.00  0.00     0.028 C 
ATOM      5  C   LIG d   1       2.674  90.819 117.555  0.00  0.00    -0.047 C 
ATOM      6  C   LIG d   1       3.476  91.492 118.692  0.00  0.00     0.091 C 
ENDROOT
BRANCH   1   7
ATOM      7  O   LIG d   1       5.735  91.686 119.622  0.00  0.00    -0.368 OA
BRANCH   7   8
ATOM      8  C   LIG d   1       6.991  91.990 118.968  0.00  0.00     0.119 C 
BRANCH   8   9
ATOM      9  C   LIG d   1       8.124  91.557 119.919  0.00  0.00     0.028 C 
ATOM     10  C   LIG d   1       8.105  92.333 121.247  0.00  0.00     0.006 C 
ENDBRANCH   8   9
BRANCH   8  11
ATOM     11  C   LIG d   1       7.172  93.499 118.782  0.00  0.00     0.028 C 
ATOM     12  C   LIG d   1       5.855  94.278 118.921  0.00  0.00     0.006 C 
ENDBRANCH   8  11
ENDBRANCH   7   8
ENDBRANCH   1   7
BRANCH   6  13
ATOM     13  N   LIG d   1       2.752  91.465 119.989  0.00  0.00    -0.311 N 
ATOM     14  C   LIG d   1       2.281  92.557 120.589  0.00  0.00     0.210 C 
ATOM     15  C   LIG d   1       1.583  92.308 121.930  0.00  0.00     0.109 C 
ATOM     16  O   LIG d   1       2.346  93.704 120.123  0.00  0.00    -0.276 OA
ATOM     17  H   LIG d   1       2.626  90.571 120.423  0.00  0.00     0.149 HD
ENDBRANCH   6  13
BRANCH   5  18
ATOM     18  N   LIG d   1       1.414  91.519 117.243  0.00  0.00     0.381 N 
ATOM     19  H   LIG d   1       1.362  92.371 117.765  0.00  0.00    -0.090 HD
ATOM     20  H   LIG d   1       0.642  90.935 117.516  0.00  0.00    -0.090 HD
ATOM     21  H   LIG d   1       1.364  91.714 116.268  0.00  0.00    -0.090 HD
ENDBRANCH   5  18
BRANCH   3  22
ATOM     22  C   LIG d   1       5.425  89.648 115.415  0.00  0.00     0.382 C 
ATOM     23  O   LIG d   1       6.538  90.053 115.000  0.00  0.00    -0.241 OA
ATOM     24  O   LIG d   1       4.862  88.700 114.834  0.00  0.00    -0.241 OA
ENDBRANCH   3  22
TORSDOF 7
ENDMDL
MODEL 8
REMARK VINA RESULT:      -3.4      2.619      4.187
REMARK  7 active torsions:
REMARK  status: ('A' for Active; 'I' for Inactive)
REMARK    1  A    between atoms: C_2  and  C_3 
REMARK    2  A    between atoms: C_3  and  O_6 
REMARK    3  A    between atoms: C_3  and  C_4 
REMARK    4  A    between atoms: C_7  and  O_6 
REMARK    5  A    between atoms: C_9  and  C_10 
REMARK    6  A    between atoms: N_15  and  C_14 
REMARK    7  A    between atoms: N_20  and  C_19 
REMARK       I    between atoms: C_22  and  N_20 
ROOT
ATOM      1  C   LIG d   1       5.836  89.222 116.970  0.00  0.00     0.161 C 
ATOM      2  C   LIG d   1       6.922  90.020 117.368  0.00  0.00     0.016 C 
ATOM      3  C   LIG d   1       6.779  91.335 117.869  0.00  0.00     0.038 C 
ATOM      4  C   LIG d   1       5.521  91.889 118.148  0.00  0.00     0.028 C 
ATOM      5  C   LIG d   1       4.400  91.312 117.290  0.00  0.00    -0.047 C 
ATOM      6  C   LIG d   1       4.450  89.769 117.371  0.00  0.00     0.091 C 
ENDROOT
BRANCH   1   7
ATOM      7  O   LIG d   1       6.009  87.880 117.466  0.00  0.00    -0.368 OA
BRANCH   7   8
ATOM      8  C   LIG d   1       6.653  86.946 116.565  0.00  0.00     0.119 C 
BRANCH   8   9
ATOM      9  C   LIG d   1       5.849  85.632 116.608  0.00  0.00     0.028 C 
ATOM     10  C   LIG d   1       4.740  85.587 115.544  0.00  0.00     0.006 C 
ENDBRANCH   8   9
BRANCH   8  11
ATOM     11  C   LIG d   1       8.057  86.578 117.054  0.00  0.00     0.028 C 
ATOM     12  C   LIG d   1       9.150  86.900 116.024  0.00  0.00     0.006 C 
ENDBRANCH   8  11
ENDBRANCH   7   8
ENDBRANCH   1   7
BRANCH   6  13
ATOM     13  N   LIG d   1       3.440  89.122 116.493  0.00  0.00    -0.311 N 
ATOM     14  C   LIG d   1       2.549  88.235 116.932  0.00  0.00     0.210 C 
ATOM     15  C   LIG d   1       1.612  87.675 115.857  0.00  0.00     0.109 C 
ATOM     16  O   LIG d   1       2.424  87.882 118.114  0.00  0.00    -0.276 OA
ATOM     17  H   LIG d   1       3.450  89.374 115.524  0.00  0.00     0.149 HD
ENDBRANCH   6  13
BRANCH   5  18
ATOM     18  N   LIG d   1       3.128  91.876 117.779  0.00  0.00     0.381 N 
ATOM     19  H   LIG d   1       3.250  92.844 117.999  0.00  0.00    -0.090 HD
ATOM     20  H   LIG d   1       2.860  91.392 118.618  0.00  0.00    -0.090 HD
ATOM     21  H   LIG d   1       2.420  91.772 117.086  0.00  0.00    -0.090 HD
ENDBRANCH   5  18
BRANCH   3  22
ATOM     22  C   LIG d   1       7.903  92.124 118.057  0.00  0.00     0.382 C 
ATOM     23  O   LIG d   1       7.786  93.276 118.541  0.00  0.00    -0.241 OA
ATOM     24  O   LIG d   1       9.027  91.717 117.708  0.00  0.00    -0.241 OA
ENDBRANCH   3  22
TORSDOF 7
ENDMDL
MODEL 9
REMARK VINA RESULT:      -3.3      2.693      5.174
REMARK  7 active torsions:
REMARK  status: ('A' for Active; 'I' for Inactive)
REMARK    1  A    between atoms: C_2  and  C_3 
REMARK    2  A    between atoms: C_3  and  O_6 
REMARK    3  A    between atoms: C_3  and  C_4 
REMARK    4  A    between atoms: C_7  and  O_6 
REMARK    5  A    between atoms: C_9  and  C_10 
REMARK    6  A    between atoms: N_15  and  C_14 
REMARK    7  A    between atoms: N_20  and  C_19 
REMARK       I    between atoms: C_22  and  N_20 
ROOT
ATOM      1  C   LIG d   1       5.865  91.186 118.077  0.00  0.00     0.161 C 
ATOM      2  C   LIG d   1       6.124  92.454 118.623  0.00  0.00     0.016 C 
ATOM      3  C   LIG d   1       5.124  93.431 118.832  0.00  0.00     0.038 C 
ATOM      4  C   LIG d   1       3.762  93.149 118.647  0.00  0.00     0.028 C 
ATOM      5  C   LIG d   1       3.505  92.052 117.619  0.00  0.00    -0.047 C 
ATOM      6  C   LIG d   1       4.369  90.820 117.973  0.00  0.00     0.091 C 
ENDROOT
BRANCH   1   7
ATOM      7  O   LIG d   1       6.576  90.178 118.822  0.00  0.00    -0.368 OA
BRANCH   7   8
ATOM      8  C   LIG d   1       7.756  89.629 118.186  0.00  0.00     0.119 C 
BRANCH   8   9
ATOM      9  C   LIG d   1       7.411  88.200 117.724  0.00  0.00     0.028 C 
ATOM     10  C   LIG d   1       7.326  88.083 116.193  0.00  0.00     0.006 C 
ENDBRANCH   8   9
BRANCH   8  11
ATOM     11  C   LIG d   1       8.904  89.465 119.188  0.00  0.00     0.028 C 
ATOM     12  C   LIG d   1       9.603  90.794 119.515  0.00  0.00     0.006 C 
ENDBRANCH   8  11
ENDBRANCH   7   8
ENDBRANCH   1   7
BRANCH   6  13
ATOM     13  N   LIG d   1       4.242  89.731 116.970  0.00  0.00    -0.311 N 
ATOM     14  C   LIG d   1       3.417  88.695 117.113  0.00  0.00     0.210 C 
ATOM     15  C   LIG d   1       3.455  87.675 115.971  0.00  0.00     0.109 C 
ATOM     16  O   LIG d   1       2.633  88.541 118.062  0.00  0.00    -0.276 OA
ATOM     17  H   LIG d   1       4.818  89.793 116.153  0.00  0.00     0.149 HD
ENDBRANCH   6  13
BRANCH   5  18
ATOM     18  N   LIG d   1       2.058  91.765 117.626  0.00  0.00     0.381 N 
ATOM     19  H   LIG d   1       1.600  92.350 118.296  0.00  0.00    -0.090 HD
ATOM     20  H   LIG d   1       1.918  90.807 117.897  0.00  0.00    -0.090 HD
ATOM     21  H   LIG d   1       1.675  91.921 116.720  0.00  0.00    -0.090 HD
ENDBRANCH   5  18
BRANCH   3  22
ATOM     22  C   LIG d   1       5.486  94.720 119.192  0.00  0.00     0.382 C 
ATOM     23  O   LIG d   1       5.056  95.216 120.261  0.00  0.00    -0.241 OA
ATOM     24  O   LIG d   1       6.203  95.408 118.441  0.00  0.00    -0.241 OA
ENDBRANCH   3  22
TORSDOF 7
ENDMDL
