MODEL 1
REMARK VINA RESULT:      -5.1      0.000      0.000
REMARK  7 active torsions:
REMARK  status: ('A' for Active; 'I' for Inactive)
REMARK    1  A    between atoms: C_2  and  C_3 
REMARK    2  A    between atoms: C_3  and  O_6 
REMARK    3  A    between atoms: C_3  and  C_4 
REMARK    4  A    between atoms: C_7  and  O_6 
REMARK    5  A    between atoms: C_9  and  C_10 
REMARK    6  A    between atoms: N_15  and  C_14 
REMARK    7  A    between atoms: N_20  and  C_19 
REMARK       I    between atoms: C_22  and  N_20 
ROOT
ATOM      1  C   LIG d   1      -4.638  91.995 118.050  0.00  0.00     0.161 C 
ATOM      2  C   LIG d   1      -4.817  91.195 116.909  0.00  0.00     0.016 C 
ATOM      3  C   LIG d   1      -5.967  91.256 116.089  0.00  0.00     0.038 C 
ATOM      4  C   LIG d   1      -6.956  92.235 116.270  0.00  0.00     0.028 C 
ATOM      5  C   LIG d   1      -7.060  92.732 117.708  0.00  0.00    -0.047 C 
ATOM      6  C   LIG d   1      -5.654  93.146 118.199  0.00  0.00     0.091 C 
ENDROOT
BRANCH   1   7
ATOM      7  O   LIG d   1      -3.291  92.508 118.079  0.00  0.00    -0.368 OA
BRANCH   7   8
ATOM      8  C   LIG d   1      -2.399  91.903 119.047  0.00  0.00     0.119 C 
BRANCH   8   9
ATOM      9  C   LIG d   1      -1.960  93.009 120.027  0.00  0.00     0.028 C 
ATOM     10  C   LIG d   1      -2.121  94.418 119.432  0.00  0.00     0.006 C 
ENDBRANCH   8   9
BRANCH   8  11
ATOM     11  C   LIG d   1      -1.108  91.413 118.385  0.00  0.00     0.028 C 
ATOM     12  C   LIG d   1      -1.290  90.082 117.638  0.00  0.00     0.006 C 
ENDBRANCH   8  11
ENDBRANCH   7   8
ENDBRANCH   1   7
BRANCH   6  13
ATOM     13  N   LIG d   1      -5.653  93.565 119.625  0.00  0.00    -0.311 N 
ATOM     14  C   LIG d   1      -5.794  94.830 120.017  0.00  0.00     0.210 C 
ATOM     15  C   LIG d   1      -5.744  95.047 121.533  0.00  0.00     0.109 C 
ATOM     16  O   LIG d   1      -5.988  95.789 119.255  0.00  0.00    -0.276 OA
ATOM     17  H   LIG d   1      -5.532  92.847 120.311  0.00  0.00     0.149 HD
ENDBRANCH   6  13
BRANCH   5  18
ATOM     18  N   LIG d   1      -8.030  93.843 117.726  0.00  0.00     0.381 N 
ATOM     19  H   LIG d   1      -8.955  93.484 117.851  0.00  0.00    -0.090 HD
ATOM     20  H   LIG d   1      -7.994  94.320 116.842  0.00  0.00    -0.090 HD
ATOM     21  H   LIG d   1      -7.809  94.476 118.462  0.00  0.00    -0.090 HD
ENDBRANCH   5  18
BRANCH   3  22
ATOM     22  C   LIG d   1      -6.156  90.304 115.099  0.00  0.00     0.382 C 
ATOM     23  O   LIG d   1      -7.218  90.297 114.430  0.00  0.00    -0.241 OA
ATOM     24  O   LIG d   1      -5.298  89.425 114.895  0.00  0.00    -0.241 OA
ENDBRANCH   3  22
TORSDOF 7
ENDMDL
MODEL 2
REMARK VINA RESULT:      -5.0      0.824      1.529
REMARK  7 active torsions:
REMARK  status: ('A' for Active; 'I' for Inactive)
REMARK    1  A    between atoms: C_2  and  C_3 
REMARK    2  A    between atoms: C_3  and  O_6 
REMARK    3  A    between atoms: C_3  and  C_4 
REMARK    4  A    between atoms: C_7  and  O_6 
REMARK    5  A    between atoms: C_9  and  C_10 
REMARK    6  A    between atoms: N_15  and  C_14 
REMARK    7  A    between atoms: N_20  and  C_19 
REMARK       I    between atoms: C_22  and  N_20 
ROOT
ATOM      1  C   LIG d   1      -4.611  92.076 118.054  0.00  0.00     0.161 C 
ATOM      2  C   LIG d   1      -4.790  91.262 116.924  0.00  0.00     0.016 C 
ATOM      3  C   LIG d   1      -5.953  91.289 116.121  0.00  0.00     0.038 C 
ATOM      4  C   LIG d   1      -6.960  92.248 116.307  0.00  0.00     0.028 C 
ATOM      5  C   LIG d   1      -7.054  92.757 117.742  0.00  0.00    -0.047 C 
ATOM      6  C   LIG d   1      -5.651  93.206 118.208  0.00  0.00     0.091 C 
ENDROOT
BRANCH   1   7
ATOM      7  O   LIG d   1      -3.276  92.620 118.058  0.00  0.00    -0.368 OA
BRANCH   7   8
ATOM      8  C   LIG d   1      -2.232  91.742 118.545  0.00  0.00     0.119 C 
BRANCH   8   9
ATOM      9  C   LIG d   1      -2.498  91.492 120.042  0.00  0.00     0.028 C 
ATOM     10  C   LIG d   1      -2.063  90.086 120.490  0.00  0.00     0.006 C 
ENDBRANCH   8   9
BRANCH   8  11
ATOM     11  C   LIG d   1      -0.860  92.420 118.484  0.00  0.00     0.028 C 
ATOM     12  C   LIG d   1      -0.879  93.732 117.685  0.00  0.00     0.006 C 
ENDBRANCH   8  11
ENDBRANCH   7   8
ENDBRANCH   1   7
BRANCH   6  13
ATOM     13  N   LIG d   1      -5.637  93.640 119.629  0.00  0.00    -0.311 N 
ATOM     14  C   LIG d   1      -5.777  94.908 120.010  0.00  0.00     0.210 C 
ATOM     15  C   LIG d   1      -5.714  95.139 121.523  0.00  0.00     0.109 C 
ATOM     16  O   LIG d   1      -5.981  95.859 119.241  0.00  0.00    -0.276 OA
ATOM     17  H   LIG d   1      -5.509  92.928 120.322  0.00  0.00     0.149 HD
ENDBRANCH   6  13
BRANCH   5  18
ATOM     18  N   LIG d   1      -8.048  93.847 117.764  0.00  0.00     0.381 N 
ATOM     19  H   LIG d   1      -8.793  93.614 118.390  0.00  0.00    -0.090 HD
ATOM     20  H   LIG d   1      -8.433  93.955 116.842  0.00  0.00    -0.090 HD
ATOM     21  H   LIG d   1      -7.615  94.697 118.052  0.00  0.00    -0.090 HD
ENDBRANCH   5  18
BRANCH   3  22
ATOM     22  C   LIG d   1      -6.136  90.324 115.142  0.00  0.00     0.382 C 
ATOM     23  O   LIG d   1      -5.247  89.463 114.937  0.00  0.00    -0.241 OA
ATOM     24  O   LIG d   1      -7.160  90.330 114.432  0.00  0.00    -0.241 OA
ENDBRANCH   3  22
TORSDOF 7
ENDMDL
MODEL 3
REMARK VINA RESULT:      -4.8      2.278      4.767
REMARK  7 active torsions:
REMARK  status: ('A' for Active; 'I' for Inactive)
REMARK    1  A    between atoms: C_2  and  C_3 
REMARK    2  A    between atoms: C_3  and  O_6 
REMARK    3  A    between atoms: C_3  and  C_4 
REMARK    4  A    between atoms: C_7  and  O_6 
REMARK    5  A    between atoms: C_9  and  C_10 
REMARK    6  A    between atoms: N_15  and  C_14 
REMARK    7  A    between atoms: N_20  and  C_19 
REMARK       I    between atoms: C_22  and  N_20 
ROOT
ATOM      1  C   LIG d   1      -5.104  92.863 118.483  0.00  0.00     0.161 C 
ATOM      2  C   LIG d   1      -6.457  93.238 118.437  0.00  0.00     0.016 C 
ATOM      3  C   LIG d   1      -6.954  94.431 119.010  0.00  0.00     0.038 C 
ATOM      4  C   LIG d   1      -6.101  95.411 119.540  0.00  0.00     0.028 C 
ATOM      5  C   LIG d   1      -4.782  94.849 120.060  0.00  0.00    -0.047 C 
ATOM      6  C   LIG d   1      -4.142  93.972 118.959  0.00  0.00     0.091 C 
ENDROOT
BRANCH   1   7
ATOM      7  O   LIG d   1      -4.692  92.361 117.197  0.00  0.00    -0.368 OA
BRANCH   7   8
ATOM      8  C   LIG d   1      -4.860  90.938 116.985  0.00  0.00     0.119 C 
BRANCH   8   9
ATOM      9  C   LIG d   1      -3.454  90.308 116.929  0.00  0.00     0.028 C 
ATOM     10  C   LIG d   1      -2.966  89.841 118.310  0.00  0.00     0.006 C 
ENDBRANCH   8   9
BRANCH   8  11
ATOM     11  C   LIG d   1      -5.488  90.648 115.618  0.00  0.00     0.028 C 
ATOM     12  C   LIG d   1      -6.331  91.820 115.090  0.00  0.00     0.006 C 
ENDBRANCH   8  11
ENDBRANCH   7   8
ENDBRANCH   1   7
BRANCH   6  13
ATOM     13  N   LIG d   1      -2.889  93.316 119.415  0.00  0.00    -0.311 N 
ATOM     14  C   LIG d   1      -1.752  93.343 118.721  0.00  0.00     0.210 C 
ATOM     15  C   LIG d   1      -0.585  92.585 119.362  0.00  0.00     0.109 C 
ATOM     16  O   LIG d   1      -1.591  93.949 117.651  0.00  0.00    -0.276 OA
ATOM     17  H   LIG d   1      -2.922  92.827 120.289  0.00  0.00     0.149 HD
ENDBRANCH   6  13
BRANCH   5  18
ATOM     18  N   LIG d   1      -3.936  95.991 120.455  0.00  0.00     0.381 N 
ATOM     19  H   LIG d   1      -3.396  96.299 119.671  0.00  0.00    -0.090 HD
ATOM     20  H   LIG d   1      -3.303  95.692 121.176  0.00  0.00    -0.090 HD
ATOM     21  H   LIG d   1      -4.505  96.737 120.790  0.00  0.00    -0.090 HD
ENDBRANCH   5  18
BRANCH   3  22
ATOM     22  C   LIG d   1      -8.323  94.635 119.092  0.00  0.00     0.382 C 
ATOM     23  O   LIG d   1      -8.831  95.056 120.160  0.00  0.00    -0.241 OA
ATOM     24  O   LIG d   1      -9.062  94.362 118.127  0.00  0.00    -0.241 OA
ENDBRANCH   3  22
TORSDOF 7
ENDMDL
MODEL 4
REMARK VINA RESULT:      -4.7      1.773      2.341
REMARK  7 active torsions:
REMARK  status: ('A' for Active; 'I' for Inactive)
REMARK    1  A    between atoms: C_2  and  C_3 
REMARK    2  A    between atoms: C_3  and  O_6 
REMARK    3  A    between atoms: C_3  and  C_4 
REMARK    4  A    between atoms: C_7  and  O_6 
REMARK    5  A    between atoms: C_9  and  C_10 
REMARK    6  A    between atoms: N_15  and  C_14 
REMARK    7  A    between atoms: N_20  and  C_19 
REMARK       I    between atoms: C_22  and  N_20 
ROOT
ATOM      1  C   LIG d   1      -3.994  91.208 117.905  0.00  0.00     0.161 C 
ATOM      2  C   LIG d   1      -4.859  90.682 116.931  0.00  0.00     0.016 C 
ATOM      3  C   LIG d   1      -6.035  91.336 116.500  0.00  0.00     0.038 C 
ATOM      4  C   LIG d   1      -6.349  92.642 116.906  0.00  0.00     0.028 C 
ATOM      5  C   LIG d   1      -5.772  93.007 118.270  0.00  0.00    -0.047 C 
ATOM      6  C   LIG d   1      -4.261  92.682 118.278  0.00  0.00     0.091 C 
ENDROOT
BRANCH   1   7
ATOM      7  O   LIG d   1      -2.625  91.038 117.486  0.00  0.00    -0.368 OA
BRANCH   7   8
ATOM      8  C   LIG d   1      -1.848  90.067 118.230  0.00  0.00     0.119 C 
BRANCH   8   9
ATOM      9  C   LIG d   1      -0.376  90.523 118.188  0.00  0.00     0.028 C 
ATOM     10  C   LIG d   1      -0.206  91.896 117.517  0.00  0.00     0.006 C 
ENDBRANCH   8   9
BRANCH   8  11
ATOM     11  C   LIG d   1      -1.867  88.697 117.547  0.00  0.00     0.028 C 
ATOM     12  C   LIG d   1      -0.459  88.121 117.326  0.00  0.00     0.006 C 
ENDBRANCH   8  11
ENDBRANCH   7   8
ENDBRANCH   1   7
BRANCH   6  13
ATOM     13  N   LIG d   1      -3.635  92.930 119.603  0.00  0.00    -0.311 N 
ATOM     14  C   LIG d   1      -2.646  93.801 119.795  0.00  0.00     0.210 C 
ATOM     15  C   LIG d   1      -2.131  93.889 121.235  0.00  0.00     0.109 C 
ATOM     16  O   LIG d   1      -2.166  94.532 118.915  0.00  0.00    -0.276 OA
ATOM     17  H   LIG d   1      -3.985  92.402 120.379  0.00  0.00     0.149 HD
ENDBRANCH   6  13
BRANCH   5  18
ATOM     18  N   LIG d   1      -6.058  94.435 118.507  0.00  0.00     0.381 N 
ATOM     19  H   LIG d   1      -6.725  94.528 119.246  0.00  0.00    -0.090 HD
ATOM     20  H   LIG d   1      -6.453  94.830 117.672  0.00  0.00    -0.090 HD
ATOM     21  H   LIG d   1      -5.218  94.915 118.745  0.00  0.00    -0.090 HD
ENDBRANCH   5  18
BRANCH   3  22
ATOM     22  C   LIG d   1      -6.933  90.667 115.682  0.00  0.00     0.382 C 
ATOM     23  O   LIG d   1      -8.045  91.185 115.415  0.00  0.00    -0.241 OA
ATOM     24  O   LIG d   1      -6.664  89.533 115.243  0.00  0.00    -0.241 OA
ENDBRANCH   3  22
TORSDOF 7
ENDMDL
MODEL 5
REMARK VINA RESULT:      -4.7      2.411      4.326
REMARK  7 active torsions:
REMARK  status: ('A' for Active; 'I' for Inactive)
REMARK    1  A    between atoms: C_2  and  C_3 
REMARK    2  A    between atoms: C_3  and  O_6 
REMARK    3  A    between atoms: C_3  and  C_4 
REMARK    4  A    between atoms: C_7  and  O_6 
REMARK    5  A    between atoms: C_9  and  C_10 
REMARK    6  A    between atoms: N_15  and  C_14 
REMARK    7  A    between atoms: N_20  and  C_19 
REMARK       I    between atoms: C_22  and  N_20 
ROOT
ATOM      1  C   LIG d   1      -4.604  93.102 119.131  0.00  0.00     0.161 C 
ATOM      2  C   LIG d   1      -5.828  93.773 119.299  0.00  0.00     0.016 C 
ATOM      3  C   LIG d   1      -6.925  93.620 118.420  0.00  0.00     0.038 C 
ATOM      4  C   LIG d   1      -6.925  92.666 117.393  0.00  0.00     0.028 C 
ATOM      5  C   LIG d   1      -5.530  92.329 116.878  0.00  0.00    -0.047 C 
ATOM      6  C   LIG d   1      -4.624  91.973 118.080  0.00  0.00     0.091 C 
ENDROOT
BRANCH   1   7
ATOM      7  O   LIG d   1      -4.146  92.597 120.401  0.00  0.00    -0.368 OA
BRANCH   7   8
ATOM      8  C   LIG d   1      -3.045  93.314 121.012  0.00  0.00     0.119 C 
BRANCH   8   9
ATOM      9  C   LIG d   1      -2.411  94.203 119.925  0.00  0.00     0.028 C 
ATOM     10  C   LIG d   1      -0.955  93.810 119.622  0.00  0.00     0.006 C 
ENDBRANCH   8   9
BRANCH   8  11
ATOM     11  C   LIG d   1      -1.934  92.357 121.453  0.00  0.00     0.028 C 
ATOM     12  C   LIG d   1      -2.392  90.890 121.494  0.00  0.00     0.006 C 
ENDBRANCH   8  11
ENDBRANCH   7   8
ENDBRANCH   1   7
BRANCH   6  13
ATOM     13  N   LIG d   1      -3.219  91.712 117.673  0.00  0.00    -0.311 N 
ATOM     14  C   LIG d   1      -2.620  90.532 117.822  0.00  0.00     0.210 C 
ATOM     15  C   LIG d   1      -1.161  90.484 117.355  0.00  0.00     0.109 C 
ATOM     16  O   LIG d   1      -3.167  89.512 118.267  0.00  0.00    -0.276 OA
ATOM     17  H   LIG d   1      -2.710  92.477 117.274  0.00  0.00     0.149 HD
ENDBRANCH   6  13
BRANCH   5  18
ATOM     18  N   LIG d   1      -5.666  91.224 115.910  0.00  0.00     0.381 N 
ATOM     19  H   LIG d   1      -6.093  90.436 116.354  0.00  0.00    -0.090 HD
ATOM     20  H   LIG d   1      -4.751  90.953 115.596  0.00  0.00    -0.090 HD
ATOM     21  H   LIG d   1      -6.218  91.517 115.134  0.00  0.00    -0.090 HD
ENDBRANCH   5  18
BRANCH   3  22
ATOM     22  C   LIG d   1      -8.024  94.458 118.542  0.00  0.00     0.382 C 
ATOM     23  O   LIG d   1      -9.025  94.289 117.805  0.00  0.00    -0.241 OA
ATOM     24  O   LIG d   1      -8.008  95.408 119.347  0.00  0.00    -0.241 OA
ENDBRANCH   3  22
TORSDOF 7
ENDMDL
MODEL 6
REMARK VINA RESULT:      -4.5      2.002      4.502
REMARK  7 active torsions:
REMARK  status: ('A' for Active; 'I' for Inactive)
REMARK    1  A    between atoms: C_2  and  C_3 
REMARK    2  A    between atoms: C_3  and  O_6 
REMARK    3  A    between atoms: C_3  and  C_4 
REMARK    4  A    between atoms: C_7  and  O_6 
REMARK    5  A    between atoms: C_9  and  C_10 
REMARK    6  A    between atoms: N_15  and  C_14 
REMARK    7  A    between atoms: N_20  and  C_19 
REMARK       I    between atoms: C_22  and  N_20 
ROOT
ATOM      1  C   LIG d   1      -5.840  93.523 118.413  0.00  0.00     0.161 C 
ATOM      2  C   LIG d   1      -6.663  92.685 117.643  0.00  0.00     0.016 C 
ATOM      3  C   LIG d   1      -6.182  91.563 116.930  0.00  0.00     0.038 C 
ATOM      4  C   LIG d   1      -4.860  91.112 117.062  0.00  0.00     0.028 C 
ATOM      5  C   LIG d   1      -3.876  92.219 117.427  0.00  0.00    -0.047 C 
ATOM      6  C   LIG d   1      -4.416  92.983 118.658  0.00  0.00     0.091 C 
ENDROOT
BRANCH   1   7
ATOM      7  O   LIG d   1      -6.485  93.824 119.667  0.00  0.00    -0.368 OA
BRANCH   7   8
ATOM      8  C   LIG d   1      -7.029  95.159 119.800  0.00  0.00     0.119 C 
BRANCH   8   9
ATOM      9  C   LIG d   1      -6.111  95.941 120.759  0.00  0.00     0.028 C 
ATOM     10  C   LIG d   1      -5.270  97.003 120.032  0.00  0.00     0.006 C 
ENDBRANCH   8   9
BRANCH   8  11
ATOM     11  C   LIG d   1      -8.401  95.137 120.480  0.00  0.00     0.028 C 
ATOM     12  C   LIG d   1      -8.611  96.320 121.437  0.00  0.00     0.006 C 
ENDBRANCH   8  11
ENDBRANCH   7   8
ENDBRANCH   1   7
BRANCH   6  13
ATOM     13  N   LIG d   1      -3.555  94.136 119.031  0.00  0.00    -0.311 N 
ATOM     14  C   LIG d   1      -2.596  94.067 119.953  0.00  0.00     0.210 C 
ATOM     15  C   LIG d   1      -1.840  95.377 120.199  0.00  0.00     0.109 C 
ATOM     16  O   LIG d   1      -2.278  93.038 120.567  0.00  0.00    -0.276 OA
ATOM     17  H   LIG d   1      -3.724  95.003 118.559  0.00  0.00     0.149 HD
ENDBRANCH   6  13
BRANCH   5  18
ATOM     18  N   LIG d   1      -2.565  91.588 117.668  0.00  0.00     0.381 N 
ATOM     19  H   LIG d   1      -1.854  92.290 117.713  0.00  0.00    -0.090 HD
ATOM     20  H   LIG d   1      -2.354  90.974 116.900  0.00  0.00    -0.090 HD
ATOM     21  H   LIG d   1      -2.586  91.071 118.519  0.00  0.00    -0.090 HD
ENDBRANCH   5  18
BRANCH   3  22
ATOM     22  C   LIG d   1      -7.018  90.902 116.043  0.00  0.00     0.382 C 
ATOM     23  O   LIG d   1      -6.755  89.727 115.690  0.00  0.00    -0.241 OA
ATOM     24  O   LIG d   1      -8.007  91.482 115.556  0.00  0.00    -0.241 OA
ENDBRANCH   3  22
TORSDOF 7
ENDMDL
MODEL 7
REMARK VINA RESULT:      -4.4      2.054      4.143
REMARK  7 active torsions:
REMARK  status: ('A' for Active; 'I' for Inactive)
REMARK    1  A    between atoms: C_2  and  C_3 
REMARK    2  A    between atoms: C_3  and  O_6 
REMARK    3  A    between atoms: C_3  and  C_4 
REMARK    4  A    between atoms: C_7  and  O_6 
REMARK    5  A    between atoms: C_9  and  C_10 
REMARK    6  A    between atoms: N_15  and  C_14 
REMARK    7  A    between atoms: N_20  and  C_19 
REMARK       I    between atoms: C_22  and  N_20 
ROOT
ATOM      1  C   LIG d   1      -4.885  92.942 118.325  0.00  0.00     0.161 C 
ATOM      2  C   LIG d   1      -5.601  92.374 117.257  0.00  0.00     0.016 C 
ATOM      3  C   LIG d   1      -5.201  91.191 116.594  0.00  0.00     0.038 C 
ATOM      4  C   LIG d   1      -4.133  90.408 117.056  0.00  0.00     0.028 C 
ATOM      5  C   LIG d   1      -3.080  91.206 117.816  0.00  0.00    -0.047 C 
ATOM      6  C   LIG d   1      -3.779  92.041 118.913  0.00  0.00     0.091 C 
ENDROOT
BRANCH   1   7
ATOM      7  O   LIG d   1      -5.798  93.356 119.360  0.00  0.00    -0.368 OA
BRANCH   7   8
ATOM      8  C   LIG d   1      -6.106  94.771 119.410  0.00  0.00     0.119 C 
BRANCH   8   9
ATOM      9  C   LIG d   1      -5.512  95.328 120.719  0.00  0.00     0.028 C 
ATOM     10  C   LIG d   1      -4.411  96.371 120.466  0.00  0.00     0.006 C 
ENDBRANCH   8   9
BRANCH   8  11
ATOM     11  C   LIG d   1      -7.615  95.009 119.517  0.00  0.00     0.028 C 
ATOM     12  C   LIG d   1      -8.374  94.600 118.245  0.00  0.00     0.006 C 
ENDBRANCH   8  11
ENDBRANCH   7   8
ENDBRANCH   1   7
BRANCH   6  13
ATOM     13  N   LIG d   1      -2.831  92.917 119.650  0.00  0.00    -0.311 N 
ATOM     14  C   LIG d   1      -2.756  92.962 120.979  0.00  0.00     0.210 C 
ATOM     15  C   LIG d   1      -1.724  93.947 121.536  0.00  0.00     0.109 C 
ATOM     16  O   LIG d   1      -3.424  92.256 121.750  0.00  0.00    -0.276 OA
ATOM     17  H   LIG d   1      -2.229  93.500 119.103  0.00  0.00     0.149 HD
ENDBRANCH   6  13
BRANCH   5  18
ATOM     18  N   LIG d   1      -2.098  90.248 118.357  0.00  0.00     0.381 N 
ATOM     19  H   LIG d   1      -1.311  90.185 117.742  0.00  0.00    -0.090 HD
ATOM     20  H   LIG d   1      -2.527  89.341 118.414  0.00  0.00    -0.090 HD
ATOM     21  H   LIG d   1      -1.799  90.539 119.262  0.00  0.00    -0.090 HD
ENDBRANCH   5  18
BRANCH   3  22
ATOM     22  C   LIG d   1      -5.849  90.802 115.432  0.00  0.00     0.382 C 
ATOM     23  O   LIG d   1      -6.286  91.670 114.637  0.00  0.00    -0.241 OA
ATOM     24  O   LIG d   1      -6.043  89.596 115.190  0.00  0.00    -0.241 OA
ENDBRANCH   3  22
TORSDOF 7
ENDMDL
MODEL 8
REMARK VINA RESULT:      -4.3      1.325      2.095
REMARK  7 active torsions:
REMARK  status: ('A' for Active; 'I' for Inactive)
REMARK    1  A    between atoms: C_2  and  C_3 
REMARK    2  A    between atoms: C_3  and  O_6 
REMARK    3  A    between atoms: C_3  and  C_4 
REMARK    4  A    between atoms: C_7  and  O_6 
REMARK    5  A    between atoms: C_9  and  C_10 
REMARK    6  A    between atoms: N_15  and  C_14 
REMARK    7  A    between atoms: N_20  and  C_19 
REMARK       I    between atoms: C_22  and  N_20 
ROOT
ATOM      1  C   LIG d   1      -4.270  93.077 118.736  0.00  0.00     0.161 C 
ATOM      2  C   LIG d   1      -4.184  92.151 117.683  0.00  0.00     0.016 C 
ATOM      3  C   LIG d   1      -5.285  91.792 116.871  0.00  0.00     0.038 C 
ATOM      4  C   LIG d   1      -6.519  92.452 116.961  0.00  0.00     0.028 C 
ATOM      5  C   LIG d   1      -6.794  93.036 118.343  0.00  0.00    -0.047 C 
ATOM      6  C   LIG d   1      -5.581  93.889 118.778  0.00  0.00     0.091 C 
ENDROOT
BRANCH   1   7
ATOM      7  O   LIG d   1      -3.133  93.962 118.702  0.00  0.00    -0.368 OA
BRANCH   7   8
ATOM      8  C   LIG d   1      -2.036  93.558 117.846  0.00  0.00     0.119 C 
BRANCH   8   9
ATOM      9  C   LIG d   1      -0.953  92.931 118.746  0.00  0.00     0.028 C 
ATOM     10  C   LIG d   1      -0.166  91.820 118.031  0.00  0.00     0.006 C 
ENDBRANCH   8   9
BRANCH   8  11
ATOM     11  C   LIG d   1      -1.366  94.768 117.189  0.00  0.00     0.028 C 
ATOM     12  C   LIG d   1      -1.085  95.906 118.183  0.00  0.00     0.006 C 
ENDBRANCH   8  11
ENDBRANCH   7   8
ENDBRANCH   1   7
BRANCH   6  13
ATOM     13  N   LIG d   1      -5.732  94.429 120.154  0.00  0.00    -0.311 N 
ATOM     14  C   LIG d   1      -5.654  95.727 120.445  0.00  0.00     0.210 C 
ATOM     15  C   LIG d   1      -5.818  96.067 121.930  0.00  0.00     0.109 C 
ATOM     16  O   LIG d   1      -5.496  96.631 119.611  0.00  0.00    -0.276 OA
ATOM     17  H   LIG d   1      -5.894  93.768 120.888  0.00  0.00     0.149 HD
ENDBRANCH   6  13
BRANCH   5  18
ATOM     18  N   LIG d   1      -8.046  93.812 118.258  0.00  0.00     0.381 N 
ATOM     19  H   LIG d   1      -8.439  93.923 119.171  0.00  0.00    -0.090 HD
ATOM     20  H   LIG d   1      -8.704  93.306 117.691  0.00  0.00    -0.090 HD
ATOM     21  H   LIG d   1      -7.867  94.705 117.855  0.00  0.00    -0.090 HD
ENDBRANCH   5  18
BRANCH   3  22
ATOM     22  C   LIG d   1      -5.167  90.733 115.983  0.00  0.00     0.382 C 
ATOM     23  O   LIG d   1      -5.877  90.701 114.950  0.00  0.00    -0.241 OA
ATOM     24  O   LIG d   1      -4.391  89.789 116.225  0.00  0.00    -0.241 OA
ENDBRANCH   3  22
TORSDOF 7
ENDMDL
MODEL 9
REMARK VINA RESULT:      -4.2      2.466      4.519
REMARK  7 active torsions:
REMARK  status: ('A' for Active; 'I' for Inactive)
REMARK    1  A    between atoms: C_2  and  C_3 
REMARK    2  A    between atoms: C_3  and  O_6 
REMARK    3  A    between atoms: C_3  and  C_4 
REMARK    4  A    between atoms: C_7  and  O_6 
REMARK    5  A    between atoms: C_9  and  C_10 
REMARK    6  A    between atoms: N_15  and  C_14 
REMARK    7  A    between atoms: N_20  and  C_19 
REMARK       I    between atoms: C_22  and  N_20 
ROOT
ATOM      1  C   LIG d   1      -4.363  92.650 118.523  0.00  0.00     0.161 C 
ATOM      2  C   LIG d   1      -5.444  92.738 117.631  0.00  0.00     0.016 C 
ATOM      3  C   LIG d   1      -5.671  91.809 116.590  0.00  0.00     0.038 C 
ATOM      4  C   LIG d   1      -4.912  90.636 116.464  0.00  0.00     0.028 C 
ATOM      5  C   LIG d   1      -3.502  90.764 117.030  0.00  0.00    -0.047 C 
ATOM      6  C   LIG d   1      -3.588  91.317 118.471  0.00  0.00     0.091 C 
ENDROOT
BRANCH   1   7
ATOM      7  O   LIG d   1      -4.815  92.914 119.866  0.00  0.00    -0.368 OA
BRANCH   7   8
ATOM      8  C   LIG d   1      -5.099  94.299 120.182  0.00  0.00     0.119 C 
BRANCH   8   9
ATOM      9  C   LIG d   1      -4.157  94.715 121.329  0.00  0.00     0.028 C 
ATOM     10  C   LIG d   1      -3.399  93.519 121.929  0.00  0.00     0.006 C 
ENDBRANCH   8   9
BRANCH   8  11
ATOM     11  C   LIG d   1      -6.515  94.464 120.741  0.00  0.00     0.028 C 
ATOM     12  C   LIG d   1      -7.481  95.111 119.735  0.00  0.00     0.006 C 
ENDBRANCH   8  11
ENDBRANCH   7   8
ENDBRANCH   1   7
BRANCH   6  13
ATOM     13  N   LIG d   1      -2.248  91.551 119.069  0.00  0.00    -0.311 N 
ATOM     14  C   LIG d   1      -1.638  90.677 119.867  0.00  0.00     0.210 C 
ATOM     15  C   LIG d   1      -0.270  91.125 120.391  0.00  0.00     0.109 C 
ATOM     16  O   LIG d   1      -2.085  89.559 120.165  0.00  0.00    -0.276 OA
ATOM     17  H   LIG d   1      -1.798  92.420 118.854  0.00  0.00     0.149 HD
ENDBRANCH   6  13
BRANCH   5  18
ATOM     18  N   LIG d   1      -2.871  89.433 116.958  0.00  0.00     0.381 N 
ATOM     19  H   LIG d   1      -2.250  89.394 116.175  0.00  0.00    -0.090 HD
ATOM     20  H   LIG d   1      -3.587  88.740 116.827  0.00  0.00    -0.090 HD
ATOM     21  H   LIG d   1      -2.369  89.247 117.798  0.00  0.00    -0.090 HD
ENDBRANCH   5  18
BRANCH   3  22
ATOM     22  C   LIG d   1      -6.643  92.070 115.636  0.00  0.00     0.382 C 
ATOM     23  O   LIG d   1      -6.312  92.273 114.443  0.00  0.00    -0.241 OA
ATOM     24  O   LIG d   1      -7.843  92.149 115.962  0.00  0.00    -0.241 OA
ENDBRANCH   3  22
TORSDOF 7
ENDMDL
