MODEL 1
REMARK VINA RESULT:      -5.3      0.000      0.000
REMARK  7 active torsions:
REMARK  status: ('A' for Active; 'I' for Inactive)
REMARK    1  A    between atoms: C_2  and  C_3 
REMARK    2  A    between atoms: C_3  and  O_6 
REMARK    3  A    between atoms: C_3  and  C_4 
REMARK    4  A    between atoms: C_7  and  O_6 
REMARK    5  A    between atoms: C_9  and  C_10 
REMARK    6  A    between atoms: N_15  and  C_14 
REMARK    7  A    between atoms: N_20  and  C_19 
REMARK       I    between atoms: C_22  and  N_20 
ROOT
ATOM      1  C   LIG d   1      -5.696  93.198 118.258  0.00  0.00     0.161 C 
ATOM      2  C   LIG d   1      -6.545  92.504 117.380  0.00  0.00     0.016 C 
ATOM      3  C   LIG d   1      -6.086  91.539 116.454  0.00  0.00     0.038 C 
ATOM      4  C   LIG d   1      -4.757  91.092 116.447  0.00  0.00     0.028 C 
ATOM      5  C   LIG d   1      -3.767  92.126 116.971  0.00  0.00    -0.047 C 
ATOM      6  C   LIG d   1      -4.259  92.643 118.342  0.00  0.00     0.091 C 
ENDROOT
BRANCH   1   7
ATOM      7  O   LIG d   1      -6.290  93.253 119.570  0.00  0.00    -0.368 OA
BRANCH   7   8
ATOM      8  C   LIG d   1      -6.856  94.528 119.961  0.00  0.00     0.119 C 
BRANCH   8   9
ATOM      9  C   LIG d   1      -8.370  94.467 119.685  0.00  0.00     0.028 C 
ATOM     10  C   LIG d   1      -8.802  95.427 118.563  0.00  0.00     0.006 C 
ENDBRANCH   8   9
BRANCH   8  11
ATOM     11  C   LIG d   1      -6.328  95.665 119.081  0.00  0.00     0.028 C 
ATOM     12  C   LIG d   1      -5.364  96.599 119.828  0.00  0.00     0.006 C 
ENDBRANCH   8  11
ENDBRANCH   7   8
ENDBRANCH   1   7
BRANCH   6  13
ATOM     13  N   LIG d   1      -3.392  93.720 118.887  0.00  0.00    -0.311 N 
ATOM     14  C   LIG d   1      -2.391  93.496 119.737  0.00  0.00     0.210 C 
ATOM     15  C   LIG d   1      -1.636  94.750 120.190  0.00  0.00     0.109 C 
ATOM     16  O   LIG d   1      -2.037  92.376 120.133  0.00  0.00    -0.276 OA
ATOM     17  H   LIG d   1      -3.590  94.657 118.593  0.00  0.00     0.149 HD
ENDBRANCH   6  13
BRANCH   5  18
ATOM     18  N   LIG d   1      -2.442  91.481 117.038  0.00  0.00     0.381 N 
ATOM     19  H   LIG d   1      -2.119  91.467 117.985  0.00  0.00    -0.090 HD
ATOM     20  H   LIG d   1      -1.791  92.018 116.491  0.00  0.00    -0.090 HD
ATOM     21  H   LIG d   1      -2.497  90.552 116.685  0.00  0.00    -0.090 HD
ENDBRANCH   5  18
BRANCH   3  22
ATOM     22  C   LIG d   1      -6.954  91.041 115.494  0.00  0.00     0.382 C 
ATOM     23  O   LIG d   1      -7.277  91.752 114.512  0.00  0.00    -0.241 OA
ATOM     24  O   LIG d   1      -7.452  89.907 115.620  0.00  0.00    -0.241 OA
ENDBRANCH   3  22
TORSDOF 7
ENDMDL
MODEL 2
REMARK VINA RESULT:      -5.1      0.681      1.784
REMARK  7 active torsions:
REMARK  status: ('A' for Active; 'I' for Inactive)
REMARK    1  A    between atoms: C_2  and  C_3 
REMARK    2  A    between atoms: C_3  and  O_6 
REMARK    3  A    between atoms: C_3  and  C_4 
REMARK    4  A    between atoms: C_7  and  O_6 
REMARK    5  A    between atoms: C_9  and  C_10 
REMARK    6  A    between atoms: N_15  and  C_14 
REMARK    7  A    between atoms: N_20  and  C_19 
REMARK       I    between atoms: C_22  and  N_20 
ROOT
ATOM      1  C   LIG d   1      -5.694  93.224 118.279  0.00  0.00     0.161 C 
ATOM      2  C   LIG d   1      -6.550  92.525 117.413  0.00  0.00     0.016 C 
ATOM      3  C   LIG d   1      -6.099  91.557 116.486  0.00  0.00     0.038 C 
ATOM      4  C   LIG d   1      -4.769  91.111 116.468  0.00  0.00     0.028 C 
ATOM      5  C   LIG d   1      -3.775  92.150 116.977  0.00  0.00    -0.047 C 
ATOM      6  C   LIG d   1      -4.255  92.672 118.351  0.00  0.00     0.091 C 
ENDROOT
BRANCH   1   7
ATOM      7  O   LIG d   1      -6.274  93.284 119.597  0.00  0.00    -0.368 OA
BRANCH   7   8
ATOM      8  C   LIG d   1      -6.990  94.500 119.924  0.00  0.00     0.119 C 
BRANCH   8   9
ATOM      9  C   LIG d   1      -6.081  95.342 120.839  0.00  0.00     0.028 C 
ATOM     10  C   LIG d   1      -5.445  96.532 120.102  0.00  0.00     0.006 C 
ENDBRANCH   8   9
BRANCH   8  11
ATOM     11  C   LIG d   1      -8.241  94.203 120.756  0.00  0.00     0.028 C 
ATOM     12  C   LIG d   1      -9.542  94.595 120.037  0.00  0.00     0.006 C 
ENDBRANCH   8  11
ENDBRANCH   7   8
ENDBRANCH   1   7
BRANCH   6  13
ATOM     13  N   LIG d   1      -3.384  93.753 118.882  0.00  0.00    -0.311 N 
ATOM     14  C   LIG d   1      -2.812  93.710 120.084  0.00  0.00     0.210 C 
ATOM     15  C   LIG d   1      -1.969  94.938 120.443  0.00  0.00     0.109 C 
ATOM     16  O   LIG d   1      -2.897  92.758 120.874  0.00  0.00    -0.276 OA
ATOM     17  H   LIG d   1      -3.236  94.550 118.293  0.00  0.00     0.149 HD
ENDBRANCH   6  13
BRANCH   5  18
ATOM     18  N   LIG d   1      -2.449  91.507 117.033  0.00  0.00     0.381 N 
ATOM     19  H   LIG d   1      -1.733  92.200 116.942  0.00  0.00    -0.090 HD
ATOM     20  H   LIG d   1      -2.366  90.865 116.265  0.00  0.00    -0.090 HD
ATOM     21  H   LIG d   1      -2.342  91.021 117.896  0.00  0.00    -0.090 HD
ENDBRANCH   5  18
BRANCH   3  22
ATOM     22  C   LIG d   1      -6.976  91.053 115.538  0.00  0.00     0.382 C 
ATOM     23  O   LIG d   1      -7.500  89.925 115.704  0.00  0.00    -0.241 OA
ATOM     24  O   LIG d   1      -7.215  91.692 114.495  0.00  0.00    -0.241 OA
ENDBRANCH   3  22
TORSDOF 7
ENDMDL
MODEL 3
REMARK VINA RESULT:      -5.1      2.200      4.560
REMARK  7 active torsions:
REMARK  status: ('A' for Active; 'I' for Inactive)
REMARK    1  A    between atoms: C_2  and  C_3 
REMARK    2  A    between atoms: C_3  and  O_6 
REMARK    3  A    between atoms: C_3  and  C_4 
REMARK    4  A    between atoms: C_7  and  O_6 
REMARK    5  A    between atoms: C_9  and  C_10 
REMARK    6  A    between atoms: N_15  and  C_14 
REMARK    7  A    between atoms: N_20  and  C_19 
REMARK       I    between atoms: C_22  and  N_20 
ROOT
ATOM      1  C   LIG d   1      -3.845  92.030 117.509  0.00  0.00     0.161 C 
ATOM      2  C   LIG d   1      -4.520  91.381 116.461  0.00  0.00     0.016 C 
ATOM      3  C   LIG d   1      -5.873  91.629 116.136  0.00  0.00     0.038 C 
ATOM      4  C   LIG d   1      -6.606  92.659 116.743  0.00  0.00     0.028 C 
ATOM      5  C   LIG d   1      -6.122  92.998 118.150  0.00  0.00    -0.047 C 
ATOM      6  C   LIG d   1      -4.595  93.237 118.111  0.00  0.00     0.091 C 
ENDROOT
BRANCH   1   7
ATOM      7  O   LIG d   1      -2.530  92.425 117.073  0.00  0.00    -0.368 OA
BRANCH   7   8
ATOM      8  C   LIG d   1      -1.421  91.937 117.868  0.00  0.00     0.119 C 
BRANCH   8   9
ATOM      9  C   LIG d   1      -0.572  93.156 118.278  0.00  0.00     0.028 C 
ATOM     10  C   LIG d   1      -0.888  94.401 117.432  0.00  0.00     0.006 C 
ENDBRANCH   8   9
BRANCH   8  11
ATOM     11  C   LIG d   1      -0.487  91.052 117.038  0.00  0.00     0.028 C 
ATOM     12  C   LIG d   1      -0.568  89.568 117.429  0.00  0.00     0.006 C 
ENDBRANCH   8  11
ENDBRANCH   7   8
ENDBRANCH   1   7
BRANCH   6  13
ATOM     13  N   LIG d   1      -4.028  93.491 119.461  0.00  0.00    -0.311 N 
ATOM     14  C   LIG d   1      -3.775  94.711 119.932  0.00  0.00     0.210 C 
ATOM     15  C   LIG d   1      -3.171  94.749 121.339  0.00  0.00     0.109 C 
ATOM     16  O   LIG d   1      -4.023  95.767 119.330  0.00  0.00    -0.276 OA
ATOM     17  H   LIG d   1      -3.825  92.692 120.029  0.00  0.00     0.149 HD
ENDBRANCH   6  13
BRANCH   5  18
ATOM     18  N   LIG d   1      -6.881  94.176 118.610  0.00  0.00     0.381 N 
ATOM     19  H   LIG d   1      -6.841  94.896 117.917  0.00  0.00    -0.090 HD
ATOM     20  H   LIG d   1      -6.459  94.526 119.452  0.00  0.00    -0.090 HD
ATOM     21  H   LIG d   1      -7.829  93.925 118.784  0.00  0.00    -0.090 HD
ENDBRANCH   5  18
BRANCH   3  22
ATOM     22  C   LIG d   1      -6.519  90.813 115.219  0.00  0.00     0.382 C 
ATOM     23  O   LIG d   1      -5.901  89.864 114.679  0.00  0.00    -0.241 OA
ATOM     24  O   LIG d   1      -7.699  91.042 114.892  0.00  0.00    -0.241 OA
ENDBRANCH   3  22
TORSDOF 7
ENDMDL
MODEL 4
REMARK VINA RESULT:      -4.7      2.330      4.604
REMARK  7 active torsions:
REMARK  status: ('A' for Active; 'I' for Inactive)
REMARK    1  A    between atoms: C_2  and  C_3 
REMARK    2  A    between atoms: C_3  and  O_6 
REMARK    3  A    between atoms: C_3  and  C_4 
REMARK    4  A    between atoms: C_7  and  O_6 
REMARK    5  A    between atoms: C_9  and  C_10 
REMARK    6  A    between atoms: N_15  and  C_14 
REMARK    7  A    between atoms: N_20  and  C_19 
REMARK       I    between atoms: C_22  and  N_20 
ROOT
ATOM      1  C   LIG d   1      -3.476  92.581 117.506  0.00  0.00     0.161 C 
ATOM      2  C   LIG d   1      -2.667  91.476 117.195  0.00  0.00     0.016 C 
ATOM      3  C   LIG d   1      -1.368  91.290 117.722  0.00  0.00     0.038 C 
ATOM      4  C   LIG d   1      -0.846  92.126 118.720  0.00  0.00     0.028 C 
ATOM      5  C   LIG d   1      -1.424  93.537 118.691  0.00  0.00    -0.047 C 
ATOM      6  C   LIG d   1      -2.967  93.446 118.678  0.00  0.00     0.091 C 
ENDROOT
BRANCH   1   7
ATOM      7  O   LIG d   1      -4.827  92.144 117.756  0.00  0.00    -0.368 OA
BRANCH   7   8
ATOM      8  C   LIG d   1      -5.809  92.505 116.754  0.00  0.00     0.119 C 
BRANCH   8   9
ATOM      9  C   LIG d   1      -6.851  93.414 117.435  0.00  0.00     0.028 C 
ATOM     10  C   LIG d   1      -6.912  93.199 118.957  0.00  0.00     0.006 C 
ENDBRANCH   8   9
BRANCH   8  11
ATOM     11  C   LIG d   1      -6.592  91.280 116.274  0.00  0.00     0.028 C 
ATOM     12  C   LIG d   1      -6.101  90.754 114.916  0.00  0.00     0.006 C 
ENDBRANCH   8  11
ENDBRANCH   7   8
ENDBRANCH   1   7
BRANCH   6  13
ATOM     13  N   LIG d   1      -3.612  94.780 118.566  0.00  0.00    -0.311 N 
ATOM     14  C   LIG d   1      -4.053  95.472 119.615  0.00  0.00     0.210 C 
ATOM     15  C   LIG d   1      -4.704  96.816 119.276  0.00  0.00     0.109 C 
ATOM     16  O   LIG d   1      -3.938  95.114 120.797  0.00  0.00    -0.276 OA
ATOM     17  H   LIG d   1      -3.718  95.160 117.645  0.00  0.00     0.149 HD
ENDBRANCH   6  13
BRANCH   5  18
ATOM     18  N   LIG d   1      -0.897  94.258 119.866  0.00  0.00     0.381 N 
ATOM     19  H   LIG d   1      -0.332  93.642 120.415  0.00  0.00    -0.090 HD
ATOM     20  H   LIG d   1      -1.669  94.566 120.431  0.00  0.00    -0.090 HD
ATOM     21  H   LIG d   1      -0.358  95.042 119.571  0.00  0.00    -0.090 HD
ENDBRANCH   5  18
BRANCH   3  22
ATOM     22  C   LIG d   1      -0.561  90.280 117.220  0.00  0.00     0.382 C 
ATOM     23  O   LIG d   1      -0.567  89.147 117.759  0.00  0.00    -0.241 OA
ATOM     24  O   LIG d   1       0.205  90.500 116.263  0.00  0.00    -0.241 OA
ENDBRANCH   3  22
TORSDOF 7
ENDMDL
MODEL 5
REMARK VINA RESULT:      -4.7      2.827      4.840
REMARK  7 active torsions:
REMARK  status: ('A' for Active; 'I' for Inactive)
REMARK    1  A    between atoms: C_2  and  C_3 
REMARK    2  A    between atoms: C_3  and  O_6 
REMARK    3  A    between atoms: C_3  and  C_4 
REMARK    4  A    between atoms: C_7  and  O_6 
REMARK    5  A    between atoms: C_9  and  C_10 
REMARK    6  A    between atoms: N_15  and  C_14 
REMARK    7  A    between atoms: N_20  and  C_19 
REMARK       I    between atoms: C_22  and  N_20 
ROOT
ATOM      1  C   LIG d   1      -2.744  93.273 119.346  0.00  0.00     0.161 C 
ATOM      2  C   LIG d   1      -2.626  94.615 118.948  0.00  0.00     0.016 C 
ATOM      3  C   LIG d   1      -1.808  95.041 117.876  0.00  0.00     0.038 C 
ATOM      4  C   LIG d   1      -1.164  94.128 117.028  0.00  0.00     0.028 C 
ATOM      5  C   LIG d   1      -0.850  92.795 117.698  0.00  0.00    -0.047 C 
ATOM      6  C   LIG d   1      -2.136  92.251 118.361  0.00  0.00     0.091 C 
ENDROOT
BRANCH   1   7
ATOM      7  O   LIG d   1      -4.127  92.958 119.603  0.00  0.00    -0.368 OA
BRANCH   7   8
ATOM      8  C   LIG d   1      -5.088  93.491 118.659  0.00  0.00     0.119 C 
BRANCH   8   9
ATOM      9  C   LIG d   1      -6.150  94.262 119.465  0.00  0.00     0.028 C 
ATOM     10  C   LIG d   1      -6.926  95.270 118.600  0.00  0.00     0.006 C 
ENDBRANCH   8   9
BRANCH   8  11
ATOM     11  C   LIG d   1      -5.852  92.369 117.950  0.00  0.00     0.028 C 
ATOM     12  C   LIG d   1      -5.367  92.135 116.510  0.00  0.00     0.006 C 
ENDBRANCH   8  11
ENDBRANCH   7   8
ENDBRANCH   1   7
BRANCH   6  13
ATOM     13  N   LIG d   1      -1.897  90.991 119.112  0.00  0.00    -0.311 N 
ATOM     14  C   LIG d   1      -2.532  89.850 118.849  0.00  0.00     0.210 C 
ATOM     15  C   LIG d   1      -2.151  88.675 119.755  0.00  0.00     0.109 C 
ATOM     16  O   LIG d   1      -3.350  89.691 117.931  0.00  0.00    -0.276 OA
ATOM     17  H   LIG d   1      -1.226  91.022 119.854  0.00  0.00     0.149 HD
ENDBRANCH   6  13
BRANCH   5  18
ATOM     18  N   LIG d   1      -0.307  91.893 116.664  0.00  0.00     0.381 N 
ATOM     19  H   LIG d   1      -0.482  92.275 115.756  0.00  0.00    -0.090 HD
ATOM     20  H   LIG d   1      -0.774  91.006 116.729  0.00  0.00    -0.090 HD
ATOM     21  H   LIG d   1       0.673  91.772 116.798  0.00  0.00    -0.090 HD
ENDBRANCH   5  18
BRANCH   3  22
ATOM     22  C   LIG d   1      -1.596  96.395 117.670  0.00  0.00     0.382 C 
ATOM     23  O   LIG d   1      -0.505  96.794 117.196  0.00  0.00    -0.241 OA
ATOM     24  O   LIG d   1      -2.465  97.227 117.993  0.00  0.00    -0.241 OA
ENDBRANCH   3  22
TORSDOF 7
ENDMDL
MODEL 6
REMARK VINA RESULT:      -4.6      2.137      4.245
REMARK  7 active torsions:
REMARK  status: ('A' for Active; 'I' for Inactive)
REMARK    1  A    between atoms: C_2  and  C_3 
REMARK    2  A    between atoms: C_3  and  O_6 
REMARK    3  A    between atoms: C_3  and  C_4 
REMARK    4  A    between atoms: C_7  and  O_6 
REMARK    5  A    between atoms: C_9  and  C_10 
REMARK    6  A    between atoms: N_15  and  C_14 
REMARK    7  A    between atoms: N_20  and  C_19 
REMARK       I    between atoms: C_22  and  N_20 
ROOT
ATOM      1  C   LIG d   1      -4.999  92.906 118.931  0.00  0.00     0.161 C 
ATOM      2  C   LIG d   1      -5.161  92.023 117.850  0.00  0.00     0.016 C 
ATOM      3  C   LIG d   1      -6.161  92.177 116.863  0.00  0.00     0.038 C 
ATOM      4  C   LIG d   1      -6.977  93.316 116.806  0.00  0.00     0.028 C 
ATOM      5  C   LIG d   1      -7.186  93.980 118.163  0.00  0.00    -0.047 C 
ATOM      6  C   LIG d   1      -5.809  94.215 118.824  0.00  0.00     0.091 C 
ENDROOT
BRANCH   1   7
ATOM      7  O   LIG d   1      -3.600  93.196 119.120  0.00  0.00    -0.368 OA
BRANCH   7   8
ATOM      8  C   LIG d   1      -2.786  93.216 117.922  0.00  0.00     0.119 C 
BRANCH   8   9
ATOM      9  C   LIG d   1      -1.607  92.250 118.146  0.00  0.00     0.028 C 
ATOM     10  C   LIG d   1      -1.780  90.926 117.383  0.00  0.00     0.006 C 
ENDBRANCH   8   9
BRANCH   8  11
ATOM     11  C   LIG d   1      -2.147  94.591 117.705  0.00  0.00     0.028 C 
ATOM     12  C   LIG d   1      -2.348  95.536 118.900  0.00  0.00     0.006 C 
ENDBRANCH   8  11
ENDBRANCH   7   8
ENDBRANCH   1   7
BRANCH   6  13
ATOM     13  N   LIG d   1      -5.926  94.784 120.192  0.00  0.00    -0.311 N 
ATOM     14  C   LIG d   1      -5.887  96.091 120.448  0.00  0.00     0.210 C 
ATOM     15  C   LIG d   1      -6.006  96.463 121.929  0.00  0.00     0.109 C 
ATOM     16  O   LIG d   1      -5.798  96.978 119.586  0.00  0.00    -0.276 OA
ATOM     17  H   LIG d   1      -6.032  94.137 120.948  0.00  0.00     0.149 HD
ENDBRANCH   6  13
BRANCH   5  18
ATOM     18  N   LIG d   1      -7.939  95.229 117.937  0.00  0.00     0.381 N 
ATOM     19  H   LIG d   1      -7.967  95.765 118.782  0.00  0.00    -0.090 HD
ATOM     20  H   LIG d   1      -8.882  94.997 117.679  0.00  0.00    -0.090 HD
ATOM     21  H   LIG d   1      -7.509  95.760 117.212  0.00  0.00    -0.090 HD
ENDBRANCH   5  18
BRANCH   3  22
ATOM     22  C   LIG d   1      -6.379  91.164 115.942  0.00  0.00     0.382 C 
ATOM     23  O   LIG d   1      -5.554  90.970 115.017  0.00  0.00    -0.241 OA
ATOM     24  O   LIG d   1      -7.412  90.471 115.997  0.00  0.00    -0.241 OA
ENDBRANCH   3  22
TORSDOF 7
ENDMDL
MODEL 7
REMARK VINA RESULT:      -4.4      3.648      6.234
REMARK  7 active torsions:
REMARK  status: ('A' for Active; 'I' for Inactive)
REMARK    1  A    between atoms: C_2  and  C_3 
REMARK    2  A    between atoms: C_3  and  O_6 
REMARK    3  A    between atoms: C_3  and  C_4 
REMARK    4  A    between atoms: C_7  and  O_6 
REMARK    5  A    between atoms: C_9  and  C_10 
REMARK    6  A    between atoms: N_15  and  C_14 
REMARK    7  A    between atoms: N_20  and  C_19 
REMARK       I    between atoms: C_22  and  N_20 
ROOT
ATOM      1  C   LIG d   1      -2.943  90.072 118.078  0.00  0.00     0.161 C 
ATOM      2  C   LIG d   1      -1.595  89.723 117.892  0.00  0.00     0.016 C 
ATOM      3  C   LIG d   1      -0.582  90.662 117.591  0.00  0.00     0.038 C 
ATOM      4  C   LIG d   1      -0.824  92.044 117.606  0.00  0.00     0.028 C 
ATOM      5  C   LIG d   1      -2.271  92.408 117.291  0.00  0.00    -0.047 C 
ATOM      6  C   LIG d   1      -3.207  91.587 118.208  0.00  0.00     0.091 C 
ENDROOT
BRANCH   1   7
ATOM      7  O   LIG d   1      -3.476  89.371 119.220  0.00  0.00    -0.368 OA
BRANCH   7   8
ATOM      8  C   LIG d   1      -2.536  89.073 120.281  0.00  0.00     0.119 C 
BRANCH   8   9
ATOM      9  C   LIG d   1      -2.821  87.638 120.763  0.00  0.00     0.028 C 
ATOM     10  C   LIG d   1      -1.785  86.627 120.243  0.00  0.00     0.006 C 
ENDBRANCH   8   9
BRANCH   8  11
ATOM     11  C   LIG d   1      -2.773  89.966 121.502  0.00  0.00     0.028 C 
ATOM     12  C   LIG d   1      -1.696  91.049 121.667  0.00  0.00     0.006 C 
ENDBRANCH   8  11
ENDBRANCH   7   8
ENDBRANCH   1   7
BRANCH   6  13
ATOM     13  N   LIG d   1      -4.643  91.821 117.908  0.00  0.00    -0.311 N 
ATOM     14  C   LIG d   1      -5.382  92.738 118.529  0.00  0.00     0.210 C 
ATOM     15  C   LIG d   1      -6.846  92.801 118.082  0.00  0.00     0.109 C 
ATOM     16  O   LIG d   1      -4.956  93.528 119.385  0.00  0.00    -0.276 OA
ATOM     17  H   LIG d   1      -5.062  91.245 117.204  0.00  0.00     0.149 HD
ENDBRANCH   6  13
BRANCH   5  18
ATOM     18  N   LIG d   1      -2.414  93.865 117.476  0.00  0.00     0.381 N 
ATOM     19  H   LIG d   1      -2.592  94.068 118.439  0.00  0.00    -0.090 HD
ATOM     20  H   LIG d   1      -3.199  94.186 116.936  0.00  0.00    -0.090 HD
ATOM     21  H   LIG d   1      -1.585  94.329 117.179  0.00  0.00    -0.090 HD
ENDBRANCH   5  18
BRANCH   3  22
ATOM     22  C   LIG d   1       0.682  90.219 117.233  0.00  0.00     0.382 C 
ATOM     23  O   LIG d   1       1.644  90.361 118.025  0.00  0.00    -0.241 OA
ATOM     24  O   LIG d   1       0.880  89.719 116.109  0.00  0.00    -0.241 OA
ENDBRANCH   3  22
TORSDOF 7
ENDMDL
MODEL 8
REMARK VINA RESULT:      -4.4      2.555      4.487
REMARK  7 active torsions:
REMARK  status: ('A' for Active; 'I' for Inactive)
REMARK    1  A    between atoms: C_2  and  C_3 
REMARK    2  A    between atoms: C_3  and  O_6 
REMARK    3  A    between atoms: C_3  and  C_4 
REMARK    4  A    between atoms: C_7  and  O_6 
REMARK    5  A    between atoms: C_9  and  C_10 
REMARK    6  A    between atoms: N_15  and  C_14 
REMARK    7  A    between atoms: N_20  and  C_19 
REMARK       I    between atoms: C_22  and  N_20 
ROOT
ATOM      1  C   LIG d   1      -4.968  93.000 119.710  0.00  0.00     0.161 C 
ATOM      2  C   LIG d   1      -3.810  92.334 119.275  0.00  0.00     0.016 C 
ATOM      3  C   LIG d   1      -3.684  91.750 117.993  0.00  0.00     0.038 C 
ATOM      4  C   LIG d   1      -4.658  91.925 116.999  0.00  0.00     0.028 C 
ATOM      5  C   LIG d   1      -6.058  92.158 117.558  0.00  0.00    -0.047 C 
ATOM      6  C   LIG d   1      -5.999  93.297 118.601  0.00  0.00     0.091 C 
ENDROOT
BRANCH   1   7
ATOM      7  O   LIG d   1      -4.605  94.215 120.395  0.00  0.00    -0.368 OA
BRANCH   7   8
ATOM      8  C   LIG d   1      -4.315  95.358 119.554  0.00  0.00     0.119 C 
BRANCH   8   9
ATOM      9  C   LIG d   1      -2.853  95.768 119.816  0.00  0.00     0.028 C 
ATOM     10  C   LIG d   1      -1.950  95.537 118.593  0.00  0.00     0.006 C 
ENDBRANCH   8   9
BRANCH   8  11
ATOM     11  C   LIG d   1      -5.156  96.573 119.957  0.00  0.00     0.028 C 
ATOM     12  C   LIG d   1      -5.899  96.369 121.287  0.00  0.00     0.006 C 
ENDBRANCH   8  11
ENDBRANCH   7   8
ENDBRANCH   1   7
BRANCH   6  13
ATOM     13  N   LIG d   1      -7.311  93.533 119.258  0.00  0.00    -0.311 N 
ATOM     14  C   LIG d   1      -8.158  94.490 118.882  0.00  0.00     0.210 C 
ATOM     15  C   LIG d   1      -9.446  94.574 119.706  0.00  0.00     0.109 C 
ATOM     16  O   LIG d   1      -7.978  95.257 117.924  0.00  0.00    -0.276 OA
ATOM     17  H   LIG d   1      -7.551  92.936 120.025  0.00  0.00     0.149 HD
ENDBRANCH   6  13
BRANCH   5  18
ATOM     18  N   LIG d   1      -6.947  92.461 116.420  0.00  0.00     0.381 N 
ATOM     19  H   LIG d   1      -7.822  91.990 116.539  0.00  0.00    -0.090 HD
ATOM     20  H   LIG d   1      -6.520  92.125 115.575  0.00  0.00    -0.090 HD
ATOM     21  H   LIG d   1      -7.097  93.444 116.357  0.00  0.00    -0.090 HD
ENDBRANCH   5  18
BRANCH   3  22
ATOM     22  C   LIG d   1      -2.590  90.947 117.709  0.00  0.00     0.382 C 
ATOM     23  O   LIG d   1      -1.578  91.439 117.155  0.00  0.00    -0.241 OA
ATOM     24  O   LIG d   1      -2.620  89.727 117.959  0.00  0.00    -0.241 OA
ENDBRANCH   3  22
TORSDOF 7
ENDMDL
MODEL 9
REMARK VINA RESULT:      -4.3      2.049      2.652
REMARK  7 active torsions:
REMARK  status: ('A' for Active; 'I' for Inactive)
REMARK    1  A    between atoms: C_2  and  C_3 
REMARK    2  A    between atoms: C_3  and  O_6 
REMARK    3  A    between atoms: C_3  and  C_4 
REMARK    4  A    between atoms: C_7  and  O_6 
REMARK    5  A    between atoms: C_9  and  C_10 
REMARK    6  A    between atoms: N_15  and  C_14 
REMARK    7  A    between atoms: N_20  and  C_19 
REMARK       I    between atoms: C_22  and  N_20 
ROOT
ATOM      1  C   LIG d   1      -3.628  93.728 118.976  0.00  0.00     0.161 C 
ATOM      2  C   LIG d   1      -4.903  93.398 118.487  0.00  0.00     0.016 C 
ATOM      3  C   LIG d   1      -5.133  92.367 117.547  0.00  0.00     0.038 C 
ATOM      4  C   LIG d   1      -4.115  91.491 117.143  0.00  0.00     0.028 C 
ATOM      5  C   LIG d   1      -2.721  92.105 117.223  0.00  0.00    -0.047 C 
ATOM      6  C   LIG d   1      -2.520  92.711 118.631  0.00  0.00     0.091 C 
ENDROOT
BRANCH   1   7
ATOM      7  O   LIG d   1      -3.690  93.937 120.400  0.00  0.00    -0.368 OA
BRANCH   7   8
ATOM      8  C   LIG d   1      -3.510  95.302 120.852  0.00  0.00     0.119 C 
BRANCH   8   9
ATOM      9  C   LIG d   1      -4.884  95.819 121.321  0.00  0.00     0.028 C 
ATOM     10  C   LIG d   1      -5.756  94.705 121.924  0.00  0.00     0.006 C 
ENDBRANCH   8   9
BRANCH   8  11
ATOM     11  C   LIG d   1      -3.103  96.222 119.698  0.00  0.00     0.028 C 
ATOM     12  C   LIG d   1      -1.861  97.069 120.020  0.00  0.00     0.006 C 
ENDBRANCH   8  11
ENDBRANCH   7   8
ENDBRANCH   1   7
BRANCH   6  13
ATOM     13  N   LIG d   1      -1.214  93.406 118.768  0.00  0.00    -0.311 N 
ATOM     14  C   LIG d   1      -0.374  93.196 119.780  0.00  0.00     0.210 C 
ATOM     15  C   LIG d   1       0.910  94.031 119.739  0.00  0.00     0.109 C 
ATOM     16  O   LIG d   1      -0.555  92.373 120.690  0.00  0.00    -0.276 OA
ATOM     17  H   LIG d   1      -0.972  94.068 118.056  0.00  0.00     0.149 HD
ENDBRANCH   6  13
BRANCH   5  18
ATOM     18  N   LIG d   1      -1.747  91.043 116.907  0.00  0.00     0.381 N 
ATOM     19  H   LIG d   1      -2.154  90.146 117.084  0.00  0.00    -0.090 HD
ATOM     20  H   LIG d   1      -0.946  91.149 117.503  0.00  0.00    -0.090 HD
ATOM     21  H   LIG d   1      -1.471  91.107 115.952  0.00  0.00    -0.090 HD
ENDBRANCH   5  18
BRANCH   3  22
ATOM     22  C   LIG d   1      -6.387  92.230 116.970  0.00  0.00     0.382 C 
ATOM     23  O   LIG d   1      -6.783  91.102 116.592  0.00  0.00    -0.241 OA
ATOM     24  O   LIG d   1      -7.108  93.228 116.782  0.00  0.00    -0.241 OA
ENDBRANCH   3  22
TORSDOF 7
ENDMDL
