MODEL 1
REMARK VINA RESULT:      -5.4      0.000      0.000
REMARK  7 active torsions:
REMARK  status: ('A' for Active; 'I' for Inactive)
REMARK    1  A    between atoms: C_2  and  C_3 
REMARK    2  A    between atoms: C_3  and  O_6 
REMARK    3  A    between atoms: C_3  and  C_4 
REMARK    4  A    between atoms: C_7  and  O_6 
REMARK    5  A    between atoms: C_9  and  C_10 
REMARK    6  A    between atoms: N_15  and  C_14 
REMARK    7  A    between atoms: N_20  and  C_19 
REMARK       I    between atoms: C_22  and  N_20 
ROOT
ATOM      1  C   LIG d   1      -4.553  91.133 119.232  0.00  0.00     0.161 C 
ATOM      2  C   LIG d   1      -5.523  90.854 118.255  0.00  0.00     0.016 C 
ATOM      3  C   LIG d   1      -5.230  90.214 117.029  0.00  0.00     0.038 C 
ATOM      4  C   LIG d   1      -3.965  89.670 116.759  0.00  0.00     0.028 C 
ATOM      5  C   LIG d   1      -2.833  90.373 117.502  0.00  0.00    -0.047 C 
ATOM      6  C   LIG d   1      -3.189  90.448 119.004  0.00  0.00     0.091 C 
ENDROOT
BRANCH   1   7
ATOM      7  O   LIG d   1      -5.067  90.804 120.538  0.00  0.00    -0.368 OA
BRANCH   7   8
ATOM      8  C   LIG d   1      -5.380  91.925 121.401  0.00  0.00     0.119 C 
BRANCH   8   9
ATOM      9  C   LIG d   1      -6.879  92.238 121.227  0.00  0.00     0.028 C 
ATOM     10  C   LIG d   1      -7.119  93.566 120.490  0.00  0.00     0.006 C 
ENDBRANCH   8   9
BRANCH   8  11
ATOM     11  C   LIG d   1      -4.646  93.193 120.955  0.00  0.00     0.028 C 
ATOM     12  C   LIG d   1      -3.534  93.611 121.930  0.00  0.00     0.006 C 
ENDBRANCH   8  11
ENDBRANCH   7   8
ENDBRANCH   1   7
BRANCH   6  13
ATOM     13  N   LIG d   1      -2.173  91.195 119.790  0.00  0.00    -0.311 N 
ATOM     14  C   LIG d   1      -1.163  90.608 120.429  0.00  0.00     0.210 C 
ATOM     15  C   LIG d   1      -0.242  91.561 121.197  0.00  0.00     0.109 C 
ATOM     16  O   LIG d   1      -0.923  89.391 120.406  0.00  0.00    -0.276 OA
ATOM     17  H   LIG d   1      -2.274  92.191 119.836  0.00  0.00     0.149 HD
ENDBRANCH   6  13
BRANCH   5  18
ATOM     18  N   LIG d   1      -1.592  89.620 117.238  0.00  0.00     0.381 N 
ATOM     19  H   LIG d   1      -0.979  90.167 116.667  0.00  0.00    -0.090 HD
ATOM     20  H   LIG d   1      -1.822  88.779 116.739  0.00  0.00    -0.090 HD
ATOM     21  H   LIG d   1      -1.143  89.393 118.098  0.00  0.00    -0.090 HD
ENDBRANCH   5  18
BRANCH   3  22
ATOM     22  C   LIG d   1      -6.199  90.148 116.039  0.00  0.00     0.382 C 
ATOM     23  O   LIG d   1      -7.111  89.289 116.111  0.00  0.00    -0.241 OA
ATOM     24  O   LIG d   1      -6.148  90.908 115.053  0.00  0.00    -0.241 OA
ENDBRANCH   3  22
TORSDOF 7
ENDMDL
MODEL 2
REMARK VINA RESULT:      -5.0      2.930      6.681
REMARK  7 active torsions:
REMARK  status: ('A' for Active; 'I' for Inactive)
REMARK    1  A    between atoms: C_2  and  C_3 
REMARK    2  A    between atoms: C_3  and  O_6 
REMARK    3  A    between atoms: C_3  and  C_4 
REMARK    4  A    between atoms: C_7  and  O_6 
REMARK    5  A    between atoms: C_9  and  C_10 
REMARK    6  A    between atoms: N_15  and  C_14 
REMARK    7  A    between atoms: N_20  and  C_19 
REMARK       I    between atoms: C_22  and  N_20 
ROOT
ATOM      1  C   LIG d   1      -0.885  91.361 118.003  0.00  0.00     0.161 C 
ATOM      2  C   LIG d   1       0.039  92.103 118.757  0.00  0.00     0.016 C 
ATOM      3  C   LIG d   1      -0.328  92.923 119.849  0.00  0.00     0.038 C 
ATOM      4  C   LIG d   1      -1.635  92.938 120.358  0.00  0.00     0.028 C 
ATOM      5  C   LIG d   1      -2.695  92.596 119.316  0.00  0.00    -0.047 C 
ATOM      6  C   LIG d   1      -2.300  91.278 118.612  0.00  0.00     0.091 C 
ENDROOT
BRANCH   1   7
ATOM      7  O   LIG d   1      -0.366  90.038 117.759  0.00  0.00    -0.368 OA
BRANCH   7   8
ATOM      8  C   LIG d   1       0.579  89.534 118.734  0.00  0.00     0.119 C 
BRANCH   8   9
ATOM      9  C   LIG d   1       1.659  88.746 117.968  0.00  0.00     0.028 C 
ATOM     10  C   LIG d   1       2.364  89.600 116.902  0.00  0.00     0.006 C 
ENDBRANCH   8   9
BRANCH   8  11
ATOM     11  C   LIG d   1      -0.077  88.517 119.672  0.00  0.00     0.028 C 
ATOM     12  C   LIG d   1      -0.357  89.090 121.071  0.00  0.00     0.006 C 
ENDBRANCH   8  11
ENDBRANCH   7   8
ENDBRANCH   1   7
BRANCH   6  13
ATOM     13  N   LIG d   1      -3.240  90.915 117.520  0.00  0.00    -0.311 N 
ATOM     14  C   LIG d   1      -4.298  90.125 117.696  0.00  0.00     0.210 C 
ATOM     15  C   LIG d   1      -5.125  89.862 116.433  0.00  0.00     0.109 C 
ATOM     16  O   LIG d   1      -4.649  89.644 118.784  0.00  0.00    -0.276 OA
ATOM     17  H   LIG d   1      -3.048  91.287 116.611  0.00  0.00     0.149 HD
ENDBRANCH   6  13
BRANCH   5  18
ATOM     18  N   LIG d   1      -3.993  92.514 120.012  0.00  0.00     0.381 N 
ATOM     19  H   LIG d   1      -3.869  92.711 120.985  0.00  0.00    -0.090 HD
ATOM     20  H   LIG d   1      -4.351  91.579 119.922  0.00  0.00    -0.090 HD
ATOM     21  H   LIG d   1      -4.636  93.163 119.613  0.00  0.00    -0.090 HD
ENDBRANCH   5  18
BRANCH   3  22
ATOM     22  C   LIG d   1       0.611  93.770 120.418  0.00  0.00     0.382 C 
ATOM     23  O   LIG d   1       0.289  94.941 120.733  0.00  0.00    -0.241 OA
ATOM     24  O   LIG d   1       1.786  93.392 120.580  0.00  0.00    -0.241 OA
ENDBRANCH   3  22
TORSDOF 7
ENDMDL
MODEL 3
REMARK VINA RESULT:      -4.9      4.385      6.901
REMARK  7 active torsions:
REMARK  status: ('A' for Active; 'I' for Inactive)
REMARK    1  A    between atoms: C_2  and  C_3 
REMARK    2  A    between atoms: C_3  and  O_6 
REMARK    3  A    between atoms: C_3  and  C_4 
REMARK    4  A    between atoms: C_7  and  O_6 
REMARK    5  A    between atoms: C_9  and  C_10 
REMARK    6  A    between atoms: N_15  and  C_14 
REMARK    7  A    between atoms: N_20  and  C_19 
REMARK       I    between atoms: C_22  and  N_20 
ROOT
ATOM      1  C   LIG d   1       0.652  89.950 117.680  0.00  0.00     0.161 C 
ATOM      2  C   LIG d   1      -0.687  89.543 117.566  0.00  0.00     0.016 C 
ATOM      3  C   LIG d   1      -1.772  90.276 118.100  0.00  0.00     0.038 C 
ATOM      4  C   LIG d   1      -1.601  91.552 118.658  0.00  0.00     0.028 C 
ATOM      5  C   LIG d   1      -0.212  91.775 119.246  0.00  0.00    -0.047 C 
ATOM      6  C   LIG d   1       0.848  91.394 118.188  0.00  0.00     0.091 C 
ENDROOT
BRANCH   1   7
ATOM      7  O   LIG d   1       1.328  89.765 116.420  0.00  0.00    -0.368 OA
BRANCH   7   8
ATOM      8  C   LIG d   1       2.255  88.654 116.351  0.00  0.00     0.119 C 
BRANCH   8   9
ATOM      9  C   LIG d   1       2.475  88.144 117.789  0.00  0.00     0.028 C 
ATOM     10  C   LIG d   1       3.937  88.281 118.243  0.00  0.00     0.006 C 
ENDBRANCH   8   9
BRANCH   8  11
ATOM     11  C   LIG d   1       3.635  89.110 115.868  0.00  0.00     0.028 C 
ATOM     12  C   LIG d   1       3.581  89.847 114.520  0.00  0.00     0.006 C 
ENDBRANCH   8  11
ENDBRANCH   7   8
ENDBRANCH   1   7
BRANCH   6  13
ATOM     13  N   LIG d   1       2.235  91.503 118.710  0.00  0.00    -0.311 N 
ATOM     14  C   LIG d   1       3.233  92.064 118.029  0.00  0.00     0.210 C 
ATOM     15  C   LIG d   1       4.589  92.054 118.743  0.00  0.00     0.109 C 
ATOM     16  O   LIG d   1       3.117  92.598 116.916  0.00  0.00    -0.276 OA
ATOM     17  H   LIG d   1       2.411  91.123 119.619  0.00  0.00     0.149 HD
ENDBRANCH   6  13
BRANCH   5  18
ATOM     18  N   LIG d   1      -0.128  93.186 119.667  0.00  0.00     0.381 N 
ATOM     19  H   LIG d   1      -0.944  93.433 120.190  0.00  0.00    -0.090 HD
ATOM     20  H   LIG d   1      -0.089  93.768 118.849  0.00  0.00    -0.090 HD
ATOM     21  H   LIG d   1       0.687  93.328 120.223  0.00  0.00    -0.090 HD
ENDBRANCH   5  18
BRANCH   3  22
ATOM     22  C   LIG d   1      -3.040  89.715 118.116  0.00  0.00     0.382 C 
ATOM     23  O   LIG d   1      -3.304  88.783 118.914  0.00  0.00    -0.241 OA
ATOM     24  O   LIG d   1      -3.910  90.097 117.311  0.00  0.00    -0.241 OA
ENDBRANCH   3  22
TORSDOF 7
ENDMDL
MODEL 4
REMARK VINA RESULT:      -4.7      3.515      6.060
REMARK  7 active torsions:
REMARK  status: ('A' for Active; 'I' for Inactive)
REMARK    1  A    between atoms: C_2  and  C_3 
REMARK    2  A    between atoms: C_3  and  O_6 
REMARK    3  A    between atoms: C_3  and  C_4 
REMARK    4  A    between atoms: C_7  and  O_6 
REMARK    5  A    between atoms: C_9  and  C_10 
REMARK    6  A    between atoms: N_15  and  C_14 
REMARK    7  A    between atoms: N_20  and  C_19 
REMARK       I    between atoms: C_22  and  N_20 
ROOT
ATOM      1  C   LIG d   1      -0.248  90.664 118.373  0.00  0.00     0.161 C 
ATOM      2  C   LIG d   1      -1.386  90.082 117.791  0.00  0.00     0.016 C 
ATOM      3  C   LIG d   1      -2.704  90.523 118.051  0.00  0.00     0.038 C 
ATOM      4  C   LIG d   1      -2.965  91.681 118.799  0.00  0.00     0.028 C 
ATOM      5  C   LIG d   1      -1.877  92.002 119.818  0.00  0.00    -0.047 C 
ATOM      6  C   LIG d   1      -0.505  91.998 119.105  0.00  0.00     0.091 C 
ENDROOT
BRANCH   1   7
ATOM      7  O   LIG d   1       0.780  90.829 117.377  0.00  0.00    -0.368 OA
BRANCH   7   8
ATOM      8  C   LIG d   1       2.016  90.111 117.611  0.00  0.00     0.119 C 
BRANCH   8   9
ATOM      9  C   LIG d   1       3.145  90.890 116.908  0.00  0.00     0.028 C 
ATOM     10  C   LIG d   1       3.390  92.269 117.543  0.00  0.00     0.006 C 
ENDBRANCH   8   9
BRANCH   8  11
ATOM     11  C   LIG d   1       1.996  88.734 116.942  0.00  0.00     0.028 C 
ATOM     12  C   LIG d   1       3.086  88.576 115.869  0.00  0.00     0.006 C 
ENDBRANCH   8  11
ENDBRANCH   7   8
ENDBRANCH   1   7
BRANCH   6  13
ATOM     13  N   LIG d   1       0.624  92.221 120.046  0.00  0.00    -0.311 N 
ATOM     14  C   LIG d   1       1.031  93.429 120.429  0.00  0.00     0.210 C 
ATOM     15  C   LIG d   1       2.225  93.435 121.389  0.00  0.00     0.109 C 
ATOM     16  O   LIG d   1       0.497  94.496 120.090  0.00  0.00    -0.276 OA
ATOM     17  H   LIG d   1       1.094  91.408 120.394  0.00  0.00     0.149 HD
ENDBRANCH   6  13
BRANCH   5  18
ATOM     18  N   LIG d   1      -2.207  93.303 120.428  0.00  0.00     0.381 N 
ATOM     19  H   LIG d   1      -1.768  94.040 119.914  0.00  0.00    -0.090 HD
ATOM     20  H   LIG d   1      -1.854  93.321 121.369  0.00  0.00    -0.090 HD
ATOM     21  H   LIG d   1      -3.195  93.436 120.435  0.00  0.00    -0.090 HD
ENDBRANCH   5  18
BRANCH   3  22
ATOM     22  C   LIG d   1      -3.781  89.779 117.593  0.00  0.00     0.382 C 
ATOM     23  O   LIG d   1      -3.780  89.331 116.421  0.00  0.00    -0.241 OA
ATOM     24  O   LIG d   1      -4.772  89.586 118.322  0.00  0.00    -0.241 OA
ENDBRANCH   3  22
TORSDOF 7
ENDMDL
MODEL 5
REMARK VINA RESULT:      -4.6      3.796      6.313
REMARK  7 active torsions:
REMARK  status: ('A' for Active; 'I' for Inactive)
REMARK    1  A    between atoms: C_2  and  C_3 
REMARK    2  A    between atoms: C_3  and  O_6 
REMARK    3  A    between atoms: C_3  and  C_4 
REMARK    4  A    between atoms: C_7  and  O_6 
REMARK    5  A    between atoms: C_9  and  C_10 
REMARK    6  A    between atoms: N_15  and  C_14 
REMARK    7  A    between atoms: N_20  and  C_19 
REMARK       I    between atoms: C_22  and  N_20 
ROOT
ATOM      1  C   LIG d   1       0.385  90.075 119.215  0.00  0.00     0.161 C 
ATOM      2  C   LIG d   1      -0.181  91.165 119.897  0.00  0.00     0.016 C 
ATOM      3  C   LIG d   1       0.213  92.506 119.683  0.00  0.00     0.038 C 
ATOM      4  C   LIG d   1       1.100  92.864 118.656  0.00  0.00     0.028 C 
ATOM      5  C   LIG d   1       2.074  91.751 118.282  0.00  0.00    -0.047 C 
ATOM      6  C   LIG d   1       1.275  90.455 118.013  0.00  0.00     0.091 C 
ENDROOT
BRANCH   1   7
ATOM      7  O   LIG d   1      -0.653  89.165 118.802  0.00  0.00    -0.368 OA
BRANCH   7   8
ATOM      8  C   LIG d   1      -2.011  89.660 118.901  0.00  0.00     0.119 C 
BRANCH   8   9
ATOM      9  C   LIG d   1      -2.815  88.642 119.732  0.00  0.00     0.028 C 
ATOM     10  C   LIG d   1      -1.943  87.484 120.246  0.00  0.00     0.006 C 
ENDBRANCH   8   9
BRANCH   8  11
ATOM     11  C   LIG d   1      -2.694  89.693 117.530  0.00  0.00     0.028 C 
ATOM     12  C   LIG d   1      -4.039  90.435 117.553  0.00  0.00     0.006 C 
ENDBRANCH   8  11
ENDBRANCH   7   8
ENDBRANCH   1   7
BRANCH   6  13
ATOM     13  N   LIG d   1       2.158  89.296 117.722  0.00  0.00    -0.311 N 
ATOM     14  C   LIG d   1       2.579  88.984 116.498  0.00  0.00     0.210 C 
ATOM     15  C   LIG d   1       3.466  87.737 116.417  0.00  0.00     0.109 C 
ATOM     16  O   LIG d   1       2.330  89.640 115.476  0.00  0.00    -0.276 OA
ATOM     17  H   LIG d   1       2.434  88.727 118.499  0.00  0.00     0.149 HD
ENDBRANCH   6  13
BRANCH   5  18
ATOM     18  N   LIG d   1       2.845  92.209 117.111  0.00  0.00     0.381 N 
ATOM     19  H   LIG d   1       3.744  91.770 117.105  0.00  0.00    -0.090 HD
ATOM     20  H   LIG d   1       2.980  93.202 117.179  0.00  0.00    -0.090 HD
ATOM     21  H   LIG d   1       2.354  91.990 116.273  0.00  0.00    -0.090 HD
ENDBRANCH   5  18
BRANCH   3  22
ATOM     22  C   LIG d   1      -0.252  93.502 120.528  0.00  0.00     0.382 C 
ATOM     23  O   LIG d   1       0.266  94.645 120.495  0.00  0.00    -0.241 OA
ATOM     24  O   LIG d   1      -1.153  93.261 121.353  0.00  0.00    -0.241 OA
ENDBRANCH   3  22
TORSDOF 7
ENDMDL
MODEL 6
REMARK VINA RESULT:      -4.3      2.425      4.970
REMARK  7 active torsions:
REMARK  status: ('A' for Active; 'I' for Inactive)
REMARK    1  A    between atoms: C_2  and  C_3 
REMARK    2  A    between atoms: C_3  and  O_6 
REMARK    3  A    between atoms: C_3  and  C_4 
REMARK    4  A    between atoms: C_7  and  O_6 
REMARK    5  A    between atoms: C_9  and  C_10 
REMARK    6  A    between atoms: N_15  and  C_14 
REMARK    7  A    between atoms: N_20  and  C_19 
REMARK       I    between atoms: C_22  and  N_20 
ROOT
ATOM      1  C   LIG d   1      -3.209  91.704 120.168  0.00  0.00     0.161 C 
ATOM      2  C   LIG d   1      -4.602  91.889 120.164  0.00  0.00     0.016 C 
ATOM      3  C   LIG d   1      -5.233  93.061 120.639  0.00  0.00     0.038 C 
ATOM      4  C   LIG d   1      -4.500  94.198 121.013  0.00  0.00     0.028 C 
ATOM      5  C   LIG d   1      -3.094  93.876 121.509  0.00  0.00    -0.047 C 
ATOM      6  C   LIG d   1      -2.389  92.976 120.469  0.00  0.00     0.091 C 
ENDROOT
BRANCH   1   7
ATOM      7  O   LIG d   1      -2.790  91.122 118.918  0.00  0.00    -0.368 OA
BRANCH   7   8
ATOM      8  C   LIG d   1      -3.289  89.792 118.635  0.00  0.00     0.119 C 
BRANCH   8   9
ATOM      9  C   LIG d   1      -2.206  88.787 119.074  0.00  0.00     0.028 C 
ATOM     10  C   LIG d   1      -2.649  87.934 120.274  0.00  0.00     0.006 C 
ENDBRANCH   8   9
BRANCH   8  11
ATOM     11  C   LIG d   1      -3.462  89.570 117.130  0.00  0.00     0.028 C 
ATOM     12  C   LIG d   1      -4.850  89.991 116.621  0.00  0.00     0.006 C 
ENDBRANCH   8  11
ENDBRANCH   7   8
ENDBRANCH   1   7
BRANCH   6  13
ATOM     13  N   LIG d   1      -1.038  92.546 120.915  0.00  0.00    -0.311 N 
ATOM     14  C   LIG d   1       0.073  93.233 120.657  0.00  0.00     0.210 C 
ATOM     15  C   LIG d   1       1.362  92.602 121.191  0.00  0.00     0.109 C 
ATOM     16  O   LIG d   1       0.109  94.322 120.064  0.00  0.00    -0.276 OA
ATOM     17  H   LIG d   1      -0.980  91.689 121.430  0.00  0.00     0.149 HD
ENDBRANCH   6  13
BRANCH   5  18
ATOM     18  N   LIG d   1      -2.397  95.157 121.733  0.00  0.00     0.381 N 
ATOM     19  H   LIG d   1      -1.769  95.069 122.507  0.00  0.00    -0.090 HD
ATOM     20  H   LIG d   1      -3.077  95.862 121.957  0.00  0.00    -0.090 HD
ATOM     21  H   LIG d   1      -1.893  95.418 120.915  0.00  0.00    -0.090 HD
ENDBRANCH   5  18
BRANCH   3  22
ATOM     22  C   LIG d   1      -6.612  93.090 120.781  0.00  0.00     0.382 C 
ATOM     23  O   LIG d   1      -7.308  92.150 120.329  0.00  0.00    -0.241 OA
ATOM     24  O   LIG d   1      -7.171  94.066 121.316  0.00  0.00    -0.241 OA
ENDBRANCH   3  22
TORSDOF 7
ENDMDL
MODEL 7
REMARK VINA RESULT:      -4.3      2.791      6.342
REMARK  7 active torsions:
REMARK  status: ('A' for Active; 'I' for Inactive)
REMARK    1  A    between atoms: C_2  and  C_3 
REMARK    2  A    between atoms: C_3  and  O_6 
REMARK    3  A    between atoms: C_3  and  C_4 
REMARK    4  A    between atoms: C_7  and  O_6 
REMARK    5  A    between atoms: C_9  and  C_10 
REMARK    6  A    between atoms: N_15  and  C_14 
REMARK    7  A    between atoms: N_20  and  C_19 
REMARK       I    between atoms: C_22  and  N_20 
ROOT
ATOM      1  C   LIG d   1      -2.959  91.928 120.112  0.00  0.00     0.161 C 
ATOM      2  C   LIG d   1      -1.643  92.293 120.440  0.00  0.00     0.016 C 
ATOM      3  C   LIG d   1      -1.294  93.560 120.963  0.00  0.00     0.038 C 
ATOM      4  C   LIG d   1      -2.266  94.501 121.337  0.00  0.00     0.028 C 
ATOM      5  C   LIG d   1      -3.568  94.370 120.555  0.00  0.00    -0.047 C 
ATOM      6  C   LIG d   1      -4.046  92.901 120.617  0.00  0.00     0.091 C 
ENDROOT
BRANCH   1   7
ATOM      7  O   LIG d   1      -3.227  90.592 120.580  0.00  0.00    -0.368 OA
BRANCH   7   8
ATOM      8  C   LIG d   1      -3.548  89.612 119.562  0.00  0.00     0.119 C 
BRANCH   8   9
ATOM      9  C   LIG d   1      -2.643  88.387 119.797  0.00  0.00     0.028 C 
ATOM     10  C   LIG d   1      -1.167  88.680 119.481  0.00  0.00     0.006 C 
ENDBRANCH   8   9
BRANCH   8  11
ATOM     11  C   LIG d   1      -3.187  90.122 118.164  0.00  0.00     0.028 C 
ATOM     12  C   LIG d   1      -4.375  90.085 117.190  0.00  0.00     0.006 C 
ENDBRANCH   8  11
ENDBRANCH   7   8
ENDBRANCH   1   7
BRANCH   6  13
ATOM     13  N   LIG d   1      -5.270  92.668 119.807  0.00  0.00    -0.311 N 
ATOM     14  C   LIG d   1      -6.503  92.754 120.301  0.00  0.00     0.210 C 
ATOM     15  C   LIG d   1      -7.624  92.457 119.300  0.00  0.00     0.109 C 
ATOM     16  O   LIG d   1      -6.777  93.080 121.466  0.00  0.00    -0.276 OA
ATOM     17  H   LIG d   1      -5.140  92.429 118.843  0.00  0.00     0.149 HD
ENDBRANCH   6  13
BRANCH   5  18
ATOM     18  N   LIG d   1      -4.536  95.318 121.140  0.00  0.00     0.381 N 
ATOM     19  H   LIG d   1      -4.049  96.095 121.540  0.00  0.00    -0.090 HD
ATOM     20  H   LIG d   1      -5.044  94.853 121.872  0.00  0.00    -0.090 HD
ATOM     21  H   LIG d   1      -5.167  95.637 120.438  0.00  0.00    -0.090 HD
ENDBRANCH   5  18
BRANCH   3  22
ATOM     22  C   LIG d   1       0.042  93.911 121.079  0.00  0.00     0.382 C 
ATOM     23  O   LIG d   1       0.875  93.076 121.507  0.00  0.00    -0.241 OA
ATOM     24  O   LIG d   1       0.418  95.066 120.804  0.00  0.00    -0.241 OA
ENDBRANCH   3  22
TORSDOF 7
ENDMDL
MODEL 8
REMARK VINA RESULT:      -4.2      4.496      6.700
REMARK  7 active torsions:
REMARK  status: ('A' for Active; 'I' for Inactive)
REMARK    1  A    between atoms: C_2  and  C_3 
REMARK    2  A    between atoms: C_3  and  O_6 
REMARK    3  A    between atoms: C_3  and  C_4 
REMARK    4  A    between atoms: C_7  and  O_6 
REMARK    5  A    between atoms: C_9  and  C_10 
REMARK    6  A    between atoms: N_15  and  C_14 
REMARK    7  A    between atoms: N_20  and  C_19 
REMARK       I    between atoms: C_22  and  N_20 
ROOT
ATOM      1  C   LIG d   1       1.208  90.511 118.004  0.00  0.00     0.161 C 
ATOM      2  C   LIG d   1       1.743  89.642 117.039  0.00  0.00     0.016 C 
ATOM      3  C   LIG d   1       2.982  89.863 116.394  0.00  0.00     0.038 C 
ATOM      4  C   LIG d   1       3.847  90.896 116.784  0.00  0.00     0.028 C 
ATOM      5  C   LIG d   1       3.125  92.089 117.402  0.00  0.00    -0.047 C 
ATOM      6  C   LIG d   1       2.189  91.584 118.523  0.00  0.00     0.091 C 
ENDROOT
BRANCH   1   7
ATOM      7  O   LIG d   1       0.672  89.748 119.104  0.00  0.00    -0.368 OA
BRANCH   7   8
ATOM      8  C   LIG d   1      -0.743  89.914 119.364  0.00  0.00     0.119 C 
BRANCH   8   9
ATOM      9  C   LIG d   1      -1.361  88.506 119.472  0.00  0.00     0.028 C 
ATOM     10  C   LIG d   1      -2.806  88.539 120.000  0.00  0.00     0.006 C 
ENDBRANCH   8   9
BRANCH   8  11
ATOM     11  C   LIG d   1      -1.453  90.578 118.181  0.00  0.00     0.028 C 
ATOM     12  C   LIG d   1      -2.164  91.884 118.570  0.00  0.00     0.006 C 
ENDBRANCH   8  11
ENDBRANCH   7   8
ENDBRANCH   1   7
BRANCH   6  13
ATOM     13  N   LIG d   1       1.382  92.677 119.124  0.00  0.00    -0.311 N 
ATOM     14  C   LIG d   1       1.355  92.936 120.430  0.00  0.00     0.210 C 
ATOM     15  C   LIG d   1       0.442  94.095 120.841  0.00  0.00     0.109 C 
ATOM     16  O   LIG d   1       2.026  92.337 121.284  0.00  0.00    -0.276 OA
ATOM     17  H   LIG d   1       0.831  93.234 118.500  0.00  0.00     0.149 HD
ENDBRANCH   6  13
BRANCH   5  18
ATOM     18  N   LIG d   1       4.153  93.029 117.888  0.00  0.00     0.381 N 
ATOM     19  H   LIG d   1       4.084  93.123 118.882  0.00  0.00    -0.090 HD
ATOM     20  H   LIG d   1       3.991  93.930 117.474  0.00  0.00    -0.090 HD
ATOM     21  H   LIG d   1       5.061  92.700 117.640  0.00  0.00    -0.090 HD
ENDBRANCH   5  18
BRANCH   3  22
ATOM     22  C   LIG d   1       3.349  89.068 115.319  0.00  0.00     0.382 C 
ATOM     23  O   LIG d   1       4.365  89.359 114.642  0.00  0.00    -0.241 OA
ATOM     24  O   LIG d   1       2.652  88.090 114.990  0.00  0.00    -0.241 OA
ENDBRANCH   3  22
TORSDOF 7
ENDMDL
MODEL 9
REMARK VINA RESULT:      -4.2      5.557      9.477
REMARK  7 active torsions:
REMARK  status: ('A' for Active; 'I' for Inactive)
REMARK    1  A    between atoms: C_2  and  C_3 
REMARK    2  A    between atoms: C_3  and  O_6 
REMARK    3  A    between atoms: C_3  and  C_4 
REMARK    4  A    between atoms: C_7  and  O_6 
REMARK    5  A    between atoms: C_9  and  C_10 
REMARK    6  A    between atoms: N_15  and  C_14 
REMARK    7  A    between atoms: N_20  and  C_19 
REMARK       I    between atoms: C_22  and  N_20 
ROOT
ATOM      1  C   LIG d   1       2.773  92.060 117.307  0.00  0.00     0.161 C 
ATOM      2  C   LIG d   1       3.890  92.767 117.783  0.00  0.00     0.016 C 
ATOM      3  C   LIG d   1       4.167  92.951 119.157  0.00  0.00     0.038 C 
ATOM      4  C   LIG d   1       3.422  92.306 120.156  0.00  0.00     0.028 C 
ATOM      5  C   LIG d   1       1.989  91.996 119.738  0.00  0.00    -0.047 C 
ATOM      6  C   LIG d   1       2.011  91.256 118.381  0.00  0.00     0.091 C 
ENDROOT
BRANCH   1   7
ATOM      7  O   LIG d   1       3.168  91.198 116.221  0.00  0.00    -0.368 OA
BRANCH   7   8
ATOM      8  C   LIG d   1       3.760  89.930 116.597  0.00  0.00     0.119 C 
BRANCH   8   9
ATOM      9  C   LIG d   1       5.152  89.857 115.940  0.00  0.00     0.028 C 
ATOM     10  C   LIG d   1       6.292  89.972 116.966  0.00  0.00     0.006 C 
ENDBRANCH   8   9
BRANCH   8  11
ATOM     11  C   LIG d   1       2.974  88.753 116.013  0.00  0.00     0.028 C 
ATOM     12  C   LIG d   1       3.712  88.057 114.859  0.00  0.00     0.006 C 
ENDBRANCH   8  11
ENDBRANCH   7   8
ENDBRANCH   1   7
BRANCH   6  13
ATOM     13  N   LIG d   1       0.646  90.990 117.858  0.00  0.00    -0.311 N 
ATOM     14  C   LIG d   1      -0.004  89.844 118.055  0.00  0.00     0.210 C 
ATOM     15  C   LIG d   1      -1.393  89.769 117.413  0.00  0.00     0.109 C 
ATOM     16  O   LIG d   1       0.425  88.894 118.727  0.00  0.00    -0.276 OA
ATOM     17  H   LIG d   1       0.210  91.719 117.327  0.00  0.00     0.149 HD
ENDBRANCH   6  13
BRANCH   5  18
ATOM     18  N   LIG d   1       1.370  91.204 120.818  0.00  0.00     0.381 N 
ATOM     19  H   LIG d   1       1.841  91.385 121.682  0.00  0.00    -0.090 HD
ATOM     20  H   LIG d   1       1.470  90.228 120.603  0.00  0.00    -0.090 HD
ATOM     21  H   LIG d   1       0.405  91.437 120.902  0.00  0.00    -0.090 HD
ENDBRANCH   5  18
BRANCH   3  22
ATOM     22  C   LIG d   1       5.176  93.819 119.545  0.00  0.00     0.382 C 
ATOM     23  O   LIG d   1       6.362  93.593 119.206  0.00  0.00    -0.241 OA
ATOM     24  O   LIG d   1       4.920  94.802 120.267  0.00  0.00    -0.241 OA
ENDBRANCH   3  22
TORSDOF 7
ENDMDL
