MODEL 1
REMARK VINA RESULT:      -5.2      0.000      0.000
REMARK  7 active torsions:
REMARK  status: ('A' for Active; 'I' for Inactive)
REMARK    1  A    between atoms: C_2  and  C_3 
REMARK    2  A    between atoms: C_3  and  O_6 
REMARK    3  A    between atoms: C_3  and  C_4 
REMARK    4  A    between atoms: C_7  and  O_6 
REMARK    5  A    between atoms: C_9  and  C_10 
REMARK    6  A    between atoms: N_15  and  C_14 
REMARK    7  A    between atoms: N_20  and  C_19 
REMARK       I    between atoms: C_22  and  N_20 
ROOT
ATOM      1  C   LIG d   1      -5.844  92.958 117.183  0.00  0.00     0.161 C 
ATOM      2  C   LIG d   1      -6.996  92.328 116.682  0.00  0.00     0.016 C 
ATOM      3  C   LIG d   1      -6.980  91.058 116.060  0.00  0.00     0.038 C 
ATOM      4  C   LIG d   1      -5.826  90.261 116.031  0.00  0.00     0.028 C 
ATOM      5  C   LIG d   1      -4.532  91.066 116.074  0.00  0.00    -0.047 C 
ATOM      6  C   LIG d   1      -4.595  92.055 117.261  0.00  0.00     0.091 C 
ENDROOT
BRANCH   1   7
ATOM      7  O   LIG d   1      -6.125  93.536 118.473  0.00  0.00    -0.368 OA
BRANCH   7   8
ATOM      8  C   LIG d   1      -6.080  94.982 118.547  0.00  0.00     0.119 C 
BRANCH   8   9
ATOM      9  C   LIG d   1      -5.153  95.357 119.720  0.00  0.00     0.028 C 
ATOM     10  C   LIG d   1      -3.897  96.113 119.256  0.00  0.00     0.006 C 
ENDBRANCH   8   9
BRANCH   8  11
ATOM     11  C   LIG d   1      -7.450  95.564 118.911  0.00  0.00     0.028 C 
ATOM     12  C   LIG d   1      -8.199  96.129 117.694  0.00  0.00     0.006 C 
ENDBRANCH   8  11
ENDBRANCH   7   8
ENDBRANCH   1   7
BRANCH   6  13
ATOM     13  N   LIG d   1      -3.403  92.941 117.325  0.00  0.00    -0.311 N 
ATOM     14  C   LIG d   1      -2.347  92.694 118.098  0.00  0.00     0.210 C 
ATOM     15  C   LIG d   1      -1.235  93.746 118.029  0.00  0.00     0.109 C 
ATOM     16  O   LIG d   1      -2.212  91.688 118.810  0.00  0.00    -0.276 OA
ATOM     17  H   LIG d   1      -3.416  93.764 116.755  0.00  0.00     0.149 HD
ENDBRANCH   6  13
BRANCH   5  18
ATOM     18  N   LIG d   1      -3.414  90.109 116.178  0.00  0.00     0.381 N 
ATOM     19  H   LIG d   1      -3.675  89.347 116.770  0.00  0.00    -0.090 HD
ATOM     20  H   LIG d   1      -2.625  90.574 116.591  0.00  0.00    -0.090 HD
ATOM     21  H   LIG d   1      -3.172  89.769 115.273  0.00  0.00    -0.090 HD
ENDBRANCH   5  18
BRANCH   3  22
ATOM     22  C   LIG d   1      -8.119  90.592 115.422  0.00  0.00     0.382 C 
ATOM     23  O   LIG d   1      -8.709  91.315 114.583  0.00  0.00    -0.241 OA
ATOM     24  O   LIG d   1      -8.590  89.474 115.707  0.00  0.00    -0.241 OA
ENDBRANCH   3  22
TORSDOF 7
ENDMDL
MODEL 2
REMARK VINA RESULT:      -5.0      2.330      4.484
REMARK  7 active torsions:
REMARK  status: ('A' for Active; 'I' for Inactive)
REMARK    1  A    between atoms: C_2  and  C_3 
REMARK    2  A    between atoms: C_3  and  O_6 
REMARK    3  A    between atoms: C_3  and  C_4 
REMARK    4  A    between atoms: C_7  and  O_6 
REMARK    5  A    between atoms: C_9  and  C_10 
REMARK    6  A    between atoms: N_15  and  C_14 
REMARK    7  A    between atoms: N_20  and  C_19 
REMARK       I    between atoms: C_22  and  N_20 
ROOT
ATOM      1  C   LIG d   1      -4.099  91.859 118.031  0.00  0.00     0.161 C 
ATOM      2  C   LIG d   1      -4.366  90.979 116.969  0.00  0.00     0.016 C 
ATOM      3  C   LIG d   1      -5.428  91.163 116.054  0.00  0.00     0.038 C 
ATOM      4  C   LIG d   1      -6.208  92.329 116.048  0.00  0.00     0.028 C 
ATOM      5  C   LIG d   1      -6.298  93.004 117.412  0.00  0.00    -0.047 C 
ATOM      6  C   LIG d   1      -4.870  93.194 117.973  0.00  0.00     0.091 C 
ENDROOT
BRANCH   1   7
ATOM      7  O   LIG d   1      -2.681  92.103 118.118  0.00  0.00    -0.368 OA
BRANCH   7   8
ATOM      8  C   LIG d   1      -1.939  91.232 119.007  0.00  0.00     0.119 C 
BRANCH   8   9
ATOM      9  C   LIG d   1      -1.592  92.046 120.269  0.00  0.00     0.028 C 
ATOM     10  C   LIG d   1      -2.541  91.745 121.441  0.00  0.00     0.006 C 
ENDBRANCH   8   9
BRANCH   8  11
ATOM     11  C   LIG d   1      -0.591  90.833 118.399  0.00  0.00     0.028 C 
ATOM     12  C   LIG d   1      -0.729  89.790 117.278  0.00  0.00     0.006 C 
ENDBRANCH   8  11
ENDBRANCH   7   8
ENDBRANCH   1   7
BRANCH   6  13
ATOM     13  N   LIG d   1      -4.872  93.772 119.343  0.00  0.00    -0.311 N 
ATOM     14  C   LIG d   1      -4.101  94.795 119.707  0.00  0.00     0.210 C 
ATOM     15  C   LIG d   1      -4.244  95.222 121.172  0.00  0.00     0.109 C 
ATOM     16  O   LIG d   1      -3.337  95.410 118.949  0.00  0.00    -0.276 OA
ATOM     17  H   LIG d   1      -5.485  93.353 120.014  0.00  0.00     0.149 HD
ENDBRANCH   6  13
BRANCH   5  18
ATOM     18  N   LIG d   1      -7.023  94.276 117.233  0.00  0.00     0.381 N 
ATOM     19  H   LIG d   1      -6.751  94.703 116.370  0.00  0.00    -0.090 HD
ATOM     20  H   LIG d   1      -6.779  94.898 117.984  0.00  0.00    -0.090 HD
ATOM     21  H   LIG d   1      -8.006  94.111 117.235  0.00  0.00    -0.090 HD
ENDBRANCH   5  18
BRANCH   3  22
ATOM     22  C   LIG d   1      -5.744  90.155 115.156  0.00  0.00     0.382 C 
ATOM     23  O   LIG d   1      -6.916  90.046 114.721  0.00  0.00    -0.241 OA
ATOM     24  O   LIG d   1      -4.882  89.325 114.809  0.00  0.00    -0.241 OA
ENDBRANCH   3  22
TORSDOF 7
ENDMDL
MODEL 3
REMARK VINA RESULT:      -5.0      1.705      4.820
REMARK  7 active torsions:
REMARK  status: ('A' for Active; 'I' for Inactive)
REMARK    1  A    between atoms: C_2  and  C_3 
REMARK    2  A    between atoms: C_3  and  O_6 
REMARK    3  A    between atoms: C_3  and  C_4 
REMARK    4  A    between atoms: C_7  and  O_6 
REMARK    5  A    between atoms: C_9  and  C_10 
REMARK    6  A    between atoms: N_15  and  C_14 
REMARK    7  A    between atoms: N_20  and  C_19 
REMARK       I    between atoms: C_22  and  N_20 
ROOT
ATOM      1  C   LIG d   1      -5.936  93.169 118.502  0.00  0.00     0.161 C 
ATOM      2  C   LIG d   1      -4.784  93.746 119.063  0.00  0.00     0.016 C 
ATOM      3  C   LIG d   1      -3.471  93.327 118.747  0.00  0.00     0.038 C 
ATOM      4  C   LIG d   1      -3.214  92.398 117.728  0.00  0.00     0.028 C 
ATOM      5  C   LIG d   1      -4.365  91.426 117.490  0.00  0.00    -0.047 C 
ATOM      6  C   LIG d   1      -5.672  92.231 117.306  0.00  0.00     0.091 C 
ENDROOT
BRANCH   1   7
ATOM      7  O   LIG d   1      -6.869  94.203 118.131  0.00  0.00    -0.368 OA
BRANCH   7   8
ATOM      8  C   LIG d   1      -6.808  95.425 118.907  0.00  0.00     0.119 C 
BRANCH   8   9
ATOM      9  C   LIG d   1      -7.713  95.237 120.139  0.00  0.00     0.028 C 
ATOM     10  C   LIG d   1      -7.452  96.293 121.226  0.00  0.00     0.006 C 
ENDBRANCH   8   9
BRANCH   8  11
ATOM     11  C   LIG d   1      -7.410  96.605 118.137  0.00  0.00     0.028 C 
ATOM     12  C   LIG d   1      -8.823  96.312 117.609  0.00  0.00     0.006 C 
ENDBRANCH   8  11
ENDBRANCH   7   8
ENDBRANCH   1   7
BRANCH   6  13
ATOM     13  N   LIG d   1      -6.861  91.353 117.152  0.00  0.00    -0.311 N 
ATOM     14  C   LIG d   1      -7.306  90.920 115.973  0.00  0.00     0.210 C 
ATOM     15  C   LIG d   1      -8.559  90.042 116.037  0.00  0.00     0.109 C 
ATOM     16  O   LIG d   1      -6.762  91.154 114.883  0.00  0.00    -0.276 OA
ATOM     17  H   LIG d   1      -7.345  91.089 117.988  0.00  0.00     0.149 HD
ENDBRANCH   6  13
BRANCH   5  18
ATOM     18  N   LIG d   1      -4.020  90.606 116.314  0.00  0.00     0.381 N 
ATOM     19  H   LIG d   1      -3.523  89.788 116.605  0.00  0.00    -0.090 HD
ATOM     20  H   LIG d   1      -3.422  91.140 115.709  0.00  0.00    -0.090 HD
ATOM     21  H   LIG d   1      -4.848  90.343 115.826  0.00  0.00    -0.090 HD
ENDBRANCH   5  18
BRANCH   3  22
ATOM     22  C   LIG d   1      -2.400  93.810 119.483  0.00  0.00     0.382 C 
ATOM     23  O   LIG d   1      -1.228  93.498 119.163  0.00  0.00    -0.241 OA
ATOM     24  O   LIG d   1      -2.593  94.519 120.489  0.00  0.00    -0.241 OA
ENDBRANCH   3  22
TORSDOF 7
ENDMDL
MODEL 4
REMARK VINA RESULT:      -4.9      2.315      4.355
REMARK  7 active torsions:
REMARK  status: ('A' for Active; 'I' for Inactive)
REMARK    1  A    between atoms: C_2  and  C_3 
REMARK    2  A    between atoms: C_3  and  O_6 
REMARK    3  A    between atoms: C_3  and  C_4 
REMARK    4  A    between atoms: C_7  and  O_6 
REMARK    5  A    between atoms: C_9  and  C_10 
REMARK    6  A    between atoms: N_15  and  C_14 
REMARK    7  A    between atoms: N_20  and  C_19 
REMARK       I    between atoms: C_22  and  N_20 
ROOT
ATOM      1  C   LIG d   1      -4.332  92.335 118.681  0.00  0.00     0.161 C 
ATOM      2  C   LIG d   1      -4.330  91.367 117.664  0.00  0.00     0.016 C 
ATOM      3  C   LIG d   1      -5.203  91.405 116.552  0.00  0.00     0.038 C 
ATOM      4  C   LIG d   1      -6.039  92.503 116.303  0.00  0.00     0.028 C 
ATOM      5  C   LIG d   1      -6.436  93.261 117.566  0.00  0.00    -0.047 C 
ATOM      6  C   LIG d   1      -5.160  93.599 118.369  0.00  0.00     0.091 C 
ENDROOT
BRANCH   1   7
ATOM      7  O   LIG d   1      -2.976  92.694 119.015  0.00  0.00    -0.368 OA
BRANCH   7   8
ATOM      8  C   LIG d   1      -2.223  93.375 117.981  0.00  0.00     0.119 C 
BRANCH   8   9
ATOM      9  C   LIG d   1      -0.833  92.714 117.910  0.00  0.00     0.028 C 
ATOM     10  C   LIG d   1      -0.606  91.700 119.044  0.00  0.00     0.006 C 
ENDBRANCH   8   9
BRANCH   8  11
ATOM     11  C   LIG d   1      -1.959  94.837 118.355  0.00  0.00     0.028 C 
ATOM     12  C   LIG d   1      -0.919  95.506 117.443  0.00  0.00     0.006 C 
ENDBRANCH   8  11
ENDBRANCH   7   8
ENDBRANCH   1   7
BRANCH   6  13
ATOM     13  N   LIG d   1      -5.464  94.268 119.662  0.00  0.00    -0.311 N 
ATOM     14  C   LIG d   1      -5.467  95.590 119.820  0.00  0.00     0.210 C 
ATOM     15  C   LIG d   1      -5.788  96.070 121.239  0.00  0.00     0.109 C 
ATOM     16  O   LIG d   1      -5.267  96.412 118.913  0.00  0.00    -0.276 OA
ATOM     17  H   LIG d   1      -5.669  93.677 120.443  0.00  0.00     0.149 HD
ENDBRANCH   6  13
BRANCH   5  18
ATOM     18  N   LIG d   1      -7.191  94.457 117.149  0.00  0.00     0.381 N 
ATOM     19  H   LIG d   1      -7.043  94.629 116.174  0.00  0.00    -0.090 HD
ATOM     20  H   LIG d   1      -6.853  95.251 117.663  0.00  0.00    -0.090 HD
ATOM     21  H   LIG d   1      -8.163  94.327 117.327  0.00  0.00    -0.090 HD
ENDBRANCH   5  18
BRANCH   3  22
ATOM     22  C   LIG d   1      -5.274  90.316 115.696  0.00  0.00     0.382 C 
ATOM     23  O   LIG d   1      -6.387  89.927 115.266  0.00  0.00    -0.241 OA
ATOM     24  O   LIG d   1      -4.243  89.690 115.384  0.00  0.00    -0.241 OA
ENDBRANCH   3  22
TORSDOF 7
ENDMDL
MODEL 5
REMARK VINA RESULT:      -4.8      2.668      4.544
REMARK  7 active torsions:
REMARK  status: ('A' for Active; 'I' for Inactive)
REMARK    1  A    between atoms: C_2  and  C_3 
REMARK    2  A    between atoms: C_3  and  O_6 
REMARK    3  A    between atoms: C_3  and  C_4 
REMARK    4  A    between atoms: C_7  and  O_6 
REMARK    5  A    between atoms: C_9  and  C_10 
REMARK    6  A    between atoms: N_15  and  C_14 
REMARK    7  A    between atoms: N_20  and  C_19 
REMARK       I    between atoms: C_22  and  N_20 
ROOT
ATOM      1  C   LIG d   1      -4.728  93.181 119.400  0.00  0.00     0.161 C 
ATOM      2  C   LIG d   1      -3.819  92.209 118.951  0.00  0.00     0.016 C 
ATOM      3  C   LIG d   1      -3.961  91.516 117.727  0.00  0.00     0.038 C 
ATOM      4  C   LIG d   1      -4.949  91.860 116.791  0.00  0.00     0.028 C 
ATOM      5  C   LIG d   1      -6.188  92.486 117.421  0.00  0.00    -0.047 C 
ATOM      6  C   LIG d   1      -5.750  93.648 118.342  0.00  0.00     0.091 C 
ENDROOT
BRANCH   1   7
ATOM      7  O   LIG d   1      -4.011  94.310 119.936  0.00  0.00    -0.368 OA
BRANCH   7   8
ATOM      8  C   LIG d   1      -3.491  95.254 118.968  0.00  0.00     0.119 C 
BRANCH   8   9
ATOM      9  C   LIG d   1      -1.955  95.141 118.990  0.00  0.00     0.028 C 
ATOM     10  C   LIG d   1      -1.373  94.778 117.613  0.00  0.00     0.006 C 
ENDBRANCH   8   9
BRANCH   8  11
ATOM     11  C   LIG d   1      -3.798  96.698 119.377  0.00  0.00     0.028 C 
ATOM     12  C   LIG d   1      -4.507  96.794 120.737  0.00  0.00     0.006 C 
ENDBRANCH   8  11
ENDBRANCH   7   8
ENDBRANCH   1   7
BRANCH   6  13
ATOM     13  N   LIG d   1      -6.895  94.262 119.063  0.00  0.00    -0.311 N 
ATOM     14  C   LIG d   1      -7.375  95.472 118.781  0.00  0.00     0.210 C 
ATOM     15  C   LIG d   1      -8.547  95.923 119.659  0.00  0.00     0.109 C 
ATOM     16  O   LIG d   1      -6.963  96.201 117.867  0.00  0.00    -0.276 OA
ATOM     17  H   LIG d   1      -7.310  93.726 119.800  0.00  0.00     0.149 HD
ENDBRANCH   6  13
BRANCH   5  18
ATOM     18  N   LIG d   1      -7.074  92.920 116.325  0.00  0.00     0.381 N 
ATOM     19  H   LIG d   1      -6.931  93.893 116.139  0.00  0.00    -0.090 HD
ATOM     20  H   LIG d   1      -8.029  92.790 116.608  0.00  0.00    -0.090 HD
ATOM     21  H   LIG d   1      -6.888  92.387 115.504  0.00  0.00    -0.090 HD
ENDBRANCH   5  18
BRANCH   3  22
ATOM     22  C   LIG d   1      -3.133  90.440 117.446  0.00  0.00     0.382 C 
ATOM     23  O   LIG d   1      -2.011  90.352 117.998  0.00  0.00    -0.241 OA
ATOM     24  O   LIG d   1      -3.477  89.579 116.613  0.00  0.00    -0.241 OA
ENDBRANCH   3  22
TORSDOF 7
ENDMDL
MODEL 6
REMARK VINA RESULT:      -4.7      2.499      6.021
REMARK  7 active torsions:
REMARK  status: ('A' for Active; 'I' for Inactive)
REMARK    1  A    between atoms: C_2  and  C_3 
REMARK    2  A    between atoms: C_3  and  O_6 
REMARK    3  A    between atoms: C_3  and  C_4 
REMARK    4  A    between atoms: C_7  and  O_6 
REMARK    5  A    between atoms: C_9  and  C_10 
REMARK    6  A    between atoms: N_15  and  C_14 
REMARK    7  A    between atoms: N_20  and  C_19 
REMARK       I    between atoms: C_22  and  N_20 
ROOT
ATOM      1  C   LIG d   1      -5.083  93.864 118.821  0.00  0.00     0.161 C 
ATOM      2  C   LIG d   1      -5.024  94.683 119.961  0.00  0.00     0.016 C 
ATOM      3  C   LIG d   1      -5.984  95.678 120.255  0.00  0.00     0.038 C 
ATOM      4  C   LIG d   1      -7.158  95.821 119.501  0.00  0.00     0.028 C 
ATOM      5  C   LIG d   1      -7.011  95.357 118.056  0.00  0.00    -0.047 C 
ATOM      6  C   LIG d   1      -6.416  93.930 118.046  0.00  0.00     0.091 C 
ENDROOT
BRANCH   1   7
ATOM      7  O   LIG d   1      -4.780  92.502 119.181  0.00  0.00    -0.368 OA
BRANCH   7   8
ATOM      8  C   LIG d   1      -3.511  91.985 118.710  0.00  0.00     0.119 C 
BRANCH   8   9
ATOM      9  C   LIG d   1      -2.783  93.135 117.987  0.00  0.00     0.028 C 
ATOM     10  C   LIG d   1      -1.376  93.388 118.555  0.00  0.00     0.006 C 
ENDBRANCH   8   9
BRANCH   8  11
ATOM     11  C   LIG d   1      -3.711  90.900 117.648  0.00  0.00     0.028 C 
ATOM     12  C   LIG d   1      -2.595  89.844 117.657  0.00  0.00     0.006 C 
ENDBRANCH   8  11
ENDBRANCH   7   8
ENDBRANCH   1   7
BRANCH   6  13
ATOM     13  N   LIG d   1      -6.160  93.433 116.669  0.00  0.00    -0.311 N 
ATOM     14  C   LIG d   1      -6.618  92.268 116.214  0.00  0.00     0.210 C 
ATOM     15  C   LIG d   1      -6.223  91.937 114.771  0.00  0.00     0.109 C 
ATOM     16  O   LIG d   1      -7.341  91.492 116.857  0.00  0.00    -0.276 OA
ATOM     17  H   LIG d   1      -5.608  94.014 116.069  0.00  0.00     0.149 HD
ENDBRANCH   6  13
BRANCH   5  18
ATOM     18  N   LIG d   1      -8.342  95.432 117.425  0.00  0.00     0.381 N 
ATOM     19  H   LIG d   1      -8.605  94.531 117.079  0.00  0.00    -0.090 HD
ATOM     20  H   LIG d   1      -8.298  96.068 116.648  0.00  0.00    -0.090 HD
ATOM     21  H   LIG d   1      -9.015  95.751 118.087  0.00  0.00    -0.090 HD
ENDBRANCH   5  18
BRANCH   3  22
ATOM     22  C   LIG d   1      -5.754  96.571 121.291  0.00  0.00     0.382 C 
ATOM     23  O   LIG d   1      -6.713  97.194 121.806  0.00  0.00    -0.241 OA
ATOM     24  O   LIG d   1      -4.594  96.793 121.687  0.00  0.00    -0.241 OA
ENDBRANCH   3  22
TORSDOF 7
ENDMDL
MODEL 7
REMARK VINA RESULT:      -4.5      2.830      6.567
REMARK  7 active torsions:
REMARK  status: ('A' for Active; 'I' for Inactive)
REMARK    1  A    between atoms: C_2  and  C_3 
REMARK    2  A    between atoms: C_3  and  O_6 
REMARK    3  A    between atoms: C_3  and  C_4 
REMARK    4  A    between atoms: C_7  and  O_6 
REMARK    5  A    between atoms: C_9  and  C_10 
REMARK    6  A    between atoms: N_15  and  C_14 
REMARK    7  A    between atoms: N_20  and  C_19 
REMARK       I    between atoms: C_22  and  N_20 
ROOT
ATOM      1  C   LIG d   1      -3.322  91.807 117.851  0.00  0.00     0.161 C 
ATOM      2  C   LIG d   1      -2.677  92.104 119.063  0.00  0.00     0.016 C 
ATOM      3  C   LIG d   1      -3.285  92.837 120.108  0.00  0.00     0.038 C 
ATOM      4  C   LIG d   1      -4.641  93.196 120.072  0.00  0.00     0.028 C 
ATOM      5  C   LIG d   1      -5.186  93.357 118.657  0.00  0.00    -0.047 C 
ATOM      6  C   LIG d   1      -4.838  92.094 117.837  0.00  0.00     0.091 C 
ENDROOT
BRANCH   1   7
ATOM      7  O   LIG d   1      -3.068  90.436 117.485  0.00  0.00    -0.368 OA
BRANCH   7   8
ATOM      8  C   LIG d   1      -1.953  89.795 118.153  0.00  0.00     0.119 C 
BRANCH   8   9
ATOM      9  C   LIG d   1      -0.821  89.640 117.119  0.00  0.00     0.028 C 
ATOM     10  C   LIG d   1       0.248  90.738 117.251  0.00  0.00     0.006 C 
ENDBRANCH   8   9
BRANCH   8  11
ATOM     11  C   LIG d   1      -2.308  88.368 118.583  0.00  0.00     0.028 C 
ATOM     12  C   LIG d   1      -1.660  87.970 119.919  0.00  0.00     0.006 C 
ENDBRANCH   8  11
ENDBRANCH   7   8
ENDBRANCH   1   7
BRANCH   6  13
ATOM     13  N   LIG d   1      -5.262  92.205 116.417  0.00  0.00    -0.311 N 
ATOM     14  C   LIG d   1      -6.443  91.783 115.970  0.00  0.00     0.210 C 
ATOM     15  C   LIG d   1      -6.671  91.974 114.467  0.00  0.00     0.109 C 
ATOM     16  O   LIG d   1      -7.337  91.298 116.680  0.00  0.00    -0.276 OA
ATOM     17  H   LIG d   1      -4.610  92.615 115.777  0.00  0.00     0.149 HD
ENDBRANCH   6  13
BRANCH   5  18
ATOM     18  N   LIG d   1      -6.638  93.595 118.764  0.00  0.00     0.381 N 
ATOM     19  H   LIG d   1      -6.956  94.113 117.969  0.00  0.00    -0.090 HD
ATOM     20  H   LIG d   1      -6.818  94.141 119.588  0.00  0.00    -0.090 HD
ATOM     21  H   LIG d   1      -7.123  92.727 118.819  0.00  0.00    -0.090 HD
ENDBRANCH   5  18
BRANCH   3  22
ATOM     22  C   LIG d   1      -2.522  93.254 121.189  0.00  0.00     0.382 C 
ATOM     23  O   LIG d   1      -2.607  94.438 121.596  0.00  0.00    -0.241 OA
ATOM     24  O   LIG d   1      -1.719  92.474 121.733  0.00  0.00    -0.241 OA
ENDBRANCH   3  22
TORSDOF 7
ENDMDL
MODEL 8
REMARK VINA RESULT:      -4.3      2.508      4.818
REMARK  7 active torsions:
REMARK  status: ('A' for Active; 'I' for Inactive)
REMARK    1  A    between atoms: C_2  and  C_3 
REMARK    2  A    between atoms: C_3  and  O_6 
REMARK    3  A    between atoms: C_3  and  C_4 
REMARK    4  A    between atoms: C_7  and  O_6 
REMARK    5  A    between atoms: C_9  and  C_10 
REMARK    6  A    between atoms: N_15  and  C_14 
REMARK    7  A    between atoms: N_20  and  C_19 
REMARK       I    between atoms: C_22  and  N_20 
ROOT
ATOM      1  C   LIG d   1      -3.563  91.595 118.017  0.00  0.00     0.161 C 
ATOM      2  C   LIG d   1      -4.466  90.999 117.121  0.00  0.00     0.016 C 
ATOM      3  C   LIG d   1      -5.708  91.576 116.768  0.00  0.00     0.038 C 
ATOM      4  C   LIG d   1      -6.066  92.870 117.173  0.00  0.00     0.028 C 
ATOM      5  C   LIG d   1      -5.411  93.298 118.482  0.00  0.00    -0.047 C 
ATOM      6  C   LIG d   1      -3.887  93.059 118.383  0.00  0.00     0.091 C 
ENDROOT
BRANCH   1   7
ATOM      7  O   LIG d   1      -2.222  91.493 117.500  0.00  0.00    -0.368 OA
BRANCH   7   8
ATOM      8  C   LIG d   1      -1.275  90.770 118.323  0.00  0.00     0.119 C 
BRANCH   8   9
ATOM      9  C   LIG d   1      -0.577  89.732 117.423  0.00  0.00     0.028 C 
ATOM     10  C   LIG d   1      -1.300  88.375 117.423  0.00  0.00     0.006 C 
ENDBRANCH   8   9
BRANCH   8  11
ATOM     11  C   LIG d   1      -1.987  89.954 119.406  0.00  0.00     0.028 C 
ATOM     12  C   LIG d   1      -1.486  90.279 120.823  0.00  0.00     0.006 C 
ENDBRANCH   8  11
ENDBRANCH   7   8
ENDBRANCH   1   7
BRANCH   6  13
ATOM     13  N   LIG d   1      -3.180  93.373 119.652  0.00  0.00    -0.311 N 
ATOM     14  C   LIG d   1      -2.612  94.551 119.903  0.00  0.00     0.210 C 
ATOM     15  C   LIG d   1      -1.918  94.657 121.264  0.00  0.00     0.109 C 
ATOM     16  O   LIG d   1      -2.644  95.528 119.140  0.00  0.00    -0.276 OA
ATOM     17  H   LIG d   1      -3.134  92.646 120.339  0.00  0.00     0.149 HD
ENDBRANCH   6  13
BRANCH   5  18
ATOM     18  N   LIG d   1      -5.761  94.712 118.714  0.00  0.00     0.381 N 
ATOM     19  H   LIG d   1      -6.201  95.090 117.899  0.00  0.00    -0.090 HD
ATOM     20  H   LIG d   1      -4.918  95.231 118.886  0.00  0.00    -0.090 HD
ATOM     21  H   LIG d   1      -6.372  94.789 119.496  0.00  0.00    -0.090 HD
ENDBRANCH   5  18
BRANCH   3  22
ATOM     22  C   LIG d   1      -6.623  90.839 116.033  0.00  0.00     0.382 C 
ATOM     23  O   LIG d   1      -7.838  91.154 116.046  0.00  0.00    -0.241 OA
ATOM     24  O   LIG d   1      -6.258  89.836 115.391  0.00  0.00    -0.241 OA
ENDBRANCH   3  22
TORSDOF 7
ENDMDL
MODEL 9
REMARK VINA RESULT:      -4.2      3.049      5.595
REMARK  7 active torsions:
REMARK  status: ('A' for Active; 'I' for Inactive)
REMARK    1  A    between atoms: C_2  and  C_3 
REMARK    2  A    between atoms: C_3  and  O_6 
REMARK    3  A    between atoms: C_3  and  C_4 
REMARK    4  A    between atoms: C_7  and  O_6 
REMARK    5  A    between atoms: C_9  and  C_10 
REMARK    6  A    between atoms: N_15  and  C_14 
REMARK    7  A    between atoms: N_20  and  C_19 
REMARK       I    between atoms: C_22  and  N_20 
ROOT
ATOM      1  C   LIG d   1      -2.792  90.818 118.115  0.00  0.00     0.161 C 
ATOM      2  C   LIG d   1      -3.552  90.252 117.078  0.00  0.00     0.016 C 
ATOM      3  C   LIG d   1      -4.652  90.904 116.475  0.00  0.00     0.038 C 
ATOM      4  C   LIG d   1      -4.976  92.237 116.768  0.00  0.00     0.028 C 
ATOM      5  C   LIG d   1      -4.551  92.670 118.167  0.00  0.00    -0.047 C 
ATOM      6  C   LIG d   1      -3.060  92.316 118.371  0.00  0.00     0.091 C 
ENDROOT
BRANCH   1   7
ATOM      7  O   LIG d   1      -1.389  90.595 117.871  0.00  0.00    -0.368 OA
BRANCH   7   8
ATOM      8  C   LIG d   1      -0.978  89.213 117.732  0.00  0.00     0.119 C 
BRANCH   8   9
ATOM      9  C   LIG d   1      -0.836  88.627 119.150  0.00  0.00     0.028 C 
ATOM     10  C   LIG d   1      -1.858  87.512 119.429  0.00  0.00     0.006 C 
ENDBRANCH   8   9
BRANCH   8  11
ATOM     11  C   LIG d   1       0.417  89.107 117.109  0.00  0.00     0.028 C 
ATOM     12  C   LIG d   1       0.740  87.690 116.609  0.00  0.00     0.006 C 
ENDBRANCH   8  11
ENDBRANCH   7   8
ENDBRANCH   1   7
BRANCH   6  13
ATOM     13  N   LIG d   1      -2.586  92.629 119.745  0.00  0.00    -0.311 N 
ATOM     14  C   LIG d   1      -1.579  93.463 120.000  0.00  0.00     0.210 C 
ATOM     15  C   LIG d   1      -1.239  93.630 121.484  0.00  0.00     0.109 C 
ATOM     16  O   LIG d   1      -0.956  94.104 119.140  0.00  0.00    -0.276 OA
ATOM     17  H   LIG d   1      -3.056  92.177 120.504  0.00  0.00     0.149 HD
ENDBRANCH   6  13
BRANCH   5  18
ATOM     18  N   LIG d   1      -4.824  94.115 118.288  0.00  0.00     0.381 N 
ATOM     19  H   LIG d   1      -4.218  94.517 118.976  0.00  0.00    -0.090 HD
ATOM     20  H   LIG d   1      -5.773  94.242 118.591  0.00  0.00    -0.090 HD
ATOM     21  H   LIG d   1      -4.684  94.563 117.410  0.00  0.00    -0.090 HD
ENDBRANCH   5  18
BRANCH   3  22
ATOM     22  C   LIG d   1      -5.467  90.206 115.596  0.00  0.00     0.382 C 
ATOM     23  O   LIG d   1      -6.712  90.356 115.643  0.00  0.00    -0.241 OA
ATOM     24  O   LIG d   1      -4.976  89.396 114.788  0.00  0.00    -0.241 OA
ENDBRANCH   3  22
TORSDOF 7
ENDMDL
