MODEL 1
REMARK VINA RESULT:      -5.0      0.000      0.000
REMARK  7 active torsions:
REMARK  status: ('A' for Active; 'I' for Inactive)
REMARK    1  A    between atoms: C_2  and  C_3 
REMARK    2  A    between atoms: C_3  and  O_6 
REMARK    3  A    between atoms: C_3  and  C_4 
REMARK    4  A    between atoms: C_7  and  O_6 
REMARK    5  A    between atoms: C_9  and  C_10 
REMARK    6  A    between atoms: N_15  and  C_14 
REMARK    7  A    between atoms: N_20  and  C_19 
REMARK       I    between atoms: C_22  and  N_20 
ROOT
ATOM      1  C   LIG d   1      -5.893  92.037 118.554  0.00  0.00     0.161 C 
ATOM      2  C   LIG d   1      -6.811  91.932 117.495  0.00  0.00     0.016 C 
ATOM      3  C   LIG d   1      -6.569  91.170 116.329  0.00  0.00     0.038 C 
ATOM      4  C   LIG d   1      -5.449  90.335 116.207  0.00  0.00     0.028 C 
ATOM      5  C   LIG d   1      -4.254  90.801 117.032  0.00  0.00    -0.047 C 
ATOM      6  C   LIG d   1      -4.713  91.045 118.488  0.00  0.00     0.091 C 
ENDROOT
BRANCH   1   7
ATOM      7  O   LIG d   1      -6.583  91.913 119.813  0.00  0.00    -0.368 OA
BRANCH   7   8
ATOM      8  C   LIG d   1      -6.693  93.124 120.601  0.00  0.00     0.119 C 
BRANCH   8   9
ATOM      9  C   LIG d   1      -8.166  93.575 120.552  0.00  0.00     0.028 C 
ATOM     10  C   LIG d   1      -8.406  94.683 119.512  0.00  0.00     0.006 C 
ENDBRANCH   8   9
BRANCH   8  11
ATOM     11  C   LIG d   1      -5.896  94.272 119.974  0.00  0.00     0.028 C 
ATOM     12  C   LIG d   1      -4.745  94.756 120.870  0.00  0.00     0.006 C 
ENDBRANCH   8  11
ENDBRANCH   7   8
ENDBRANCH   1   7
BRANCH   6  13
ATOM     13  N   LIG d   1      -3.624  91.583 119.343  0.00  0.00    -0.311 N 
ATOM     14  C   LIG d   1      -2.816  90.815 120.072  0.00  0.00     0.210 C 
ATOM     15  C   LIG d   1      -1.773  91.574 120.898  0.00  0.00     0.109 C 
ATOM     16  O   LIG d   1      -2.844  89.575 120.088  0.00  0.00    -0.276 OA
ATOM     17  H   LIG d   1      -3.511  92.578 119.365  0.00  0.00     0.149 HD
ENDBRANCH   6  13
BRANCH   5  18
ATOM     18  N   LIG d   1      -3.206  89.768 116.922  0.00  0.00     0.381 N 
ATOM     19  H   LIG d   1      -2.312  90.203 116.813  0.00  0.00    -0.090 HD
ATOM     20  H   LIG d   1      -3.386  89.209 116.106  0.00  0.00    -0.090 HD
ATOM     21  H   LIG d   1      -3.208  89.193 117.735  0.00  0.00    -0.090 HD
ENDBRANCH   5  18
BRANCH   3  22
ATOM     22  C   LIG d   1      -7.436  91.271 115.251  0.00  0.00     0.382 C 
ATOM     23  O   LIG d   1      -7.308  92.211 114.430  0.00  0.00    -0.241 OA
ATOM     24  O   LIG d   1      -8.370  90.459 115.114  0.00  0.00    -0.241 OA
ENDBRANCH   3  22
TORSDOF 7
ENDMDL
MODEL 2
REMARK VINA RESULT:      -5.0      2.488      4.581
REMARK  7 active torsions:
REMARK  status: ('A' for Active; 'I' for Inactive)
REMARK    1  A    between atoms: C_2  and  C_3 
REMARK    2  A    between atoms: C_3  and  O_6 
REMARK    3  A    between atoms: C_3  and  C_4 
REMARK    4  A    between atoms: C_7  and  O_6 
REMARK    5  A    between atoms: C_9  and  C_10 
REMARK    6  A    between atoms: N_15  and  C_14 
REMARK    7  A    between atoms: N_20  and  C_19 
REMARK       I    between atoms: C_22  and  N_20 
ROOT
ATOM      1  C   LIG d   1      -5.864  91.995 118.914  0.00  0.00     0.161 C 
ATOM      2  C   LIG d   1      -5.855  91.068 117.859  0.00  0.00     0.016 C 
ATOM      3  C   LIG d   1      -6.740  91.133 116.758  0.00  0.00     0.038 C 
ATOM      4  C   LIG d   1      -7.600  92.224 116.562  0.00  0.00     0.028 C 
ATOM      5  C   LIG d   1      -7.998  92.922 117.858  0.00  0.00    -0.047 C 
ATOM      6  C   LIG d   1      -6.720  93.254 118.662  0.00  0.00     0.091 C 
ENDROOT
BRANCH   1   7
ATOM      7  O   LIG d   1      -4.513  92.367 119.250  0.00  0.00    -0.368 OA
BRANCH   7   8
ATOM      8  C   LIG d   1      -3.466  91.537 118.691  0.00  0.00     0.119 C 
BRANCH   8   9
ATOM      9  C   LIG d   1      -2.945  90.626 119.820  0.00  0.00     0.028 C 
ATOM     10  C   LIG d   1      -2.819  89.158 119.379  0.00  0.00     0.006 C 
ENDBRANCH   8   9
BRANCH   8  11
ATOM     11  C   LIG d   1      -2.260  92.376 118.258  0.00  0.00     0.028 C 
ATOM     12  C   LIG d   1      -2.359  93.841 118.713  0.00  0.00     0.006 C 
ENDBRANCH   8  11
ENDBRANCH   7   8
ENDBRANCH   1   7
BRANCH   6  13
ATOM     13  N   LIG d   1      -7.024  93.863 119.983  0.00  0.00    -0.311 N 
ATOM     14  C   LIG d   1      -7.086  95.178 120.188  0.00  0.00     0.210 C 
ATOM     15  C   LIG d   1      -7.393  95.594 121.629  0.00  0.00     0.109 C 
ATOM     16  O   LIG d   1      -6.946  96.038 119.305  0.00  0.00    -0.276 OA
ATOM     17  H   LIG d   1      -7.182  93.237 120.749  0.00  0.00     0.149 HD
ENDBRANCH   6  13
BRANCH   5  18
ATOM     18  N   LIG d   1      -8.781  94.119 117.498  0.00  0.00     0.381 N 
ATOM     19  H   LIG d   1      -9.349  93.924 116.697  0.00  0.00    -0.090 HD
ATOM     20  H   LIG d   1      -8.148  94.863 117.262  0.00  0.00    -0.090 HD
ATOM     21  H   LIG d   1      -9.357  94.393 118.263  0.00  0.00    -0.090 HD
ENDBRANCH   5  18
BRANCH   3  22
ATOM     22  C   LIG d   1      -6.798  90.079 115.860  0.00  0.00     0.382 C 
ATOM     23  O   LIG d   1      -7.909  89.599 115.528  0.00  0.00    -0.241 OA
ATOM     24  O   LIG d   1      -5.753  89.572 115.412  0.00  0.00    -0.241 OA
ENDBRANCH   3  22
TORSDOF 7
ENDMDL
MODEL 3
REMARK VINA RESULT:      -4.7      2.335      3.496
REMARK  7 active torsions:
REMARK  status: ('A' for Active; 'I' for Inactive)
REMARK    1  A    between atoms: C_2  and  C_3 
REMARK    2  A    between atoms: C_3  and  O_6 
REMARK    3  A    between atoms: C_3  and  C_4 
REMARK    4  A    between atoms: C_7  and  O_6 
REMARK    5  A    between atoms: C_9  and  C_10 
REMARK    6  A    between atoms: N_15  and  C_14 
REMARK    7  A    between atoms: N_20  and  C_19 
REMARK       I    between atoms: C_22  and  N_20 
ROOT
ATOM      1  C   LIG d   1      -4.181  91.078 117.806  0.00  0.00     0.161 C 
ATOM      2  C   LIG d   1      -5.442  91.680 117.663  0.00  0.00     0.016 C 
ATOM      3  C   LIG d   1      -6.365  91.324 116.653  0.00  0.00     0.038 C 
ATOM      4  C   LIG d   1      -6.148  90.228 115.805  0.00  0.00     0.028 C 
ATOM      5  C   LIG d   1      -4.672  89.914 115.585  0.00  0.00    -0.047 C 
ATOM      6  C   LIG d   1      -3.972  89.805 116.958  0.00  0.00     0.091 C 
ENDROOT
BRANCH   1   7
ATOM      7  O   LIG d   1      -3.926  90.801 119.197  0.00  0.00    -0.368 OA
BRANCH   7   8
ATOM      8  C   LIG d   1      -3.139  91.787 119.910  0.00  0.00     0.119 C 
BRANCH   8   9
ATOM      9  C   LIG d   1      -2.114  92.368 118.916  0.00  0.00     0.028 C 
ATOM     10  C   LIG d   1      -2.152  93.904 118.865  0.00  0.00     0.006 C 
ENDBRANCH   8   9
BRANCH   8  11
ATOM     11  C   LIG d   1      -2.307  91.140 121.020  0.00  0.00     0.028 C 
ATOM     12  C   LIG d   1      -0.856  90.864 120.593  0.00  0.00     0.006 C 
ENDBRANCH   8  11
ENDBRANCH   7   8
ENDBRANCH   1   7
BRANCH   6  13
ATOM     13  N   LIG d   1      -2.508  89.583 116.833  0.00  0.00    -0.311 N 
ATOM     14  C   LIG d   1      -1.810  88.810 117.663  0.00  0.00     0.210 C 
ATOM     15  C   LIG d   1      -0.309  88.734 117.366  0.00  0.00     0.109 C 
ATOM     16  O   LIG d   1      -2.296  88.155 118.596  0.00  0.00    -0.276 OA
ATOM     17  H   LIG d   1      -2.038  90.052 116.083  0.00  0.00     0.149 HD
ENDBRANCH   6  13
BRANCH   5  18
ATOM     18  N   LIG d   1      -4.594  88.671 114.795  0.00  0.00     0.381 N 
ATOM     19  H   LIG d   1      -3.645  88.499 114.527  0.00  0.00    -0.090 HD
ATOM     20  H   LIG d   1      -5.143  88.780 113.961  0.00  0.00    -0.090 HD
ATOM     21  H   LIG d   1      -4.939  87.905 115.331  0.00  0.00    -0.090 HD
ENDBRANCH   5  18
BRANCH   3  22
ATOM     22  C   LIG d   1      -7.502  92.093 116.459  0.00  0.00     0.382 C 
ATOM     23  O   LIG d   1      -7.998  92.200 115.312  0.00  0.00    -0.241 OA
ATOM     24  O   LIG d   1      -8.013  92.716 117.409  0.00  0.00    -0.241 OA
ENDBRANCH   3  22
TORSDOF 7
ENDMDL
MODEL 4
REMARK VINA RESULT:      -4.7      2.133      4.332
REMARK  7 active torsions:
REMARK  status: ('A' for Active; 'I' for Inactive)
REMARK    1  A    between atoms: C_2  and  C_3 
REMARK    2  A    between atoms: C_3  and  O_6 
REMARK    3  A    between atoms: C_3  and  C_4 
REMARK    4  A    between atoms: C_7  and  O_6 
REMARK    5  A    between atoms: C_9  and  C_10 
REMARK    6  A    between atoms: N_15  and  C_14 
REMARK    7  A    between atoms: N_20  and  C_19 
REMARK       I    between atoms: C_22  and  N_20 
ROOT
ATOM      1  C   LIG d   1      -4.822  91.358 118.147  0.00  0.00     0.161 C 
ATOM      2  C   LIG d   1      -4.953  90.632 116.952  0.00  0.00     0.016 C 
ATOM      3  C   LIG d   1      -6.065  90.753 116.087  0.00  0.00     0.038 C 
ATOM      4  C   LIG d   1      -7.056  91.726 116.285  0.00  0.00     0.028 C 
ATOM      5  C   LIG d   1      -7.223  92.133 117.745  0.00  0.00    -0.047 C 
ATOM      6  C   LIG d   1      -5.839  92.505 118.323  0.00  0.00     0.091 C 
ENDROOT
BRANCH   1   7
ATOM      7  O   LIG d   1      -3.476  91.859 118.269  0.00  0.00    -0.368 OA
BRANCH   7   8
ATOM      8  C   LIG d   1      -2.678  91.291 119.337  0.00  0.00     0.119 C 
BRANCH   8   9
ATOM      9  C   LIG d   1      -1.713  92.388 119.827  0.00  0.00     0.028 C 
ATOM     10  C   LIG d   1      -2.327  93.795 119.734  0.00  0.00     0.006 C 
ENDBRANCH   8   9
BRANCH   8  11
ATOM     11  C   LIG d   1      -1.781  90.162 118.822  0.00  0.00     0.028 C 
ATOM     12  C   LIG d   1      -2.416  88.772 118.990  0.00  0.00     0.006 C 
ENDBRANCH   8  11
ENDBRANCH   7   8
ENDBRANCH   1   7
BRANCH   6  13
ATOM     13  N   LIG d   1      -5.899  92.835 119.771  0.00  0.00    -0.311 N 
ATOM     14  C   LIG d   1      -6.033  94.076 120.235  0.00  0.00     0.210 C 
ATOM     15  C   LIG d   1      -6.053  94.196 121.762  0.00  0.00     0.109 C 
ATOM     16  O   LIG d   1      -6.169  95.085 119.527  0.00  0.00    -0.276 OA
ATOM     17  H   LIG d   1      -5.828  92.072 120.416  0.00  0.00     0.149 HD
ENDBRANCH   6  13
BRANCH   5  18
ATOM     18  N   LIG d   1      -8.187  93.249 117.789  0.00  0.00     0.381 N 
ATOM     19  H   LIG d   1      -9.120  92.892 117.742  0.00  0.00    -0.090 HD
ATOM     20  H   LIG d   1      -8.035  93.841 116.992  0.00  0.00    -0.090 HD
ATOM     21  H   LIG d   1      -8.066  93.771 118.629  0.00  0.00    -0.090 HD
ENDBRANCH   5  18
BRANCH   3  22
ATOM     22  C   LIG d   1      -6.214  89.866 115.031  0.00  0.00     0.382 C 
ATOM     23  O   LIG d   1      -7.313  89.785 114.431  0.00  0.00    -0.241 OA
ATOM     24  O   LIG d   1      -5.277  89.115 114.701  0.00  0.00    -0.241 OA
ENDBRANCH   3  22
TORSDOF 7
ENDMDL
MODEL 5
REMARK VINA RESULT:      -4.6      2.316      5.658
REMARK  7 active torsions:
REMARK  status: ('A' for Active; 'I' for Inactive)
REMARK    1  A    between atoms: C_2  and  C_3 
REMARK    2  A    between atoms: C_3  and  O_6 
REMARK    3  A    between atoms: C_3  and  C_4 
REMARK    4  A    between atoms: C_7  and  O_6 
REMARK    5  A    between atoms: C_9  and  C_10 
REMARK    6  A    between atoms: N_15  and  C_14 
REMARK    7  A    between atoms: N_20  and  C_19 
REMARK       I    between atoms: C_22  and  N_20 
ROOT
ATOM      1  C   LIG d   1      -4.958  92.013 119.094  0.00  0.00     0.161 C 
ATOM      2  C   LIG d   1      -5.155  92.833 120.217  0.00  0.00     0.016 C 
ATOM      3  C   LIG d   1      -6.342  93.565 120.448  0.00  0.00     0.038 C 
ATOM      4  C   LIG d   1      -7.479  93.407 119.642  0.00  0.00     0.028 C 
ATOM      5  C   LIG d   1      -7.155  92.977 118.215  0.00  0.00    -0.047 C 
ATOM      6  C   LIG d   1      -6.228  91.741 118.261  0.00  0.00     0.091 C 
ENDROOT
BRANCH   1   7
ATOM      7  O   LIG d   1      -4.347  90.771 119.497  0.00  0.00    -0.368 OA
BRANCH   7   8
ATOM      8  C   LIG d   1      -2.907  90.695 119.360  0.00  0.00     0.119 C 
BRANCH   8   9
ATOM      9  C   LIG d   1      -2.495  91.679 118.248  0.00  0.00     0.028 C 
ATOM     10  C   LIG d   1      -1.288  92.545 118.649  0.00  0.00     0.006 C 
ENDBRANCH   8   9
BRANCH   8  11
ATOM     11  C   LIG d   1      -2.466  89.315 118.864  0.00  0.00     0.028 C 
ATOM     12  C   LIG d   1      -2.679  89.128 117.354  0.00  0.00     0.006 C 
ENDBRANCH   8  11
ENDBRANCH   7   8
ENDBRANCH   1   7
BRANCH   6  13
ATOM     13  N   LIG d   1      -5.794  91.307 116.908  0.00  0.00    -0.311 N 
ATOM     14  C   LIG d   1      -6.375  90.315 116.235  0.00  0.00     0.210 C 
ATOM     15  C   LIG d   1      -5.759  90.016 114.864  0.00  0.00     0.109 C 
ATOM     16  O   LIG d   1      -7.362  89.675 116.629  0.00  0.00    -0.276 OA
ATOM     17  H   LIG d   1      -5.020  91.792 116.499  0.00  0.00     0.149 HD
ENDBRANCH   6  13
BRANCH   5  18
ATOM     18  N   LIG d   1      -8.433  92.716 117.526  0.00  0.00     0.381 N 
ATOM     19  H   LIG d   1      -8.277  92.637 116.541  0.00  0.00    -0.090 HD
ATOM     20  H   LIG d   1      -9.052  93.491 117.687  0.00  0.00    -0.090 HD
ATOM     21  H   LIG d   1      -8.842  91.877 117.874  0.00  0.00    -0.090 HD
ENDBRANCH   5  18
BRANCH   3  22
ATOM     22  C   LIG d   1      -6.386  94.497 121.473  0.00  0.00     0.382 C 
ATOM     23  O   LIG d   1      -7.492  94.875 121.930  0.00  0.00    -0.241 OA
ATOM     24  O   LIG d   1      -5.336  94.999 121.917  0.00  0.00    -0.241 OA
ENDBRANCH   3  22
TORSDOF 7
ENDMDL
MODEL 6
REMARK VINA RESULT:      -4.5      1.702      2.245
REMARK  7 active torsions:
REMARK  status: ('A' for Active; 'I' for Inactive)
REMARK    1  A    between atoms: C_2  and  C_3 
REMARK    2  A    between atoms: C_3  and  O_6 
REMARK    3  A    between atoms: C_3  and  C_4 
REMARK    4  A    between atoms: C_7  and  O_6 
REMARK    5  A    between atoms: C_9  and  C_10 
REMARK    6  A    between atoms: N_15  and  C_14 
REMARK    7  A    between atoms: N_20  and  C_19 
REMARK       I    between atoms: C_22  and  N_20 
ROOT
ATOM      1  C   LIG d   1      -7.005  92.982 118.431  0.00  0.00     0.161 C 
ATOM      2  C   LIG d   1      -7.539  92.423 117.258  0.00  0.00     0.016 C 
ATOM      3  C   LIG d   1      -6.954  91.328 116.581  0.00  0.00     0.038 C 
ATOM      4  C   LIG d   1      -5.873  90.616 117.121  0.00  0.00     0.028 C 
ATOM      5  C   LIG d   1      -4.994  91.454 118.043  0.00  0.00    -0.047 C 
ATOM      6  C   LIG d   1      -5.889  92.148 119.095  0.00  0.00     0.091 C 
ENDROOT
BRANCH   1   7
ATOM      7  O   LIG d   1      -8.064  93.242 119.374  0.00  0.00    -0.368 OA
BRANCH   7   8
ATOM      8  C   LIG d   1      -8.177  94.607 119.846  0.00  0.00     0.119 C 
BRANCH   8   9
ATOM      9  C   LIG d   1      -9.614  94.800 120.366  0.00  0.00     0.028 C 
ATOM     10  C   LIG d   1      -9.915  93.925 121.595  0.00  0.00     0.006 C 
ENDBRANCH   8   9
BRANCH   8  11
ATOM     11  C   LIG d   1      -8.024  95.608 118.697  0.00  0.00     0.028 C 
ATOM     12  C   LIG d   1      -7.913  97.061 119.183  0.00  0.00     0.006 C 
ENDBRANCH   8  11
ENDBRANCH   7   8
ENDBRANCH   1   7
BRANCH   6  13
ATOM     13  N   LIG d   1      -5.119  93.055 119.985  0.00  0.00    -0.311 N 
ATOM     14  C   LIG d   1      -4.621  92.678 121.161  0.00  0.00     0.210 C 
ATOM     15  C   LIG d   1      -3.877  93.775 121.929  0.00  0.00     0.109 C 
ATOM     16  O   LIG d   1      -4.697  91.532 121.627  0.00  0.00    -0.276 OA
ATOM     17  H   LIG d   1      -4.983  93.996 119.670  0.00  0.00     0.149 HD
ENDBRANCH   6  13
BRANCH   5  18
ATOM     18  N   LIG d   1      -3.990  90.555 118.641  0.00  0.00     0.381 N 
ATOM     19  H   LIG d   1      -4.379  90.096 119.440  0.00  0.00    -0.090 HD
ATOM     20  H   LIG d   1      -3.203  91.102 118.943  0.00  0.00    -0.090 HD
ATOM     21  H   LIG d   1      -3.696  89.878 117.971  0.00  0.00    -0.090 HD
ENDBRANCH   5  18
BRANCH   3  22
ATOM     22  C   LIG d   1      -7.428  90.960 115.331  0.00  0.00     0.382 C 
ATOM     23  O   LIG d   1      -7.287  89.779 114.930  0.00  0.00    -0.241 OA
ATOM     24  O   LIG d   1      -7.954  91.804 114.582  0.00  0.00    -0.241 OA
ENDBRANCH   3  22
TORSDOF 7
ENDMDL
MODEL 7
REMARK VINA RESULT:      -4.4      3.209      7.202
REMARK  7 active torsions:
REMARK  status: ('A' for Active; 'I' for Inactive)
REMARK    1  A    between atoms: C_2  and  C_3 
REMARK    2  A    between atoms: C_3  and  O_6 
REMARK    3  A    between atoms: C_3  and  C_4 
REMARK    4  A    between atoms: C_7  and  O_6 
REMARK    5  A    between atoms: C_9  and  C_10 
REMARK    6  A    between atoms: N_15  and  C_14 
REMARK    7  A    between atoms: N_20  and  C_19 
REMARK       I    between atoms: C_22  and  N_20 
ROOT
ATOM      1  C   LIG d   1      -1.719  91.084 118.222  0.00  0.00     0.161 C 
ATOM      2  C   LIG d   1      -0.650  91.495 119.035  0.00  0.00     0.016 C 
ATOM      3  C   LIG d   1      -0.671  92.678 119.810  0.00  0.00     0.038 C 
ATOM      4  C   LIG d   1      -1.830  93.457 119.942  0.00  0.00     0.028 C 
ATOM      5  C   LIG d   1      -2.768  93.355 118.744  0.00  0.00    -0.047 C 
ATOM      6  C   LIG d   1      -3.034  91.863 118.440  0.00  0.00     0.091 C 
ENDROOT
BRANCH   1   7
ATOM      7  O   LIG d   1      -1.942  89.670 118.386  0.00  0.00    -0.368 OA
BRANCH   7   8
ATOM      8  C   LIG d   1      -0.756  88.847 118.500  0.00  0.00     0.119 C 
BRANCH   8   9
ATOM      9  C   LIG d   1      -0.351  88.418 117.077  0.00  0.00     0.028 C 
ATOM     10  C   LIG d   1       1.165  88.526 116.840  0.00  0.00     0.006 C 
ENDBRANCH   8   9
BRANCH   8  11
ATOM     11  C   LIG d   1      -1.052  87.543 119.248  0.00  0.00     0.028 C 
ATOM     12  C   LIG d   1      -2.337  87.616 120.087  0.00  0.00     0.006 C 
ENDBRANCH   8  11
ENDBRANCH   7   8
ENDBRANCH   1   7
BRANCH   6  13
ATOM     13  N   LIG d   1      -3.875  91.673 117.230  0.00  0.00    -0.311 N 
ATOM     14  C   LIG d   1      -5.075  91.095 117.255  0.00  0.00     0.210 C 
ATOM     15  C   LIG d   1      -5.766  90.980 115.893  0.00  0.00     0.109 C 
ATOM     16  O   LIG d   1      -5.646  90.695 118.281  0.00  0.00    -0.276 OA
ATOM     17  H   LIG d   1      -3.502  91.996 116.359  0.00  0.00     0.149 HD
ENDBRANCH   6  13
BRANCH   5  18
ATOM     18  N   LIG d   1      -3.995  94.105 119.074  0.00  0.00     0.381 N 
ATOM     19  H   LIG d   1      -4.025  94.290 120.057  0.00  0.00    -0.090 HD
ATOM     20  H   LIG d   1      -4.793  93.545 118.833  0.00  0.00    -0.090 HD
ATOM     21  H   LIG d   1      -4.017  94.963 118.567  0.00  0.00    -0.090 HD
ENDBRANCH   5  18
BRANCH   3  22
ATOM     22  C   LIG d   1       0.490  93.113 120.432  0.00  0.00     0.382 C 
ATOM     23  O   LIG d   1       1.605  92.896 119.899  0.00  0.00    -0.241 OA
ATOM     24  O   LIG d   1       0.439  93.680 121.539  0.00  0.00    -0.241 OA
ENDBRANCH   3  22
TORSDOF 7
ENDMDL
MODEL 8
REMARK VINA RESULT:      -4.4      6.110      8.842
REMARK  7 active torsions:
REMARK  status: ('A' for Active; 'I' for Inactive)
REMARK    1  A    between atoms: C_2  and  C_3 
REMARK    2  A    between atoms: C_3  and  O_6 
REMARK    3  A    between atoms: C_3  and  C_4 
REMARK    4  A    between atoms: C_7  and  O_6 
REMARK    5  A    between atoms: C_9  and  C_10 
REMARK    6  A    between atoms: N_15  and  C_14 
REMARK    7  A    between atoms: N_20  and  C_19 
REMARK       I    between atoms: C_22  and  N_20 
ROOT
ATOM      1  C   LIG d   1       0.886  88.683 116.899  0.00  0.00     0.161 C 
ATOM      2  C   LIG d   1      -0.503  88.524 117.039  0.00  0.00     0.016 C 
ATOM      3  C   LIG d   1      -1.358  89.540 117.524  0.00  0.00     0.038 C 
ATOM      4  C   LIG d   1      -0.899  90.844 117.762  0.00  0.00     0.028 C 
ATOM      5  C   LIG d   1       0.583  90.910 118.115  0.00  0.00    -0.047 C 
ATOM      6  C   LIG d   1       1.389  90.135 117.047  0.00  0.00     0.091 C 
ENDROOT
BRANCH   1   7
ATOM      7  O   LIG d   1       1.317  88.131 115.639  0.00  0.00    -0.368 OA
BRANCH   7   8
ATOM      8  C   LIG d   1       1.767  86.754 115.668  0.00  0.00     0.119 C 
BRANCH   8   9
ATOM      9  C   LIG d   1       2.688  86.594 116.892  0.00  0.00     0.028 C 
ATOM     10  C   LIG d   1       2.259  85.430 117.802  0.00  0.00     0.006 C 
ENDBRANCH   8   9
BRANCH   8  11
ATOM     11  C   LIG d   1       2.644  86.429 114.455  0.00  0.00     0.028 C 
ATOM     12  C   LIG d   1       4.109  86.847 114.650  0.00  0.00     0.006 C 
ENDBRANCH   8  11
ENDBRANCH   7   8
ENDBRANCH   1   7
BRANCH   6  13
ATOM     13  N   LIG d   1       2.840  90.078 117.362  0.00  0.00    -0.311 N 
ATOM     14  C   LIG d   1       3.794  90.152 116.437  0.00  0.00     0.210 C 
ATOM     15  C   LIG d   1       5.226  90.053 116.974  0.00  0.00     0.109 C 
ATOM     16  O   LIG d   1       3.593  90.322 115.225  0.00  0.00    -0.276 OA
ATOM     17  H   LIG d   1       3.094  89.972 118.325  0.00  0.00     0.149 HD
ENDBRANCH   6  13
BRANCH   5  18
ATOM     18  N   LIG d   1       0.958  92.334 118.201  0.00  0.00     0.381 N 
ATOM     19  H   LIG d   1       1.143  92.692 117.285  0.00  0.00    -0.090 HD
ATOM     20  H   LIG d   1       1.798  92.417 118.747  0.00  0.00    -0.090 HD
ATOM     21  H   LIG d   1       0.224  92.855 118.626  0.00  0.00    -0.090 HD
ENDBRANCH   5  18
BRANCH   3  22
ATOM     22  C   LIG d   1      -2.681  89.244 117.815  0.00  0.00     0.382 C 
ATOM     23  O   LIG d   1      -2.971  88.654 118.884  0.00  0.00    -0.241 OA
ATOM     24  O   LIG d   1      -3.583  89.520 117.002  0.00  0.00    -0.241 OA
ENDBRANCH   3  22
TORSDOF 7
ENDMDL
MODEL 9
REMARK VINA RESULT:      -4.3      2.130      4.613
REMARK  7 active torsions:
REMARK  status: ('A' for Active; 'I' for Inactive)
REMARK    1  A    between atoms: C_2  and  C_3 
REMARK    2  A    between atoms: C_3  and  O_6 
REMARK    3  A    between atoms: C_3  and  C_4 
REMARK    4  A    between atoms: C_7  and  O_6 
REMARK    5  A    between atoms: C_9  and  C_10 
REMARK    6  A    between atoms: N_15  and  C_14 
REMARK    7  A    between atoms: N_20  and  C_19 
REMARK       I    between atoms: C_22  and  N_20 
ROOT
ATOM      1  C   LIG d   1      -4.498  91.247 118.744  0.00  0.00     0.161 C 
ATOM      2  C   LIG d   1      -5.027  92.247 119.577  0.00  0.00     0.016 C 
ATOM      3  C   LIG d   1      -4.398  93.496 119.790  0.00  0.00     0.038 C 
ATOM      4  C   LIG d   1      -3.266  93.889 119.060  0.00  0.00     0.028 C 
ATOM      5  C   LIG d   1      -2.414  92.718 118.584  0.00  0.00    -0.047 C 
ATOM      6  C   LIG d   1      -3.322  91.702 117.854  0.00  0.00     0.091 C 
ENDROOT
BRANCH   1   7
ATOM      7  O   LIG d   1      -5.548  90.679 117.936  0.00  0.00    -0.368 OA
BRANCH   7   8
ATOM      8  C   LIG d   1      -6.021  91.498 116.838  0.00  0.00     0.119 C 
BRANCH   8   9
ATOM      9  C   LIG d   1      -7.537  91.694 117.026  0.00  0.00     0.028 C 
ATOM     10  C   LIG d   1      -7.883  93.073 117.612  0.00  0.00     0.006 C 
ENDBRANCH   8   9
BRANCH   8  11
ATOM     11  C   LIG d   1      -5.869  90.773 115.497  0.00  0.00     0.028 C 
ATOM     12  C   LIG d   1      -6.857  91.276 114.433  0.00  0.00     0.006 C 
ENDBRANCH   8  11
ENDBRANCH   7   8
ENDBRANCH   1   7
BRANCH   6  13
ATOM     13  N   LIG d   1      -2.583  90.484 117.429  0.00  0.00    -0.311 N 
ATOM     14  C   LIG d   1      -1.885  89.721 118.267  0.00  0.00     0.210 C 
ATOM     15  C   LIG d   1      -1.182  88.524 117.619  0.00  0.00     0.109 C 
ATOM     16  O   LIG d   1      -1.807  89.902 119.492  0.00  0.00    -0.276 OA
ATOM     17  H   LIG d   1      -2.619  90.245 116.457  0.00  0.00     0.149 HD
ENDBRANCH   6  13
BRANCH   5  18
ATOM     18  N   LIG d   1      -1.348  93.263 117.723  0.00  0.00     0.381 N 
ATOM     19  H   LIG d   1      -0.964  94.087 118.140  0.00  0.00    -0.090 HD
ATOM     20  H   LIG d   1      -1.744  93.513 116.834  0.00  0.00    -0.090 HD
ATOM     21  H   LIG d   1      -0.631  92.582 117.596  0.00  0.00    -0.090 HD
ENDBRANCH   5  18
BRANCH   3  22
ATOM     22  C   LIG d   1      -4.879  94.349 120.771  0.00  0.00     0.382 C 
ATOM     23  O   LIG d   1      -4.094  95.128 121.364  0.00  0.00    -0.241 OA
ATOM     24  O   LIG d   1      -6.079  94.318 121.102  0.00  0.00    -0.241 OA
ENDBRANCH   3  22
TORSDOF 7
ENDMDL
