MODEL 1
REMARK VINA RESULT:      -5.4      0.000      0.000
REMARK  7 active torsions:
REMARK  status: ('A' for Active; 'I' for Inactive)
REMARK    1  A    between atoms: C_2  and  C_3 
REMARK    2  A    between atoms: C_3  and  O_6 
REMARK    3  A    between atoms: C_3  and  C_4 
REMARK    4  A    between atoms: C_7  and  O_6 
REMARK    5  A    between atoms: C_9  and  C_10 
REMARK    6  A    between atoms: N_15  and  C_14 
REMARK    7  A    between atoms: N_20  and  C_19 
REMARK       I    between atoms: C_22  and  N_20 
ROOT
ATOM      1  C   LIG d   1      -5.996  92.048 118.513  0.00  0.00     0.161 C 
ATOM      2  C   LIG d   1      -6.827  91.269 117.691  0.00  0.00     0.016 C 
ATOM      3  C   LIG d   1      -6.336  90.333 116.752  0.00  0.00     0.038 C 
ATOM      4  C   LIG d   1      -4.975  90.003 116.676  0.00  0.00     0.028 C 
ATOM      5  C   LIG d   1      -4.052  91.129 117.132  0.00  0.00    -0.047 C 
ATOM      6  C   LIG d   1      -4.513  91.622 118.523  0.00  0.00     0.091 C 
ENDROOT
BRANCH   1   7
ATOM      7  O   LIG d   1      -6.519  92.072 119.856  0.00  0.00    -0.368 OA
BRANCH   7   8
ATOM      8  C   LIG d   1      -7.440  93.148 120.162  0.00  0.00     0.119 C 
BRANCH   8   9
ATOM      9  C   LIG d   1      -6.684  94.172 121.029  0.00  0.00     0.028 C 
ATOM     10  C   LIG d   1      -6.207  95.389 120.218  0.00  0.00     0.006 C 
ENDBRANCH   8   9
BRANCH   8  11
ATOM     11  C   LIG d   1      -8.601  92.657 121.033  0.00  0.00     0.028 C 
ATOM     12  C   LIG d   1      -9.455  93.807 121.589  0.00  0.00     0.006 C 
ENDBRANCH   8  11
ENDBRANCH   7   8
ENDBRANCH   1   7
BRANCH   6  13
ATOM     13  N   LIG d   1      -3.715  92.779 119.007  0.00  0.00    -0.311 N 
ATOM     14  C   LIG d   1      -3.201  92.854 120.233  0.00  0.00     0.210 C 
ATOM     15  C   LIG d   1      -2.429  94.143 120.533  0.00  0.00     0.109 C 
ATOM     16  O   LIG d   1      -3.283  91.961 121.090  0.00  0.00    -0.276 OA
ATOM     17  H   LIG d   1      -3.574  93.535 118.366  0.00  0.00     0.149 HD
ENDBRANCH   6  13
BRANCH   5  18
ATOM     18  N   LIG d   1      -2.674  90.603 117.133  0.00  0.00     0.381 N 
ATOM     19  H   LIG d   1      -2.111  91.127 116.494  0.00  0.00    -0.090 HD
ATOM     20  H   LIG d   1      -2.691  89.646 116.826  0.00  0.00    -0.090 HD
ATOM     21  H   LIG d   1      -2.288  90.658 118.050  0.00  0.00    -0.090 HD
ENDBRANCH   5  18
BRANCH   3  22
ATOM     22  C   LIG d   1      -7.207  89.746 115.847  0.00  0.00     0.382 C 
ATOM     23  O   LIG d   1      -8.255  89.191 116.256  0.00  0.00    -0.241 OA
ATOM     24  O   LIG d   1      -6.937  89.727 114.631  0.00  0.00    -0.241 OA
ENDBRANCH   3  22
TORSDOF 7
ENDMDL
MODEL 2
REMARK VINA RESULT:      -5.2      2.336      4.842
REMARK  7 active torsions:
REMARK  status: ('A' for Active; 'I' for Inactive)
REMARK    1  A    between atoms: C_2  and  C_3 
REMARK    2  A    between atoms: C_3  and  O_6 
REMARK    3  A    between atoms: C_3  and  C_4 
REMARK    4  A    between atoms: C_7  and  O_6 
REMARK    5  A    between atoms: C_9  and  C_10 
REMARK    6  A    between atoms: N_15  and  C_14 
REMARK    7  A    between atoms: N_20  and  C_19 
REMARK       I    between atoms: C_22  and  N_20 
ROOT
ATOM      1  C   LIG d   1      -5.328  92.252 119.413  0.00  0.00     0.161 C 
ATOM      2  C   LIG d   1      -6.712  92.341 119.184  0.00  0.00     0.016 C 
ATOM      3  C   LIG d   1      -7.499  93.441 119.595  0.00  0.00     0.038 C 
ATOM      4  C   LIG d   1      -6.927  94.603 120.133  0.00  0.00     0.028 C 
ATOM      5  C   LIG d   1      -5.601  94.353 120.843  0.00  0.00    -0.047 C 
ATOM      6  C   LIG d   1      -4.668  93.559 119.899  0.00  0.00     0.091 C 
ENDROOT
BRANCH   1   7
ATOM      7  O   LIG d   1      -4.667  91.767 118.228  0.00  0.00    -0.368 OA
BRANCH   7   8
ATOM      8  C   LIG d   1      -4.625  90.328 118.066  0.00  0.00     0.119 C 
BRANCH   8   9
ATOM      9  C   LIG d   1      -3.260  89.843 118.593  0.00  0.00     0.028 C 
ATOM     10  C   LIG d   1      -2.080  90.480 117.841  0.00  0.00     0.006 C 
ENDBRANCH   8   9
BRANCH   8  11
ATOM     11  C   LIG d   1      -4.651  89.933 116.586  0.00  0.00     0.028 C 
ATOM     12  C   LIG d   1      -5.696  90.720 115.778  0.00  0.00     0.006 C 
ENDBRANCH   8  11
ENDBRANCH   7   8
ENDBRANCH   1   7
BRANCH   6  13
ATOM     13  N   LIG d   1      -3.380  93.199 120.546  0.00  0.00    -0.311 N 
ATOM     14  C   LIG d   1      -2.190  93.465 120.010  0.00  0.00     0.210 C 
ATOM     15  C   LIG d   1      -0.989  92.990 120.833  0.00  0.00     0.109 C 
ATOM     16  O   LIG d   1      -2.015  94.077 118.946  0.00  0.00    -0.276 OA
ATOM     17  H   LIG d   1      -3.429  92.727 121.428  0.00  0.00     0.149 HD
ENDBRANCH   6  13
BRANCH   5  18
ATOM     18  N   LIG d   1      -5.049  95.664 121.233  0.00  0.00     0.381 N 
ATOM     19  H   LIG d   1      -4.856  95.672 122.214  0.00  0.00    -0.090 HD
ATOM     20  H   LIG d   1      -5.733  96.375 121.040  0.00  0.00    -0.090 HD
ATOM     21  H   LIG d   1      -4.214  95.848 120.721  0.00  0.00    -0.090 HD
ENDBRANCH   5  18
BRANCH   3  22
ATOM     22  C   LIG d   1      -8.881  93.368 119.506  0.00  0.00     0.382 C 
ATOM     23  O   LIG d   1      -9.514  92.556 120.224  0.00  0.00    -0.241 OA
ATOM     24  O   LIG d   1      -9.499  94.072 118.685  0.00  0.00    -0.241 OA
ENDBRANCH   3  22
TORSDOF 7
ENDMDL
MODEL 3
REMARK VINA RESULT:      -5.0      2.379      4.912
REMARK  7 active torsions:
REMARK  status: ('A' for Active; 'I' for Inactive)
REMARK    1  A    between atoms: C_2  and  C_3 
REMARK    2  A    between atoms: C_3  and  O_6 
REMARK    3  A    between atoms: C_3  and  C_4 
REMARK    4  A    between atoms: C_7  and  O_6 
REMARK    5  A    between atoms: C_9  and  C_10 
REMARK    6  A    between atoms: N_15  and  C_14 
REMARK    7  A    between atoms: N_20  and  C_19 
REMARK       I    between atoms: C_22  and  N_20 
ROOT
ATOM      1  C   LIG d   1      -3.720  91.012 118.215  0.00  0.00     0.161 C 
ATOM      2  C   LIG d   1      -4.441  90.388 117.183  0.00  0.00     0.016 C 
ATOM      3  C   LIG d   1      -5.784  90.703 116.872  0.00  0.00     0.038 C 
ATOM      4  C   LIG d   1      -6.454  91.776 117.478  0.00  0.00     0.028 C 
ATOM      5  C   LIG d   1      -5.934  92.104 118.873  0.00  0.00    -0.047 C 
ATOM      6  C   LIG d   1      -4.398  92.263 118.813  0.00  0.00     0.091 C 
ENDROOT
BRANCH   1   7
ATOM      7  O   LIG d   1      -2.391  91.333 117.757  0.00  0.00    -0.368 OA
BRANCH   7   8
ATOM      8  C   LIG d   1      -1.431  90.249 117.779  0.00  0.00     0.119 C 
BRANCH   8   9
ATOM      9  C   LIG d   1      -1.342  89.738 119.230  0.00  0.00     0.028 C 
ATOM     10  C   LIG d   1      -0.560  90.696 120.143  0.00  0.00     0.006 C 
ENDBRANCH   8   9
BRANCH   8  11
ATOM     11  C   LIG d   1      -0.023  90.745 117.437  0.00  0.00     0.028 C 
ATOM     12  C   LIG d   1       0.624  89.957 116.286  0.00  0.00     0.006 C 
ENDBRANCH   8  11
ENDBRANCH   7   8
ENDBRANCH   1   7
BRANCH   6  13
ATOM     13  N   LIG d   1      -3.799  92.502 120.152  0.00  0.00    -0.311 N 
ATOM     14  C   LIG d   1      -3.045  93.561 120.439  0.00  0.00     0.210 C 
ATOM     15  C   LIG d   1      -2.511  93.604 121.874  0.00  0.00     0.109 C 
ATOM     16  O   LIG d   1      -2.794  94.486 119.651  0.00  0.00    -0.276 OA
ATOM     17  H   LIG d   1      -3.978  91.817 120.860  0.00  0.00     0.149 HD
ENDBRANCH   6  13
BRANCH   5  18
ATOM     18  N   LIG d   1      -6.624  93.325 119.330  0.00  0.00     0.381 N 
ATOM     19  H   LIG d   1      -7.218  93.109 120.105  0.00  0.00    -0.090 HD
ATOM     20  H   LIG d   1      -7.196  93.675 118.582  0.00  0.00    -0.090 HD
ATOM     21  H   LIG d   1      -5.956  94.015 119.597  0.00  0.00    -0.090 HD
ENDBRANCH   5  18
BRANCH   3  22
ATOM     22  C   LIG d   1      -6.484  89.912 115.973  0.00  0.00     0.382 C 
ATOM     23  O   LIG d   1      -7.658  89.556 116.234  0.00  0.00    -0.241 OA
ATOM     24  O   LIG d   1      -5.941  89.515 114.925  0.00  0.00    -0.241 OA
ENDBRANCH   3  22
TORSDOF 7
ENDMDL
MODEL 4
REMARK VINA RESULT:      -4.8      4.944      7.622
REMARK  7 active torsions:
REMARK  status: ('A' for Active; 'I' for Inactive)
REMARK    1  A    between atoms: C_2  and  C_3 
REMARK    2  A    between atoms: C_3  and  O_6 
REMARK    3  A    between atoms: C_3  and  C_4 
REMARK    4  A    between atoms: C_7  and  O_6 
REMARK    5  A    between atoms: C_9  and  C_10 
REMARK    6  A    between atoms: N_15  and  C_14 
REMARK    7  A    between atoms: N_20  and  C_19 
REMARK       I    between atoms: C_22  and  N_20 
ROOT
ATOM      1  C   LIG d   1      -0.241  90.771 117.568  0.00  0.00     0.161 C 
ATOM      2  C   LIG d   1      -1.581  90.357 117.488  0.00  0.00     0.016 C 
ATOM      3  C   LIG d   1      -2.641  91.022 118.145  0.00  0.00     0.038 C 
ATOM      4  C   LIG d   1      -2.453  92.243 118.809  0.00  0.00     0.028 C 
ATOM      5  C   LIG d   1      -1.036  92.431 119.341  0.00  0.00    -0.047 C 
ATOM      6  C   LIG d   1      -0.031  92.165 118.196  0.00  0.00     0.091 C 
ENDROOT
BRANCH   1   7
ATOM      7  O   LIG d   1       0.367  90.713 116.263  0.00  0.00    -0.368 OA
BRANCH   7   8
ATOM      8  C   LIG d   1       1.087  89.496 115.948  0.00  0.00     0.119 C 
BRANCH   8   9
ATOM      9  C   LIG d   1       1.854  89.071 117.215  0.00  0.00     0.028 C 
ATOM     10  C   LIG d   1       1.867  87.545 117.409  0.00  0.00     0.006 C 
ENDBRANCH   8   9
BRANCH   8  11
ATOM     11  C   LIG d   1       2.163  89.743 114.887  0.00  0.00     0.028 C 
ATOM     12  C   LIG d   1       3.477  90.273 115.483  0.00  0.00     0.006 C 
ENDBRANCH   8  11
ENDBRANCH   7   8
ENDBRANCH   1   7
BRANCH   6  13
ATOM     13  N   LIG d   1       1.381  92.244 118.652  0.00  0.00    -0.311 N 
ATOM     14  C   LIG d   1       2.355  92.796 117.930  0.00  0.00     0.210 C 
ATOM     15  C   LIG d   1       3.743  92.756 118.577  0.00  0.00     0.109 C 
ATOM     16  O   LIG d   1       2.195  93.344 116.828  0.00  0.00    -0.276 OA
ATOM     17  H   LIG d   1       1.594  91.852 119.548  0.00  0.00     0.149 HD
ENDBRANCH   6  13
BRANCH   5  18
ATOM     18  N   LIG d   1      -0.942  93.798 119.886  0.00  0.00     0.381 N 
ATOM     19  H   LIG d   1      -1.804  94.047 120.328  0.00  0.00    -0.090 HD
ATOM     20  H   LIG d   1      -0.779  94.439 119.129  0.00  0.00    -0.090 HD
ATOM     21  H   LIG d   1      -0.196  93.853 120.544  0.00  0.00    -0.090 HD
ENDBRANCH   5  18
BRANCH   3  22
ATOM     22  C   LIG d   1      -3.901  90.444 118.176  0.00  0.00     0.382 C 
ATOM     23  O   LIG d   1      -4.843  90.959 117.527  0.00  0.00    -0.241 OA
ATOM     24  O   LIG d   1      -4.118  89.439 118.879  0.00  0.00    -0.241 OA
ENDBRANCH   3  22
TORSDOF 7
ENDMDL
MODEL 5
REMARK VINA RESULT:      -4.8      2.761      4.897
REMARK  7 active torsions:
REMARK  status: ('A' for Active; 'I' for Inactive)
REMARK    1  A    between atoms: C_2  and  C_3 
REMARK    2  A    between atoms: C_3  and  O_6 
REMARK    3  A    between atoms: C_3  and  C_4 
REMARK    4  A    between atoms: C_7  and  O_6 
REMARK    5  A    between atoms: C_9  and  C_10 
REMARK    6  A    between atoms: N_15  and  C_14 
REMARK    7  A    between atoms: N_20  and  C_19 
REMARK       I    between atoms: C_22  and  N_20 
ROOT
ATOM      1  C   LIG d   1      -3.702  91.329 118.146  0.00  0.00     0.161 C 
ATOM      2  C   LIG d   1      -4.498  91.413 116.991  0.00  0.00     0.016 C 
ATOM      3  C   LIG d   1      -5.911  91.370 117.015  0.00  0.00     0.038 C 
ATOM      4  C   LIG d   1      -6.633  91.393 118.218  0.00  0.00     0.028 C 
ATOM      5  C   LIG d   1      -5.867  90.800 119.395  0.00  0.00    -0.047 C 
ATOM      6  C   LIG d   1      -4.474  91.465 119.475  0.00  0.00     0.091 C 
ENDROOT
BRANCH   1   7
ATOM      7  O   LIG d   1      -2.642  92.303 118.080  0.00  0.00    -0.368 OA
BRANCH   7   8
ATOM      8  C   LIG d   1      -1.303  91.777 117.906  0.00  0.00     0.119 C 
BRANCH   8   9
ATOM      9  C   LIG d   1      -1.421  90.245 117.777  0.00  0.00     0.028 C 
ATOM     10  C   LIG d   1      -0.422  89.502 118.680  0.00  0.00     0.006 C 
ENDBRANCH   8   9
BRANCH   8  11
ATOM     11  C   LIG d   1      -0.445  92.014 119.152  0.00  0.00     0.028 C 
ATOM     12  C   LIG d   1       0.147  93.432 119.206  0.00  0.00     0.006 C 
ENDBRANCH   8  11
ENDBRANCH   7   8
ENDBRANCH   1   7
BRANCH   6  13
ATOM     13  N   LIG d   1      -3.628  90.882 120.548  0.00  0.00    -0.311 N 
ATOM     14  C   LIG d   1      -3.459  89.572 120.719  0.00  0.00     0.210 C 
ATOM     15  C   LIG d   1      -2.563  89.184 121.899  0.00  0.00     0.109 C 
ATOM     16  O   LIG d   1      -3.941  88.696 119.986  0.00  0.00    -0.276 OA
ATOM     17  H   LIG d   1      -3.174  91.523 121.170  0.00  0.00     0.149 HD
ENDBRANCH   6  13
BRANCH   5  18
ATOM     18  N   LIG d   1      -6.680  91.013 120.608  0.00  0.00     0.381 N 
ATOM     19  H   LIG d   1      -6.553  91.948 120.941  0.00  0.00    -0.090 HD
ATOM     20  H   LIG d   1      -6.369  90.379 121.323  0.00  0.00    -0.090 HD
ATOM     21  H   LIG d   1      -7.642  90.852 120.406  0.00  0.00    -0.090 HD
ENDBRANCH   5  18
BRANCH   3  22
ATOM     22  C   LIG d   1      -6.616  91.264 115.826  0.00  0.00     0.382 C 
ATOM     23  O   LIG d   1      -7.629  90.527 115.761  0.00  0.00    -0.241 OA
ATOM     24  O   LIG d   1      -6.226  91.861 114.805  0.00  0.00    -0.241 OA
ENDBRANCH   3  22
TORSDOF 7
ENDMDL
MODEL 6
REMARK VINA RESULT:      -4.6      4.010      7.045
REMARK  7 active torsions:
REMARK  status: ('A' for Active; 'I' for Inactive)
REMARK    1  A    between atoms: C_2  and  C_3 
REMARK    2  A    between atoms: C_3  and  O_6 
REMARK    3  A    between atoms: C_3  and  C_4 
REMARK    4  A    between atoms: C_7  and  O_6 
REMARK    5  A    between atoms: C_9  and  C_10 
REMARK    6  A    between atoms: N_15  and  C_14 
REMARK    7  A    between atoms: N_20  and  C_19 
REMARK       I    between atoms: C_22  and  N_20 
ROOT
ATOM      1  C   LIG d   1      -1.205  90.903 117.654  0.00  0.00     0.161 C 
ATOM      2  C   LIG d   1       0.145  91.273 117.764  0.00  0.00     0.016 C 
ATOM      3  C   LIG d   1       0.569  92.568 118.142  0.00  0.00     0.038 C 
ATOM      4  C   LIG d   1      -0.336  93.544 118.585  0.00  0.00     0.028 C 
ATOM      5  C   LIG d   1      -1.738  93.377 118.009  0.00  0.00    -0.047 C 
ATOM      6  C   LIG d   1      -2.205  91.921 118.241  0.00  0.00     0.091 C 
ENDROOT
BRANCH   1   7
ATOM      7  O   LIG d   1      -1.406  89.605 118.248  0.00  0.00    -0.368 OA
BRANCH   7   8
ATOM      8  C   LIG d   1      -0.914  89.439 119.600  0.00  0.00     0.119 C 
BRANCH   8   9
ATOM      9  C   LIG d   1      -0.306  88.027 119.702  0.00  0.00     0.028 C 
ATOM     10  C   LIG d   1       0.989  87.885 118.884  0.00  0.00     0.006 C 
ENDBRANCH   8   9
BRANCH   8  11
ATOM     11  C   LIG d   1      -2.059  89.462 120.617  0.00  0.00     0.028 C 
ATOM     12  C   LIG d   1      -3.325  88.758 120.104  0.00  0.00     0.006 C 
ENDBRANCH   8  11
ENDBRANCH   7   8
ENDBRANCH   1   7
BRANCH   6  13
ATOM     13  N   LIG d   1      -3.533  91.649 117.632  0.00  0.00    -0.311 N 
ATOM     14  C   LIG d   1      -4.680  91.746 118.303  0.00  0.00     0.210 C 
ATOM     15  C   LIG d   1      -5.934  91.402 117.492  0.00  0.00     0.109 C 
ATOM     16  O   LIG d   1      -4.781  92.115 119.482  0.00  0.00    -0.276 OA
ATOM     17  H   LIG d   1      -3.547  91.374 116.670  0.00  0.00     0.149 HD
ENDBRANCH   6  13
BRANCH   5  18
ATOM     18  N   LIG d   1      -2.609  94.374 118.659  0.00  0.00     0.381 N 
ATOM     19  H   LIG d   1      -2.158  95.267 118.660  0.00  0.00    -0.090 HD
ATOM     20  H   LIG d   1      -2.764  94.098 119.613  0.00  0.00    -0.090 HD
ATOM     21  H   LIG d   1      -3.478  94.433 118.177  0.00  0.00    -0.090 HD
ENDBRANCH   5  18
BRANCH   3  22
ATOM     22  C   LIG d   1       1.909  92.909 118.041  0.00  0.00     0.382 C 
ATOM     23  O   LIG d   1       2.388  93.247 116.932  0.00  0.00    -0.241 OA
ATOM     24  O   LIG d   1       2.655  92.841 119.036  0.00  0.00    -0.241 OA
ENDBRANCH   3  22
TORSDOF 7
ENDMDL
MODEL 7
REMARK VINA RESULT:      -4.5      2.397      4.894
REMARK  7 active torsions:
REMARK  status: ('A' for Active; 'I' for Inactive)
REMARK    1  A    between atoms: C_2  and  C_3 
REMARK    2  A    between atoms: C_3  and  O_6 
REMARK    3  A    between atoms: C_3  and  C_4 
REMARK    4  A    between atoms: C_7  and  O_6 
REMARK    5  A    between atoms: C_9  and  C_10 
REMARK    6  A    between atoms: N_15  and  C_14 
REMARK    7  A    between atoms: N_20  and  C_19 
REMARK       I    between atoms: C_22  and  N_20 
ROOT
ATOM      1  C   LIG d   1      -3.265  91.942 118.838  0.00  0.00     0.161 C 
ATOM      2  C   LIG d   1      -4.537  92.307 119.312  0.00  0.00     0.016 C 
ATOM      3  C   LIG d   1      -5.743  91.822 118.755  0.00  0.00     0.038 C 
ATOM      4  C   LIG d   1      -5.756  90.816 117.778  0.00  0.00     0.028 C 
ATOM      5  C   LIG d   1      -4.496  90.788 116.920  0.00  0.00    -0.047 C 
ATOM      6  C   LIG d   1      -3.259  90.761 117.846  0.00  0.00     0.091 C 
ENDROOT
BRANCH   1   7
ATOM      7  O   LIG d   1      -2.390  91.668 119.950  0.00  0.00    -0.368 OA
BRANCH   7   8
ATOM      8  C   LIG d   1      -1.513  92.748 120.353  0.00  0.00     0.119 C 
BRANCH   8   9
ATOM      9  C   LIG d   1      -1.502  93.785 119.213  0.00  0.00     0.028 C 
ATOM     10  C   LIG d   1      -1.906  95.189 119.692  0.00  0.00     0.006 C 
ENDBRANCH   8   9
BRANCH   8  11
ATOM     11  C   LIG d   1      -0.064  92.271 120.483  0.00  0.00     0.028 C 
ATOM     12  C   LIG d   1       0.848  92.828 119.377  0.00  0.00     0.006 C 
ENDBRANCH   8  11
ENDBRANCH   7   8
ENDBRANCH   1   7
BRANCH   6  13
ATOM     13  N   LIG d   1      -1.982  90.817 117.088  0.00  0.00    -0.311 N 
ATOM     14  C   LIG d   1      -0.880  90.168 117.459  0.00  0.00     0.210 C 
ATOM     15  C   LIG d   1       0.333  90.378 116.546  0.00  0.00     0.109 C 
ATOM     16  O   LIG d   1      -0.800  89.413 118.439  0.00  0.00    -0.276 OA
ATOM     17  H   LIG d   1      -1.967  91.382 116.261  0.00  0.00     0.149 HD
ENDBRANCH   6  13
BRANCH   5  18
ATOM     18  N   LIG d   1      -4.584  89.609 116.038  0.00  0.00     0.381 N 
ATOM     19  H   LIG d   1      -5.414  89.663 115.482  0.00  0.00    -0.090 HD
ATOM     20  H   LIG d   1      -4.638  88.781 116.605  0.00  0.00    -0.090 HD
ATOM     21  H   LIG d   1      -3.783  89.564 115.447  0.00  0.00    -0.090 HD
ENDBRANCH   5  18
BRANCH   3  22
ATOM     22  C   LIG d   1      -6.952  92.374 119.149  0.00  0.00     0.382 C 
ATOM     23  O   LIG d   1      -7.337  92.259 120.338  0.00  0.00    -0.241 OA
ATOM     24  O   LIG d   1      -7.684  92.948 118.320  0.00  0.00    -0.241 OA
ENDBRANCH   3  22
TORSDOF 7
ENDMDL
MODEL 8
REMARK VINA RESULT:      -4.5      3.679      6.321
REMARK  7 active torsions:
REMARK  status: ('A' for Active; 'I' for Inactive)
REMARK    1  A    between atoms: C_2  and  C_3 
REMARK    2  A    between atoms: C_3  and  O_6 
REMARK    3  A    between atoms: C_3  and  C_4 
REMARK    4  A    between atoms: C_7  and  O_6 
REMARK    5  A    between atoms: C_9  and  C_10 
REMARK    6  A    between atoms: N_15  and  C_14 
REMARK    7  A    between atoms: N_20  and  C_19 
REMARK       I    between atoms: C_22  and  N_20 
ROOT
ATOM      1  C   LIG d   1      -1.651  91.362 118.328  0.00  0.00     0.161 C 
ATOM      2  C   LIG d   1      -2.269  92.530 118.803  0.00  0.00     0.016 C 
ATOM      3  C   LIG d   1      -1.621  93.786 118.859  0.00  0.00     0.038 C 
ATOM      4  C   LIG d   1      -0.351  93.990 118.299  0.00  0.00     0.028 C 
ATOM      5  C   LIG d   1       0.507  92.730 118.266  0.00  0.00    -0.047 C 
ATOM      6  C   LIG d   1      -0.304  91.588 117.610  0.00  0.00     0.091 C 
ENDROOT
BRANCH   1   7
ATOM      7  O   LIG d   1      -2.560  90.641 117.472  0.00  0.00    -0.368 OA
BRANCH   7   8
ATOM      8  C   LIG d   1      -3.962  90.710 117.831  0.00  0.00     0.119 C 
BRANCH   8   9
ATOM      9  C   LIG d   1      -4.203  89.682 118.954  0.00  0.00     0.028 C 
ATOM     10  C   LIG d   1      -5.137  90.220 120.051  0.00  0.00     0.006 C 
ENDBRANCH   8   9
BRANCH   8  11
ATOM     11  C   LIG d   1      -4.856  90.261 116.671  0.00  0.00     0.028 C 
ATOM     12  C   LIG d   1      -5.831  91.357 116.212  0.00  0.00     0.006 C 
ENDBRANCH   8  11
ENDBRANCH   7   8
ENDBRANCH   1   7
BRANCH   6  13
ATOM     13  N   LIG d   1       0.431  90.297 117.613  0.00  0.00    -0.311 N 
ATOM     14  C   LIG d   1       1.125  89.845 116.570  0.00  0.00     0.210 C 
ATOM     15  C   LIG d   1       1.791  88.481 116.778  0.00  0.00     0.109 C 
ATOM     16  O   LIG d   1       1.280  90.460 115.504  0.00  0.00    -0.276 OA
ATOM     17  H   LIG d   1       0.385  89.748 118.450  0.00  0.00     0.149 HD
ENDBRANCH   6  13
BRANCH   5  18
ATOM     18  N   LIG d   1       1.746  93.053 117.534  0.00  0.00     0.381 N 
ATOM     19  H   LIG d   1       1.520  93.413 116.628  0.00  0.00    -0.090 HD
ATOM     20  H   LIG d   1       2.282  92.211 117.414  0.00  0.00    -0.090 HD
ATOM     21  H   LIG d   1       2.278  93.724 118.044  0.00  0.00    -0.090 HD
ENDBRANCH   5  18
BRANCH   3  22
ATOM     22  C   LIG d   1      -2.229  94.844 119.517  0.00  0.00     0.382 C 
ATOM     23  O   LIG d   1      -1.602  95.917 119.691  0.00  0.00    -0.241 OA
ATOM     24  O   LIG d   1      -3.380  94.724 119.977  0.00  0.00    -0.241 OA
ENDBRANCH   3  22
TORSDOF 7
ENDMDL
MODEL 9
REMARK VINA RESULT:      -4.5      3.119      6.127
REMARK  7 active torsions:
REMARK  status: ('A' for Active; 'I' for Inactive)
REMARK    1  A    between atoms: C_2  and  C_3 
REMARK    2  A    between atoms: C_3  and  O_6 
REMARK    3  A    between atoms: C_3  and  C_4 
REMARK    4  A    between atoms: C_7  and  O_6 
REMARK    5  A    between atoms: C_9  and  C_10 
REMARK    6  A    between atoms: N_15  and  C_14 
REMARK    7  A    between atoms: N_20  and  C_19 
REMARK       I    between atoms: C_22  and  N_20 
ROOT
ATOM      1  C   LIG d   1      -2.099  92.809 118.427  0.00  0.00     0.161 C 
ATOM      2  C   LIG d   1      -0.803  92.391 118.083  0.00  0.00     0.016 C 
ATOM      3  C   LIG d   1       0.369  93.038 118.538  0.00  0.00     0.038 C 
ATOM      4  C   LIG d   1       0.327  94.062 119.496  0.00  0.00     0.028 C 
ATOM      5  C   LIG d   1      -0.981  94.848 119.485  0.00  0.00    -0.047 C 
ATOM      6  C   LIG d   1      -2.163  93.855 119.559  0.00  0.00     0.091 C 
ENDROOT
BRANCH   1   7
ATOM      7  O   LIG d   1      -2.910  91.664 118.757  0.00  0.00    -0.368 OA
BRANCH   7   8
ATOM      8  C   LIG d   1      -4.109  91.482 117.964  0.00  0.00     0.119 C 
BRANCH   8   9
ATOM      9  C   LIG d   1      -5.296  91.366 118.940  0.00  0.00     0.028 C 
ATOM     10  C   LIG d   1      -6.475  92.270 118.541  0.00  0.00     0.006 C 
ENDBRANCH   8   9
BRANCH   8  11
ATOM     11  C   LIG d   1      -4.079  90.154 117.203  0.00  0.00     0.028 C 
ATOM     12  C   LIG d   1      -5.066  90.119 116.025  0.00  0.00     0.006 C 
ENDBRANCH   8  11
ENDBRANCH   7   8
ENDBRANCH   1   7
BRANCH   6  13
ATOM     13  N   LIG d   1      -3.481  94.536 119.469  0.00  0.00    -0.311 N 
ATOM     14  C   LIG d   1      -4.202  94.883 120.534  0.00  0.00     0.210 C 
ATOM     15  C   LIG d   1      -5.541  95.556 120.217  0.00  0.00     0.109 C 
ATOM     16  O   LIG d   1      -3.844  94.725 121.711  0.00  0.00    -0.276 OA
ATOM     17  H   LIG d   1      -3.832  94.730 118.552  0.00  0.00     0.149 HD
ENDBRANCH   6  13
BRANCH   5  18
ATOM     18  N   LIG d   1      -0.944  95.789 120.620  0.00  0.00     0.381 N 
ATOM     19  H   LIG d   1      -1.844  95.830 121.056  0.00  0.00    -0.090 HD
ATOM     20  H   LIG d   1      -0.720  96.706 120.275  0.00  0.00    -0.090 HD
ATOM     21  H   LIG d   1      -0.259  95.499 121.282  0.00  0.00    -0.090 HD
ENDBRANCH   5  18
BRANCH   3  22
ATOM     22  C   LIG d   1       1.599  92.688 118.003  0.00  0.00     0.382 C 
ATOM     23  O   LIG d   1       2.310  91.826 118.575  0.00  0.00    -0.241 OA
ATOM     24  O   LIG d   1       2.028  93.254 116.980  0.00  0.00    -0.241 OA
ENDBRANCH   3  22
TORSDOF 7
ENDMDL
