MODEL 1
REMARK VINA RESULT:      -5.4      0.000      0.000
REMARK  7 active torsions:
REMARK  status: ('A' for Active; 'I' for Inactive)
REMARK    1  A    between atoms: C_2  and  C_3 
REMARK    2  A    between atoms: C_3  and  O_6 
REMARK    3  A    between atoms: C_3  and  C_4 
REMARK    4  A    between atoms: C_7  and  O_6 
REMARK    5  A    between atoms: C_9  and  C_10 
REMARK    6  A    between atoms: N_15  and  C_14 
REMARK    7  A    between atoms: N_20  and  C_19 
REMARK       I    between atoms: C_22  and  N_20 
ROOT
ATOM      1  C   LIG d   1      -3.333  91.335 118.027  0.00  0.00     0.161 C 
ATOM      2  C   LIG d   1      -3.867  90.522 117.014  0.00  0.00     0.016 C 
ATOM      3  C   LIG d   1      -5.139  90.734 116.435  0.00  0.00     0.038 C 
ATOM      4  C   LIG d   1      -5.906  91.872 116.727  0.00  0.00     0.028 C 
ATOM      5  C   LIG d   1      -5.631  92.449 118.111  0.00  0.00    -0.047 C 
ATOM      6  C   LIG d   1      -4.107  92.646 118.279  0.00  0.00     0.091 C 
ENDROOT
BRANCH   1   7
ATOM      7  O   LIG d   1      -1.947  91.617 117.747  0.00  0.00    -0.368 OA
BRANCH   7   8
ATOM      8  C   LIG d   1      -0.997  91.211 118.762  0.00  0.00     0.119 C 
BRANCH   8   9
ATOM      9  C   LIG d   1       0.260  92.086 118.596  0.00  0.00     0.028 C 
ATOM     10  C   LIG d   1       0.098  93.143 117.491  0.00  0.00     0.006 C 
ENDBRANCH   8   9
BRANCH   8  11
ATOM     11  C   LIG d   1      -0.522  89.772 118.537  0.00  0.00     0.028 C 
ATOM     12  C   LIG d   1      -0.295  89.445 117.053  0.00  0.00     0.006 C 
ENDBRANCH   8  11
ENDBRANCH   7   8
ENDBRANCH   1   7
BRANCH   6  13
ATOM     13  N   LIG d   1      -3.744  93.128 119.637  0.00  0.00    -0.311 N 
ATOM     14  C   LIG d   1      -2.989  94.203 119.856  0.00  0.00     0.210 C 
ATOM     15  C   LIG d   1      -2.719  94.514 121.331  0.00  0.00     0.109 C 
ATOM     16  O   LIG d   1      -2.545  94.948 118.969  0.00  0.00    -0.276 OA
ATOM     17  H   LIG d   1      -4.088  92.601 120.416  0.00  0.00     0.149 HD
ENDBRANCH   6  13
BRANCH   5  18
ATOM     18  N   LIG d   1      -6.393  93.707 118.229  0.00  0.00     0.381 N 
ATOM     19  H   LIG d   1      -5.927  94.434 117.724  0.00  0.00    -0.090 HD
ATOM     20  H   LIG d   1      -6.434  93.972 119.198  0.00  0.00    -0.090 HD
ATOM     21  H   LIG d   1      -7.314  93.582 117.872  0.00  0.00    -0.090 HD
ENDBRANCH   5  18
BRANCH   3  22
ATOM     22  C   LIG d   1      -5.675  89.780 115.583  0.00  0.00     0.382 C 
ATOM     23  O   LIG d   1      -6.905  89.538 115.607  0.00  0.00    -0.241 OA
ATOM     24  O   LIG d   1      -4.936  89.128 114.821  0.00  0.00    -0.241 OA
ENDBRANCH   3  22
TORSDOF 7
ENDMDL
MODEL 2
REMARK VINA RESULT:      -5.0      2.112      4.214
REMARK  7 active torsions:
REMARK  status: ('A' for Active; 'I' for Inactive)
REMARK    1  A    between atoms: C_2  and  C_3 
REMARK    2  A    between atoms: C_3  and  O_6 
REMARK    3  A    between atoms: C_3  and  C_4 
REMARK    4  A    between atoms: C_7  and  O_6 
REMARK    5  A    between atoms: C_9  and  C_10 
REMARK    6  A    between atoms: N_15  and  C_14 
REMARK    7  A    between atoms: N_20  and  C_19 
REMARK       I    between atoms: C_22  and  N_20 
ROOT
ATOM      1  C   LIG d   1      -3.400  92.223 118.202  0.00  0.00     0.161 C 
ATOM      2  C   LIG d   1      -4.517  91.952 117.396  0.00  0.00     0.016 C 
ATOM      3  C   LIG d   1      -4.646  90.783 116.611  0.00  0.00     0.038 C 
ATOM      4  C   LIG d   1      -3.726  89.727 116.698  0.00  0.00     0.028 C 
ATOM      5  C   LIG d   1      -2.329  90.174 117.114  0.00  0.00    -0.047 C 
ATOM      6  C   LIG d   1      -2.437  91.032 118.395  0.00  0.00     0.091 C 
ENDROOT
BRANCH   1   7
ATOM      7  O   LIG d   1      -3.831  92.731 119.481  0.00  0.00    -0.368 OA
BRANCH   7   8
ATOM      8  C   LIG d   1      -3.603  94.142 119.716  0.00  0.00     0.119 C 
BRANCH   8   9
ATOM      9  C   LIG d   1      -2.762  94.267 121.001  0.00  0.00     0.028 C 
ATOM     10  C   LIG d   1      -2.741  92.964 121.818  0.00  0.00     0.006 C 
ENDBRANCH   8   9
BRANCH   8  11
ATOM     11  C   LIG d   1      -4.913  94.876 120.016  0.00  0.00     0.028 C 
ATOM     12  C   LIG d   1      -6.085  93.919 120.282  0.00  0.00     0.006 C 
ENDBRANCH   8  11
ENDBRANCH   7   8
ENDBRANCH   1   7
BRANCH   6  13
ATOM     13  N   LIG d   1      -1.124  91.580 118.824  0.00  0.00    -0.311 N 
ATOM     14  C   LIG d   1      -0.336  90.982 119.716  0.00  0.00     0.210 C 
ATOM     15  C   LIG d   1       0.966  91.726 120.030  0.00  0.00     0.109 C 
ATOM     16  O   LIG d   1      -0.576  89.890 120.252  0.00  0.00    -0.276 OA
ATOM     17  H   LIG d   1      -0.836  92.448 118.415  0.00  0.00     0.149 HD
ENDBRANCH   6  13
BRANCH   5  18
ATOM     18  N   LIG d   1      -1.509  88.961 117.299  0.00  0.00     0.381 N 
ATOM     19  H   LIG d   1      -1.738  88.527 118.170  0.00  0.00    -0.090 HD
ATOM     20  H   LIG d   1      -0.540  89.224 117.322  0.00  0.00    -0.090 HD
ATOM     21  H   LIG d   1      -1.670  88.324 116.550  0.00  0.00    -0.090 HD
ENDBRANCH   5  18
BRANCH   3  22
ATOM     22  C   LIG d   1      -5.684  90.679 115.698  0.00  0.00     0.382 C 
ATOM     23  O   LIG d   1      -6.086  91.699 115.087  0.00  0.00    -0.241 OA
ATOM     24  O   LIG d   1      -6.252  89.587 115.509  0.00  0.00    -0.241 OA
ENDBRANCH   3  22
TORSDOF 7
ENDMDL
MODEL 3
REMARK VINA RESULT:      -4.9      1.414      1.807
REMARK  7 active torsions:
REMARK  status: ('A' for Active; 'I' for Inactive)
REMARK    1  A    between atoms: C_2  and  C_3 
REMARK    2  A    between atoms: C_3  and  O_6 
REMARK    3  A    between atoms: C_3  and  C_4 
REMARK    4  A    between atoms: C_7  and  O_6 
REMARK    5  A    between atoms: C_9  and  C_10 
REMARK    6  A    between atoms: N_15  and  C_14 
REMARK    7  A    between atoms: N_20  and  C_19 
REMARK       I    between atoms: C_22  and  N_20 
ROOT
ATOM      1  C   LIG d   1      -2.625  90.694 117.944  0.00  0.00     0.161 C 
ATOM      2  C   LIG d   1      -3.454  90.151 116.949  0.00  0.00     0.016 C 
ATOM      3  C   LIG d   1      -4.688  90.726 116.565  0.00  0.00     0.038 C 
ATOM      4  C   LIG d   1      -5.107  91.974 117.048  0.00  0.00     0.028 C 
ATOM      5  C   LIG d   1      -4.545  92.310 118.426  0.00  0.00    -0.047 C 
ATOM      6  C   LIG d   1      -3.012  92.116 118.404  0.00  0.00     0.091 C 
ENDROOT
BRANCH   1   7
ATOM      7  O   LIG d   1      -1.252  90.666 117.506  0.00  0.00    -0.368 OA
BRANCH   7   8
ATOM      8  C   LIG d   1      -0.443  89.578 118.015  0.00  0.00     0.119 C 
BRANCH   8   9
ATOM      9  C   LIG d   1       0.821  90.196 118.644  0.00  0.00     0.028 C 
ATOM     10  C   LIG d   1       0.800  90.137 120.181  0.00  0.00     0.006 C 
ENDBRANCH   8   9
BRANCH   8  11
ATOM     11  C   LIG d   1       0.065  88.683 116.880  0.00  0.00     0.028 C 
ATOM     12  C   LIG d   1       1.495  89.035 116.439  0.00  0.00     0.006 C 
ENDBRANCH   8  11
ENDBRANCH   7   8
ENDBRANCH   1   7
BRANCH   6  13
ATOM     13  N   LIG d   1      -2.393  92.342 119.736  0.00  0.00    -0.311 N 
ATOM     14  C   LIG d   1      -1.383  93.186 119.941  0.00  0.00     0.210 C 
ATOM     15  C   LIG d   1      -0.881  93.253 121.387  0.00  0.00     0.109 C 
ATOM     16  O   LIG d   1      -0.877  93.908 119.070  0.00  0.00    -0.276 OA
ATOM     17  H   LIG d   1      -2.763  91.819 120.506  0.00  0.00     0.149 HD
ENDBRANCH   6  13
BRANCH   5  18
ATOM     18  N   LIG d   1      -4.949  93.692 118.747  0.00  0.00     0.381 N 
ATOM     19  H   LIG d   1      -5.476  93.702 119.597  0.00  0.00    -0.090 HD
ATOM     20  H   LIG d   1      -5.535  94.039 118.008  0.00  0.00    -0.090 HD
ATOM     21  H   LIG d   1      -4.142  94.269 118.840  0.00  0.00    -0.090 HD
ENDBRANCH   5  18
BRANCH   3  22
ATOM     22  C   LIG d   1      -5.536  90.029 115.717  0.00  0.00     0.382 C 
ATOM     23  O   LIG d   1      -5.080  89.119 114.983  0.00  0.00    -0.241 OA
ATOM     24  O   LIG d   1      -6.742  90.329 115.644  0.00  0.00    -0.241 OA
ENDBRANCH   3  22
TORSDOF 7
ENDMDL
MODEL 4
REMARK VINA RESULT:      -4.5      4.460      6.958
REMARK  7 active torsions:
REMARK  status: ('A' for Active; 'I' for Inactive)
REMARK    1  A    between atoms: C_2  and  C_3 
REMARK    2  A    between atoms: C_3  and  O_6 
REMARK    3  A    between atoms: C_3  and  C_4 
REMARK    4  A    between atoms: C_7  and  O_6 
REMARK    5  A    between atoms: C_9  and  C_10 
REMARK    6  A    between atoms: N_15  and  C_14 
REMARK    7  A    between atoms: N_20  and  C_19 
REMARK       I    between atoms: C_22  and  N_20 
ROOT
ATOM      1  C   LIG d   1       1.103  88.529 116.498  0.00  0.00     0.161 C 
ATOM      2  C   LIG d   1      -0.259  88.717 116.783  0.00  0.00     0.016 C 
ATOM      3  C   LIG d   1      -0.797  89.941 117.243  0.00  0.00     0.038 C 
ATOM      4  C   LIG d   1      -0.027  91.112 117.305  0.00  0.00     0.028 C 
ATOM      5  C   LIG d   1       1.461  90.848 117.509  0.00  0.00    -0.047 C 
ATOM      6  C   LIG d   1       1.939  89.826 116.453  0.00  0.00     0.091 C 
ENDROOT
BRANCH   1   7
ATOM      7  O   LIG d   1       1.248  87.797 115.264  0.00  0.00    -0.368 OA
BRANCH   7   8
ATOM      8  C   LIG d   1       1.511  86.378 115.393  0.00  0.00     0.119 C 
BRANCH   8   9
ATOM      9  C   LIG d   1       2.963  86.133 114.939  0.00  0.00     0.028 C 
ATOM     10  C   LIG d   1       3.905  85.844 116.119  0.00  0.00     0.006 C 
ENDBRANCH   8   9
BRANCH   8  11
ATOM     11  C   LIG d   1       0.642  85.562 114.431  0.00  0.00     0.028 C 
ATOM     12  C   LIG d   1      -0.850  85.600 114.798  0.00  0.00     0.006 C 
ENDBRANCH   8  11
ENDBRANCH   7   8
ENDBRANCH   1   7
BRANCH   6  13
ATOM     13  N   LIG d   1       3.365  89.448 116.635  0.00  0.00    -0.311 N 
ATOM     14  C   LIG d   1       4.298  89.639 115.704  0.00  0.00     0.210 C 
ATOM     15  C   LIG d   1       5.702  89.159 116.087  0.00  0.00     0.109 C 
ATOM     16  O   LIG d   1       4.104  90.190 114.610  0.00  0.00    -0.276 OA
ATOM     17  H   LIG d   1       3.617  89.023 117.505  0.00  0.00     0.149 HD
ENDBRANCH   6  13
BRANCH   5  18
ATOM     18  N   LIG d   1       2.160  92.144 117.417  0.00  0.00     0.381 N 
ATOM     19  H   LIG d   1       2.547  92.256 116.501  0.00  0.00    -0.090 HD
ATOM     20  H   LIG d   1       2.914  92.155 118.081  0.00  0.00    -0.090 HD
ATOM     21  H   LIG d   1       1.527  92.888 117.611  0.00  0.00    -0.090 HD
ENDBRANCH   5  18
BRANCH   3  22
ATOM     22  C   LIG d   1      -2.110  89.992 117.685  0.00  0.00     0.382 C 
ATOM     23  O   LIG d   1      -2.788  88.939 117.759  0.00  0.00    -0.241 OA
ATOM     24  O   LIG d   1      -2.639  91.084 117.968  0.00  0.00    -0.241 OA
ENDBRANCH   3  22
TORSDOF 7
ENDMDL
MODEL 5
REMARK VINA RESULT:      -4.5      3.823      5.840
REMARK  7 active torsions:
REMARK  status: ('A' for Active; 'I' for Inactive)
REMARK    1  A    between atoms: C_2  and  C_3 
REMARK    2  A    between atoms: C_3  and  O_6 
REMARK    3  A    between atoms: C_3  and  C_4 
REMARK    4  A    between atoms: C_7  and  O_6 
REMARK    5  A    between atoms: C_9  and  C_10 
REMARK    6  A    between atoms: N_15  and  C_14 
REMARK    7  A    between atoms: N_20  and  C_19 
REMARK       I    between atoms: C_22  and  N_20 
ROOT
ATOM      1  C   LIG d   1       1.092  89.778 116.977  0.00  0.00     0.161 C 
ATOM      2  C   LIG d   1      -0.293  89.568 116.883  0.00  0.00     0.016 C 
ATOM      3  C   LIG d   1      -1.251  90.408 117.497  0.00  0.00     0.038 C 
ATOM      4  C   LIG d   1      -0.890  91.610 118.124  0.00  0.00     0.028 C 
ATOM      5  C   LIG d   1       0.531  91.601 118.678  0.00  0.00    -0.047 C 
ATOM      6  C   LIG d   1       1.501  91.146 117.563  0.00  0.00     0.091 C 
ENDROOT
BRANCH   1   7
ATOM      7  O   LIG d   1       1.704  89.583 115.686  0.00  0.00    -0.368 OA
BRANCH   7   8
ATOM      8  C   LIG d   1       2.731  88.564 115.615  0.00  0.00     0.119 C 
BRANCH   8   9
ATOM      9  C   LIG d   1       3.773  89.027 114.579  0.00  0.00     0.028 C 
ATOM     10  C   LIG d   1       5.207  88.994 115.133  0.00  0.00     0.006 C 
ENDBRANCH   8   9
BRANCH   8  11
ATOM     11  C   LIG d   1       2.172  87.247 115.068  0.00  0.00     0.028 C 
ATOM     12  C   LIG d   1       1.812  86.246 116.176  0.00  0.00     0.006 C 
ENDBRANCH   8  11
ENDBRANCH   7   8
ENDBRANCH   1   7
BRANCH   6  13
ATOM     13  N   LIG d   1       2.902  91.028 118.045  0.00  0.00    -0.311 N 
ATOM     14  C   LIG d   1       3.929  91.653 117.471  0.00  0.00     0.210 C 
ATOM     15  C   LIG d   1       5.293  91.379 118.113  0.00  0.00     0.109 C 
ATOM     16  O   LIG d   1       3.836  92.433 116.512  0.00  0.00    -0.276 OA
ATOM     17  H   LIG d   1       3.064  90.439 118.838  0.00  0.00     0.149 HD
ENDBRANCH   6  13
BRANCH   5  18
ATOM     18  N   LIG d   1       0.822  92.957 119.180  0.00  0.00     0.381 N 
ATOM     19  H   LIG d   1       1.290  93.487 118.471  0.00  0.00    -0.090 HD
ATOM     20  H   LIG d   1       1.433  92.885 119.974  0.00  0.00    -0.090 HD
ATOM     21  H   LIG d   1      -0.024  93.412 119.442  0.00  0.00    -0.090 HD
ENDBRANCH   5  18
BRANCH   3  22
ATOM     22  C   LIG d   1      -2.584  90.027 117.521  0.00  0.00     0.382 C 
ATOM     23  O   LIG d   1      -2.890  88.812 117.468  0.00  0.00    -0.241 OA
ATOM     24  O   LIG d   1      -3.486  90.886 117.550  0.00  0.00    -0.241 OA
ENDBRANCH   3  22
TORSDOF 7
ENDMDL
MODEL 6
REMARK VINA RESULT:      -4.5      2.713      5.515
REMARK  7 active torsions:
REMARK  status: ('A' for Active; 'I' for Inactive)
REMARK    1  A    between atoms: C_2  and  C_3 
REMARK    2  A    between atoms: C_3  and  O_6 
REMARK    3  A    between atoms: C_3  and  C_4 
REMARK    4  A    between atoms: C_7  and  O_6 
REMARK    5  A    between atoms: C_9  and  C_10 
REMARK    6  A    between atoms: N_15  and  C_14 
REMARK    7  A    between atoms: N_20  and  C_19 
REMARK       I    between atoms: C_22  and  N_20 
ROOT
ATOM      1  C   LIG d   1      -0.708  93.404 117.900  0.00  0.00     0.161 C 
ATOM      2  C   LIG d   1       0.216  92.691 117.118  0.00  0.00     0.016 C 
ATOM      3  C   LIG d   1       1.370  92.071 117.650  0.00  0.00     0.038 C 
ATOM      4  C   LIG d   1       1.600  91.992 119.031  0.00  0.00     0.028 C 
ATOM      5  C   LIG d   1       0.958  93.131 119.818  0.00  0.00    -0.047 C 
ATOM      6  C   LIG d   1      -0.533  93.234 119.423  0.00  0.00     0.091 C 
ENDROOT
BRANCH   1   7
ATOM      7  O   LIG d   1      -2.051  93.055 117.508  0.00  0.00    -0.368 OA
BRANCH   7   8
ATOM      8  C   LIG d   1      -2.739  92.110 118.363  0.00  0.00     0.119 C 
BRANCH   8   9
ATOM      9  C   LIG d   1      -2.639  90.724 117.696  0.00  0.00     0.028 C 
ATOM     10  C   LIG d   1      -1.754  89.752 118.495  0.00  0.00     0.006 C 
ENDBRANCH   8   9
BRANCH   8  11
ATOM     11  C   LIG d   1      -4.238  92.416 118.438  0.00  0.00     0.028 C 
ATOM     12  C   LIG d   1      -5.021  91.861 117.237  0.00  0.00     0.006 C 
ENDBRANCH   8  11
ENDBRANCH   7   8
ENDBRANCH   1   7
BRANCH   6  13
ATOM     13  N   LIG d   1      -1.216  94.377 120.084  0.00  0.00    -0.311 N 
ATOM     14  C   LIG d   1      -1.903  94.263 121.220  0.00  0.00     0.210 C 
ATOM     15  C   LIG d   1      -2.545  95.561 121.720  0.00  0.00     0.109 C 
ATOM     16  O   LIG d   1      -2.014  93.218 121.877  0.00  0.00    -0.276 OA
ATOM     17  H   LIG d   1      -1.151  95.269 119.635  0.00  0.00     0.149 HD
ENDBRANCH   6  13
BRANCH   5  18
ATOM     18  N   LIG d   1       1.158  92.850 121.252  0.00  0.00     0.381 N 
ATOM     19  H   LIG d   1       1.567  91.944 121.366  0.00  0.00    -0.090 HD
ATOM     20  H   LIG d   1       0.265  92.853 121.712  0.00  0.00    -0.090 HD
ATOM     21  H   LIG d   1       1.750  93.543 121.655  0.00  0.00    -0.090 HD
ENDBRANCH   5  18
BRANCH   3  22
ATOM     22  C   LIG d   1       2.330  91.555 116.792  0.00  0.00     0.382 C 
ATOM     23  O   LIG d   1       2.223  90.380 116.366  0.00  0.00    -0.241 OA
ATOM     24  O   LIG d   1       3.324  92.235 116.475  0.00  0.00    -0.241 OA
ENDBRANCH   3  22
TORSDOF 7
ENDMDL
MODEL 7
REMARK VINA RESULT:      -4.5      4.640      7.587
REMARK  7 active torsions:
REMARK  status: ('A' for Active; 'I' for Inactive)
REMARK    1  A    between atoms: C_2  and  C_3 
REMARK    2  A    between atoms: C_3  and  O_6 
REMARK    3  A    between atoms: C_3  and  C_4 
REMARK    4  A    between atoms: C_7  and  O_6 
REMARK    5  A    between atoms: C_9  and  C_10 
REMARK    6  A    between atoms: N_15  and  C_14 
REMARK    7  A    between atoms: N_20  and  C_19 
REMARK       I    between atoms: C_22  and  N_20 
ROOT
ATOM      1  C   LIG d   1       2.259  90.865 116.001  0.00  0.00     0.161 C 
ATOM      2  C   LIG d   1       3.423  90.214 115.560  0.00  0.00     0.016 C 
ATOM      3  C   LIG d   1       4.653  90.263 116.256  0.00  0.00     0.038 C 
ATOM      4  C   LIG d   1       4.762  90.845 117.528  0.00  0.00     0.028 C 
ATOM      5  C   LIG d   1       3.740  91.948 117.779  0.00  0.00    -0.047 C 
ATOM      6  C   LIG d   1       2.330  91.412 117.442  0.00  0.00     0.091 C 
ENDROOT
BRANCH   1   7
ATOM      7  O   LIG d   1       1.124  89.989 115.853  0.00  0.00    -0.368 OA
BRANCH   7   8
ATOM      8  C   LIG d   1       0.756  89.219 117.023  0.00  0.00     0.119 C 
BRANCH   8   9
ATOM      9  C   LIG d   1       1.331  87.800 116.843  0.00  0.00     0.028 C 
ATOM     10  C   LIG d   1       2.400  87.462 117.896  0.00  0.00     0.006 C 
ENDBRANCH   8   9
BRANCH   8  11
ATOM     11  C   LIG d   1      -0.761  89.033 117.115  0.00  0.00     0.028 C 
ATOM     12  C   LIG d   1      -1.360  89.643 118.392  0.00  0.00     0.006 C 
ENDBRANCH   8  11
ENDBRANCH   7   8
ENDBRANCH   1   7
BRANCH   6  13
ATOM     13  N   LIG d   1       1.280  92.455 117.579  0.00  0.00    -0.311 N 
ATOM     14  C   LIG d   1       0.616  92.681 118.712  0.00  0.00     0.210 C 
ATOM     15  C   LIG d   1      -0.440  93.788 118.632  0.00  0.00     0.109 C 
ATOM     16  O   LIG d   1       0.824  92.093 119.783  0.00  0.00    -0.276 OA
ATOM     17  H   LIG d   1       1.069  93.000 116.767  0.00  0.00     0.149 HD
ENDBRANCH   6  13
BRANCH   5  18
ATOM     18  N   LIG d   1       3.877  92.371 119.185  0.00  0.00     0.381 N 
ATOM     19  H   LIG d   1       4.756  92.060 119.549  0.00  0.00    -0.090 HD
ATOM     20  H   LIG d   1       3.144  91.945 119.726  0.00  0.00    -0.090 HD
ATOM     21  H   LIG d   1       3.815  93.363 119.251  0.00  0.00    -0.090 HD
ENDBRANCH   5  18
BRANCH   3  22
ATOM     22  C   LIG d   1       5.800  89.759 115.661  0.00  0.00     0.382 C 
ATOM     23  O   LIG d   1       6.929  90.145 116.049  0.00  0.00    -0.241 OA
ATOM     24  O   LIG d   1       5.719  88.957 114.712  0.00  0.00    -0.241 OA
ENDBRANCH   3  22
TORSDOF 7
ENDMDL
MODEL 8
REMARK VINA RESULT:      -4.4      2.551      4.466
REMARK  7 active torsions:
REMARK  status: ('A' for Active; 'I' for Inactive)
REMARK    1  A    between atoms: C_2  and  C_3 
REMARK    2  A    between atoms: C_3  and  O_6 
REMARK    3  A    between atoms: C_3  and  C_4 
REMARK    4  A    between atoms: C_7  and  O_6 
REMARK    5  A    between atoms: C_9  and  C_10 
REMARK    6  A    between atoms: N_15  and  C_14 
REMARK    7  A    between atoms: N_20  and  C_19 
REMARK       I    between atoms: C_22  and  N_20 
ROOT
ATOM      1  C   LIG d   1      -4.085  93.046 119.074  0.00  0.00     0.161 C 
ATOM      2  C   LIG d   1      -5.457  93.341 119.110  0.00  0.00     0.016 C 
ATOM      3  C   LIG d   1      -5.978  94.559 119.604  0.00  0.00     0.038 C 
ATOM      4  C   LIG d   1      -5.146  95.632 119.958  0.00  0.00     0.028 C 
ATOM      5  C   LIG d   1      -3.757  95.197 120.413  0.00  0.00    -0.047 C 
ATOM      6  C   LIG d   1      -3.157  94.247 119.352  0.00  0.00     0.091 C 
ENDROOT
BRANCH   1   7
ATOM      7  O   LIG d   1      -3.750  92.436 117.812  0.00  0.00    -0.368 OA
BRANCH   7   8
ATOM      8  C   LIG d   1      -3.720  90.987 117.791  0.00  0.00     0.119 C 
BRANCH   8   9
ATOM      9  C   LIG d   1      -2.242  90.555 117.728  0.00  0.00     0.028 C 
ATOM     10  C   LIG d   1      -2.082  89.043 117.498  0.00  0.00     0.006 C 
ENDBRANCH   8   9
BRANCH   8  11
ATOM     11  C   LIG d   1      -4.360  90.435 116.514  0.00  0.00     0.028 C 
ATOM     12  C   LIG d   1      -5.636  91.190 116.112  0.00  0.00     0.006 C 
ENDBRANCH   8  11
ENDBRANCH   7   8
ENDBRANCH   1   7
BRANCH   6  13
ATOM     13  N   LIG d   1      -1.833  93.707 119.759  0.00  0.00    -0.311 N 
ATOM     14  C   LIG d   1      -0.710  93.931 119.078  0.00  0.00     0.210 C 
ATOM     15  C   LIG d   1       0.542  93.266 119.659  0.00  0.00     0.109 C 
ATOM     16  O   LIG d   1      -0.626  94.644 118.067  0.00  0.00    -0.276 OA
ATOM     17  H   LIG d   1      -1.804  93.144 120.586  0.00  0.00     0.149 HD
ENDBRANCH   6  13
BRANCH   5  18
ATOM     18  N   LIG d   1      -2.953  96.416 120.618  0.00  0.00     0.381 N 
ATOM     19  H   LIG d   1      -3.393  97.192 120.165  0.00  0.00    -0.090 HD
ATOM     20  H   LIG d   1      -2.047  96.282 120.206  0.00  0.00    -0.090 HD
ATOM     21  H   LIG d   1      -2.858  96.602 121.593  0.00  0.00    -0.090 HD
ENDBRANCH   5  18
BRANCH   3  22
ATOM     22  C   LIG d   1      -7.346  94.699 119.786  0.00  0.00     0.382 C 
ATOM     23  O   LIG d   1      -7.794  95.097 120.888  0.00  0.00    -0.241 OA
ATOM     24  O   LIG d   1      -8.139  94.388 118.877  0.00  0.00    -0.241 OA
ENDBRANCH   3  22
TORSDOF 7
ENDMDL
MODEL 9
REMARK VINA RESULT:      -4.3      3.042      6.163
REMARK  7 active torsions:
REMARK  status: ('A' for Active; 'I' for Inactive)
REMARK    1  A    between atoms: C_2  and  C_3 
REMARK    2  A    between atoms: C_3  and  O_6 
REMARK    3  A    between atoms: C_3  and  C_4 
REMARK    4  A    between atoms: C_7  and  O_6 
REMARK    5  A    between atoms: C_9  and  C_10 
REMARK    6  A    between atoms: N_15  and  C_14 
REMARK    7  A    between atoms: N_20  and  C_19 
REMARK       I    between atoms: C_22  and  N_20 
ROOT
ATOM      1  C   LIG d   1       0.200  91.945 117.469  0.00  0.00     0.161 C 
ATOM      2  C   LIG d   1       1.513  91.813 116.988  0.00  0.00     0.016 C 
ATOM      3  C   LIG d   1       2.659  91.946 117.806  0.00  0.00     0.038 C 
ATOM      4  C   LIG d   1       2.564  92.070 119.200  0.00  0.00     0.028 C 
ATOM      5  C   LIG d   1       1.261  92.713 119.663  0.00  0.00    -0.047 C 
ATOM      6  C   LIG d   1       0.074  91.971 119.007  0.00  0.00     0.091 C 
ENDROOT
BRANCH   1   7
ATOM      7  O   LIG d   1      -0.630  90.905 116.915  0.00  0.00    -0.368 OA
BRANCH   7   8
ATOM      8  C   LIG d   1      -0.645  89.649 117.638  0.00  0.00     0.119 C 
BRANCH   8   9
ATOM      9  C   LIG d   1       0.142  88.623 116.799  0.00  0.00     0.028 C 
ATOM     10  C   LIG d   1       1.479  88.233 117.451  0.00  0.00     0.006 C 
ENDBRANCH   8   9
BRANCH   8  11
ATOM     11  C   LIG d   1      -2.064  89.084 117.744  0.00  0.00     0.028 C 
ATOM     12  C   LIG d   1      -3.127  90.031 117.166  0.00  0.00     0.006 C 
ENDBRANCH   8  11
ENDBRANCH   7   8
ENDBRANCH   1   7
BRANCH   6  13
ATOM     13  N   LIG d   1      -1.235  92.589 119.340  0.00  0.00    -0.311 N 
ATOM     14  C   LIG d   1      -2.132  92.018 120.143  0.00  0.00     0.210 C 
ATOM     15  C   LIG d   1      -3.425  92.815 120.339  0.00  0.00     0.109 C 
ATOM     16  O   LIG d   1      -1.966  90.942 120.737  0.00  0.00    -0.276 OA
ATOM     17  H   LIG d   1      -1.439  93.477 118.926  0.00  0.00     0.149 HD
ENDBRANCH   6  13
BRANCH   5  18
ATOM     18  N   LIG d   1       1.235  92.655 121.137  0.00  0.00     0.381 N 
ATOM     19  H   LIG d   1       0.478  92.074 121.440  0.00  0.00    -0.090 HD
ATOM     20  H   LIG d   1       1.085  93.581 121.496  0.00  0.00    -0.090 HD
ATOM     21  H   LIG d   1       2.098  92.293 121.479  0.00  0.00    -0.090 HD
ENDBRANCH   5  18
BRANCH   3  22
ATOM     22  C   LIG d   1       3.917  91.994 117.224  0.00  0.00     0.382 C 
ATOM     23  O   LIG d   1       4.117  91.438 116.117  0.00  0.00    -0.241 OA
ATOM     24  O   LIG d   1       4.864  92.548 117.813  0.00  0.00    -0.241 OA
ENDBRANCH   3  22
TORSDOF 7
ENDMDL
