MODEL 1
REMARK VINA RESULT:      -5.5      0.000      0.000
REMARK  7 active torsions:
REMARK  status: ('A' for Active; 'I' for Inactive)
REMARK    1  A    between atoms: C_2  and  C_3 
REMARK    2  A    between atoms: C_3  and  O_6 
REMARK    3  A    between atoms: C_3  and  C_4 
REMARK    4  A    between atoms: C_7  and  O_6 
REMARK    5  A    between atoms: C_9  and  C_10 
REMARK    6  A    between atoms: N_15  and  C_14 
REMARK    7  A    between atoms: N_20  and  C_19 
REMARK       I    between atoms: C_22  and  N_20 
ROOT
ATOM      1  C   LIG d   1      -6.643  93.365 117.608  0.00  0.00     0.161 C 
ATOM      2  C   LIG d   1      -7.051  92.136 117.065  0.00  0.00     0.016 C 
ATOM      3  C   LIG d   1      -6.149  91.118 116.679  0.00  0.00     0.038 C 
ATOM      4  C   LIG d   1      -4.776  91.201 116.952  0.00  0.00     0.028 C 
ATOM      5  C   LIG d   1      -4.262  92.635 117.039  0.00  0.00    -0.047 C 
ATOM      6  C   LIG d   1      -5.156  93.431 118.016  0.00  0.00     0.091 C 
ENDROOT
BRANCH   1   7
ATOM      7  O   LIG d   1      -7.485  93.709 118.726  0.00  0.00    -0.368 OA
BRANCH   7   8
ATOM      8  C   LIG d   1      -8.773  94.288 118.400  0.00  0.00     0.119 C 
BRANCH   8   9
ATOM      9  C   LIG d   1      -8.547  95.782 118.101  0.00  0.00     0.028 C 
ATOM     10  C   LIG d   1      -7.862  96.517 119.266  0.00  0.00     0.006 C 
ENDBRANCH   8   9
BRANCH   8  11
ATOM     11  C   LIG d   1      -9.720  94.253 119.603  0.00  0.00     0.028 C 
ATOM     12  C   LIG d   1      -9.198  93.369 120.747  0.00  0.00     0.006 C 
ENDBRANCH   8  11
ENDBRANCH   7   8
ENDBRANCH   1   7
BRANCH   6  13
ATOM     13  N   LIG d   1      -4.774  94.865 118.095  0.00  0.00    -0.311 N 
ATOM     14  C   LIG d   1      -4.261  95.428 119.187  0.00  0.00     0.210 C 
ATOM     15  C   LIG d   1      -3.956  96.924 119.061  0.00  0.00     0.109 C 
ATOM     16  O   LIG d   1      -4.000  94.824 120.238  0.00  0.00    -0.276 OA
ATOM     17  H   LIG d   1      -4.923  95.422 117.276  0.00  0.00     0.149 HD
ENDBRANCH   6  13
BRANCH   5  18
ATOM     18  N   LIG d   1      -2.850  92.577 117.463  0.00  0.00     0.381 N 
ATOM     19  H   LIG d   1      -2.766  92.906 118.405  0.00  0.00    -0.090 HD
ATOM     20  H   LIG d   1      -2.307  93.179 116.870  0.00  0.00    -0.090 HD
ATOM     21  H   LIG d   1      -2.512  91.642 117.399  0.00  0.00    -0.090 HD
ENDBRANCH   5  18
BRANCH   3  22
ATOM     22  C   LIG d   1      -6.615  90.017 115.976  0.00  0.00     0.382 C 
ATOM     23  O   LIG d   1      -7.668  89.441 116.340  0.00  0.00    -0.241 OA
ATOM     24  O   LIG d   1      -5.971  89.566 115.010  0.00  0.00    -0.241 OA
ENDBRANCH   3  22
TORSDOF 7
ENDMDL
MODEL 2
REMARK VINA RESULT:      -5.3      1.680      2.383
REMARK  7 active torsions:
REMARK  status: ('A' for Active; 'I' for Inactive)
REMARK    1  A    between atoms: C_2  and  C_3 
REMARK    2  A    between atoms: C_3  and  O_6 
REMARK    3  A    between atoms: C_3  and  C_4 
REMARK    4  A    between atoms: C_7  and  O_6 
REMARK    5  A    between atoms: C_9  and  C_10 
REMARK    6  A    between atoms: N_15  and  C_14 
REMARK    7  A    between atoms: N_20  and  C_19 
REMARK       I    between atoms: C_22  and  N_20 
ROOT
ATOM      1  C   LIG d   1      -6.049  92.487 118.030  0.00  0.00     0.161 C 
ATOM      2  C   LIG d   1      -6.999  91.750 117.303  0.00  0.00     0.016 C 
ATOM      3  C   LIG d   1      -6.663  90.662 116.465  0.00  0.00     0.038 C 
ATOM      4  C   LIG d   1      -5.362  90.138 116.415  0.00  0.00     0.028 C 
ATOM      5  C   LIG d   1      -4.283  91.165 116.741  0.00  0.00    -0.047 C 
ATOM      6  C   LIG d   1      -4.640  91.861 118.074  0.00  0.00     0.091 C 
ENDROOT
BRANCH   1   7
ATOM      7  O   LIG d   1      -6.535  92.725 119.366  0.00  0.00    -0.368 OA
BRANCH   7   8
ATOM      8  C   LIG d   1      -6.934  94.085 119.667  0.00  0.00     0.119 C 
BRANCH   8   9
ATOM      9  C   LIG d   1      -8.473  94.138 119.614  0.00  0.00     0.028 C 
ATOM     10  C   LIG d   1      -8.994  94.792 118.323  0.00  0.00     0.006 C 
ENDBRANCH   8   9
BRANCH   8  11
ATOM     11  C   LIG d   1      -6.457  95.058 118.584  0.00  0.00     0.028 C 
ATOM     12  C   LIG d   1      -5.434  96.078 119.109  0.00  0.00     0.006 C 
ENDBRANCH   8  11
ENDBRANCH   7   8
ENDBRANCH   1   7
BRANCH   6  13
ATOM     13  N   LIG d   1      -3.680  92.940 118.425  0.00  0.00    -0.311 N 
ATOM     14  C   LIG d   1      -2.970  92.951 119.552  0.00  0.00     0.210 C 
ATOM     15  C   LIG d   1      -2.053  94.166 119.727  0.00  0.00     0.109 C 
ATOM     16  O   LIG d   1      -2.988  92.055 120.409  0.00  0.00    -0.276 OA
ATOM     17  H   LIG d   1      -3.579  93.691 117.771  0.00  0.00     0.149 HD
ENDBRANCH   6  13
BRANCH   5  18
ATOM     18  N   LIG d   1      -2.991  90.454 116.787  0.00  0.00     0.381 N 
ATOM     19  H   LIG d   1      -2.393  90.882 117.466  0.00  0.00    -0.090 HD
ATOM     20  H   LIG d   1      -2.549  90.525 115.888  0.00  0.00    -0.090 HD
ATOM     21  H   LIG d   1      -3.137  89.497 117.019  0.00  0.00    -0.090 HD
ENDBRANCH   5  18
BRANCH   3  22
ATOM     22  C   LIG d   1      -7.627  90.110 115.635  0.00  0.00     0.382 C 
ATOM     23  O   LIG d   1      -7.863  90.630 114.517  0.00  0.00    -0.241 OA
ATOM     24  O   LIG d   1      -8.295  89.127 116.007  0.00  0.00    -0.241 OA
ENDBRANCH   3  22
TORSDOF 7
ENDMDL
MODEL 3
REMARK VINA RESULT:      -5.1      3.120      5.806
REMARK  7 active torsions:
REMARK  status: ('A' for Active; 'I' for Inactive)
REMARK    1  A    between atoms: C_2  and  C_3 
REMARK    2  A    between atoms: C_3  and  O_6 
REMARK    3  A    between atoms: C_3  and  C_4 
REMARK    4  A    between atoms: C_7  and  O_6 
REMARK    5  A    between atoms: C_9  and  C_10 
REMARK    6  A    between atoms: N_15  and  C_14 
REMARK    7  A    between atoms: N_20  and  C_19 
REMARK       I    between atoms: C_22  and  N_20 
ROOT
ATOM      1  C   LIG d   1      -3.950  90.631 117.488  0.00  0.00     0.161 C 
ATOM      2  C   LIG d   1      -4.896  90.337 116.491  0.00  0.00     0.016 C 
ATOM      3  C   LIG d   1      -5.804  91.290 115.976  0.00  0.00     0.038 C 
ATOM      4  C   LIG d   1      -5.726  92.649 116.316  0.00  0.00     0.028 C 
ATOM      5  C   LIG d   1      -5.118  92.894 117.693  0.00  0.00    -0.047 C 
ATOM      6  C   LIG d   1      -3.776  92.134 117.791  0.00  0.00     0.091 C 
ENDROOT
BRANCH   1   7
ATOM      7  O   LIG d   1      -2.681  90.038 117.146  0.00  0.00    -0.368 OA
BRANCH   7   8
ATOM      8  C   LIG d   1      -2.462  88.686 117.619  0.00  0.00     0.119 C 
BRANCH   8   9
ATOM      9  C   LIG d   1      -2.342  88.746 119.154  0.00  0.00     0.028 C 
ATOM     10  C   LIG d   1      -2.491  87.362 119.808  0.00  0.00     0.006 C 
ENDBRANCH   8   9
BRANCH   8  11
ATOM     11  C   LIG d   1      -1.119  88.136 117.129  0.00  0.00     0.028 C 
ATOM     12  C   LIG d   1      -1.261  86.811 116.363  0.00  0.00     0.006 C 
ENDBRANCH   8  11
ENDBRANCH   7   8
ENDBRANCH   1   7
BRANCH   6  13
ATOM     13  N   LIG d   1      -3.155  92.252 119.136  0.00  0.00    -0.311 N 
ATOM     14  C   LIG d   1      -1.885  92.604 119.329  0.00  0.00     0.210 C 
ATOM     15  C   LIG d   1      -1.440  92.645 120.794  0.00  0.00     0.109 C 
ATOM     16  O   LIG d   1      -1.093  92.917 118.427  0.00  0.00    -0.276 OA
ATOM     17  H   LIG d   1      -3.734  92.046 119.926  0.00  0.00     0.149 HD
ENDBRANCH   6  13
BRANCH   5  18
ATOM     18  N   LIG d   1      -4.970  94.352 117.861  0.00  0.00     0.381 N 
ATOM     19  H   LIG d   1      -5.686  94.827 117.348  0.00  0.00    -0.090 HD
ATOM     20  H   LIG d   1      -4.079  94.633 117.491  0.00  0.00    -0.090 HD
ATOM     21  H   LIG d   1      -5.028  94.592 118.826  0.00  0.00    -0.090 HD
ENDBRANCH   5  18
BRANCH   3  22
ATOM     22  C   LIG d   1      -6.830  90.879 115.139  0.00  0.00     0.382 C 
ATOM     23  O   LIG d   1      -7.475  91.725 114.474  0.00  0.00    -0.241 OA
ATOM     24  O   LIG d   1      -7.149  89.676 115.074  0.00  0.00    -0.241 OA
ENDBRANCH   3  22
TORSDOF 7
ENDMDL
MODEL 4
REMARK VINA RESULT:      -5.0      2.217      4.399
REMARK  7 active torsions:
REMARK  status: ('A' for Active; 'I' for Inactive)
REMARK    1  A    between atoms: C_2  and  C_3 
REMARK    2  A    between atoms: C_3  and  O_6 
REMARK    3  A    between atoms: C_3  and  C_4 
REMARK    4  A    between atoms: C_7  and  O_6 
REMARK    5  A    between atoms: C_9  and  C_10 
REMARK    6  A    between atoms: N_15  and  C_14 
REMARK    7  A    between atoms: N_20  and  C_19 
REMARK       I    between atoms: C_22  and  N_20 
ROOT
ATOM      1  C   LIG d   1      -4.953  92.433 118.352  0.00  0.00     0.161 C 
ATOM      2  C   LIG d   1      -5.448  91.498 117.427  0.00  0.00     0.016 C 
ATOM      3  C   LIG d   1      -6.464  91.795 116.489  0.00  0.00     0.038 C 
ATOM      4  C   LIG d   1      -6.952  93.098 116.311  0.00  0.00     0.028 C 
ATOM      5  C   LIG d   1      -6.844  93.961 117.564  0.00  0.00    -0.047 C 
ATOM      6  C   LIG d   1      -5.395  93.889 118.099  0.00  0.00     0.091 C 
ENDROOT
BRANCH   1   7
ATOM      7  O   LIG d   1      -3.516  92.348 118.411  0.00  0.00    -0.368 OA
BRANCH   7   8
ATOM      8  C   LIG d   1      -2.969  91.529 119.474  0.00  0.00     0.119 C 
BRANCH   8   9
ATOM      9  C   LIG d   1      -1.708  92.239 120.004  0.00  0.00     0.028 C 
ATOM     10  C   LIG d   1      -1.383  93.521 119.218  0.00  0.00     0.006 C 
ENDBRANCH   8   9
BRANCH   8  11
ATOM     11  C   LIG d   1      -2.480  90.179 118.941  0.00  0.00     0.028 C 
ATOM     12  C   LIG d   1      -1.914  90.271 117.515  0.00  0.00     0.006 C 
ENDBRANCH   8  11
ENDBRANCH   7   8
ENDBRANCH   1   7
BRANCH   6  13
ATOM     13  N   LIG d   1      -5.223  94.639 119.371  0.00  0.00    -0.311 N 
ATOM     14  C   LIG d   1      -4.388  95.667 119.508  0.00  0.00     0.210 C 
ATOM     15  C   LIG d   1      -4.349  96.286 120.909  0.00  0.00     0.109 C 
ATOM     16  O   LIG d   1      -3.700  96.147 118.595  0.00  0.00    -0.276 OA
ATOM     17  H   LIG d   1      -5.767  94.337 120.155  0.00  0.00     0.149 HD
ENDBRANCH   6  13
BRANCH   5  18
ATOM     18  N   LIG d   1      -7.258  95.329 117.199  0.00  0.00     0.381 N 
ATOM     19  H   LIG d   1      -7.850  95.705 117.913  0.00  0.00    -0.090 HD
ATOM     20  H   LIG d   1      -7.782  95.292 116.342  0.00  0.00    -0.090 HD
ATOM     21  H   LIG d   1      -6.457  95.909 117.083  0.00  0.00    -0.090 HD
ENDBRANCH   5  18
BRANCH   3  22
ATOM     22  C   LIG d   1      -7.030  90.772 115.744  0.00  0.00     0.382 C 
ATOM     23  O   LIG d   1      -6.799  89.575 116.043  0.00  0.00    -0.241 OA
ATOM     24  O   LIG d   1      -7.735  91.030 114.749  0.00  0.00    -0.241 OA
ENDBRANCH   3  22
TORSDOF 7
ENDMDL
MODEL 5
REMARK VINA RESULT:      -4.9      2.303      4.181
REMARK  7 active torsions:
REMARK  status: ('A' for Active; 'I' for Inactive)
REMARK    1  A    between atoms: C_2  and  C_3 
REMARK    2  A    between atoms: C_3  and  O_6 
REMARK    3  A    between atoms: C_3  and  C_4 
REMARK    4  A    between atoms: C_7  and  O_6 
REMARK    5  A    between atoms: C_9  and  C_10 
REMARK    6  A    between atoms: N_15  and  C_14 
REMARK    7  A    between atoms: N_20  and  C_19 
REMARK       I    between atoms: C_22  and  N_20 
ROOT
ATOM      1  C   LIG d   1      -5.669  92.176 118.495  0.00  0.00     0.161 C 
ATOM      2  C   LIG d   1      -5.807  91.363 117.357  0.00  0.00     0.016 C 
ATOM      3  C   LIG d   1      -6.514  91.758 116.199  0.00  0.00     0.038 C 
ATOM      4  C   LIG d   1      -7.008  93.062 116.040  0.00  0.00     0.028 C 
ATOM      5  C   LIG d   1      -7.331  93.752 117.361  0.00  0.00    -0.047 C 
ATOM      6  C   LIG d   1      -6.106  93.643 118.298  0.00  0.00     0.091 C 
ENDROOT
BRANCH   1   7
ATOM      7  O   LIG d   1      -4.312  92.117 118.976  0.00  0.00    -0.368 OA
BRANCH   7   8
ATOM      8  C   LIG d   1      -3.359  92.976 118.302  0.00  0.00     0.119 C 
BRANCH   8   9
ATOM      9  C   LIG d   1      -2.243  92.075 117.739  0.00  0.00     0.028 C 
ATOM     10  C   LIG d   1      -2.208  90.693 118.412  0.00  0.00     0.006 C 
ENDBRANCH   8   9
BRANCH   8  11
ATOM     11  C   LIG d   1      -2.662  93.917 119.289  0.00  0.00     0.028 C 
ATOM     12  C   LIG d   1      -2.941  93.555 120.756  0.00  0.00     0.006 C 
ENDBRANCH   8  11
ENDBRANCH   7   8
ENDBRANCH   1   7
BRANCH   6  13
ATOM     13  N   LIG d   1      -6.367  94.219 119.642  0.00  0.00    -0.311 N 
ATOM     14  C   LIG d   1      -6.045  95.466 119.981  0.00  0.00     0.210 C 
ATOM     15  C   LIG d   1      -6.384  95.853 121.424  0.00  0.00     0.109 C 
ATOM     16  O   LIG d   1      -5.540  96.299 119.213  0.00  0.00    -0.276 OA
ATOM     17  H   LIG d   1      -6.803  93.622 120.318  0.00  0.00     0.149 HD
ENDBRANCH   6  13
BRANCH   5  18
ATOM     18  N   LIG d   1      -7.703  95.146 117.056  0.00  0.00     0.381 N 
ATOM     19  H   LIG d   1      -7.374  95.751 117.782  0.00  0.00    -0.090 HD
ATOM     20  H   LIG d   1      -8.705  95.215 117.019  0.00  0.00    -0.090 HD
ATOM     21  H   LIG d   1      -7.312  95.420 116.182  0.00  0.00    -0.090 HD
ENDBRANCH   5  18
BRANCH   3  22
ATOM     22  C   LIG d   1      -6.769  90.832 115.199  0.00  0.00     0.382 C 
ATOM     23  O   LIG d   1      -5.992  89.861 115.031  0.00  0.00    -0.241 OA
ATOM     24  O   LIG d   1      -7.741  90.978 114.435  0.00  0.00    -0.241 OA
ENDBRANCH   3  22
TORSDOF 7
ENDMDL
MODEL 6
REMARK VINA RESULT:      -4.8      1.840      2.573
REMARK  7 active torsions:
REMARK  status: ('A' for Active; 'I' for Inactive)
REMARK    1  A    between atoms: C_2  and  C_3 
REMARK    2  A    between atoms: C_3  and  O_6 
REMARK    3  A    between atoms: C_3  and  C_4 
REMARK    4  A    between atoms: C_7  and  O_6 
REMARK    5  A    between atoms: C_9  and  C_10 
REMARK    6  A    between atoms: N_15  and  C_14 
REMARK    7  A    between atoms: N_20  and  C_19 
REMARK       I    between atoms: C_22  and  N_20 
ROOT
ATOM      1  C   LIG d   1      -5.433  92.903 117.343  0.00  0.00     0.161 C 
ATOM      2  C   LIG d   1      -6.510  92.259 116.712  0.00  0.00     0.016 C 
ATOM      3  C   LIG d   1      -6.460  90.920 116.262  0.00  0.00     0.038 C 
ATOM      4  C   LIG d   1      -5.373  90.081 116.550  0.00  0.00     0.028 C 
ATOM      5  C   LIG d   1      -4.061  90.834 116.741  0.00  0.00    -0.047 C 
ATOM      6  C   LIG d   1      -4.279  91.970 117.766  0.00  0.00     0.091 C 
ENDROOT
BRANCH   1   7
ATOM      7  O   LIG d   1      -5.910  93.655 118.477  0.00  0.00    -0.368 OA
BRANCH   7   8
ATOM      8  C   LIG d   1      -5.896  95.097 118.337  0.00  0.00     0.119 C 
BRANCH   8   9
ATOM      9  C   LIG d   1      -5.179  95.676 119.572  0.00  0.00     0.028 C 
ATOM     10  C   LIG d   1      -4.871  94.601 120.628  0.00  0.00     0.006 C 
ENDBRANCH   8   9
BRANCH   8  11
ATOM     11  C   LIG d   1      -7.313  95.675 118.383  0.00  0.00     0.028 C 
ATOM     12  C   LIG d   1      -8.338  94.695 118.976  0.00  0.00     0.006 C 
ENDBRANCH   8  11
ENDBRANCH   7   8
ENDBRANCH   1   7
BRANCH   6  13
ATOM     13  N   LIG d   1      -3.066  92.809 117.948  0.00  0.00    -0.311 N 
ATOM     14  C   LIG d   1      -2.179  92.614 118.922  0.00  0.00     0.210 C 
ATOM     15  C   LIG d   1      -1.011  93.605 118.942  0.00  0.00     0.109 C 
ATOM     16  O   LIG d   1      -2.231  91.694 119.752  0.00  0.00    -0.276 OA
ATOM     17  H   LIG d   1      -2.929  93.560 117.300  0.00  0.00     0.149 HD
ENDBRANCH   6  13
BRANCH   5  18
ATOM     18  N   LIG d   1      -3.044  89.855 117.171  0.00  0.00     0.381 N 
ATOM     19  H   LIG d   1      -3.315  89.446 118.043  0.00  0.00    -0.090 HD
ATOM     20  H   LIG d   1      -2.170  90.332 117.304  0.00  0.00    -0.090 HD
ATOM     21  H   LIG d   1      -2.941  89.145 116.480  0.00  0.00    -0.090 HD
ENDBRANCH   5  18
BRANCH   3  22
ATOM     22  C   LIG d   1      -7.490  90.419 115.480  0.00  0.00     0.382 C 
ATOM     23  O   LIG d   1      -8.057  89.347 115.802  0.00  0.00    -0.241 OA
ATOM     24  O   LIG d   1      -7.828  91.002 114.432  0.00  0.00    -0.241 OA
ENDBRANCH   3  22
TORSDOF 7
ENDMDL
MODEL 7
REMARK VINA RESULT:      -4.8      1.747      4.875
REMARK  7 active torsions:
REMARK  status: ('A' for Active; 'I' for Inactive)
REMARK    1  A    between atoms: C_2  and  C_3 
REMARK    2  A    between atoms: C_3  and  O_6 
REMARK    3  A    between atoms: C_3  and  C_4 
REMARK    4  A    between atoms: C_7  and  O_6 
REMARK    5  A    between atoms: C_9  and  C_10 
REMARK    6  A    between atoms: N_15  and  C_14 
REMARK    7  A    between atoms: N_20  and  C_19 
REMARK       I    between atoms: C_22  and  N_20 
ROOT
ATOM      1  C   LIG d   1      -5.654  93.310 118.122  0.00  0.00     0.161 C 
ATOM      2  C   LIG d   1      -4.612  94.037 118.722  0.00  0.00     0.016 C 
ATOM      3  C   LIG d   1      -3.254  93.647 118.658  0.00  0.00     0.038 C 
ATOM      4  C   LIG d   1      -2.826  92.579 117.856  0.00  0.00     0.028 C 
ATOM      5  C   LIG d   1      -3.899  91.516 117.640  0.00  0.00    -0.047 C 
ATOM      6  C   LIG d   1      -5.194  92.203 117.150  0.00  0.00     0.091 C 
ENDROOT
BRANCH   1   7
ATOM      7  O   LIG d   1      -6.561  94.213 117.459  0.00  0.00    -0.368 OA
BRANCH   7   8
ATOM      8  C   LIG d   1      -7.335  95.084 118.320  0.00  0.00     0.119 C 
BRANCH   8   9
ATOM      9  C   LIG d   1      -8.809  94.646 118.216  0.00  0.00     0.028 C 
ATOM     10  C   LIG d   1      -9.226  93.713 119.365  0.00  0.00     0.006 C 
ENDBRANCH   8   9
BRANCH   8  11
ATOM     11  C   LIG d   1      -7.306  96.531 117.820  0.00  0.00     0.028 C 
ATOM     12  C   LIG d   1      -6.376  97.430 118.651  0.00  0.00     0.006 C 
ENDBRANCH   8  11
ENDBRANCH   7   8
ENDBRANCH   1   7
BRANCH   6  13
ATOM     13  N   LIG d   1      -6.319  91.245 116.994  0.00  0.00    -0.311 N 
ATOM     14  C   LIG d   1      -6.601  90.624 115.850  0.00  0.00     0.210 C 
ATOM     15  C   LIG d   1      -7.816  89.693 115.902  0.00  0.00     0.109 C 
ATOM     16  O   LIG d   1      -5.939  90.731 114.806  0.00  0.00    -0.276 OA
ATOM     17  H   LIG d   1      -6.889  91.076 117.800  0.00  0.00     0.149 HD
ENDBRANCH   6  13
BRANCH   5  18
ATOM     18  N   LIG d   1      -3.365  90.534 116.678  0.00  0.00     0.381 N 
ATOM     19  H   LIG d   1      -2.562  90.913 116.217  0.00  0.00    -0.090 HD
ATOM     20  H   LIG d   1      -4.067  90.344 115.984  0.00  0.00    -0.090 HD
ATOM     21  H   LIG d   1      -3.120  89.692 117.150  0.00  0.00    -0.090 HD
ENDBRANCH   5  18
BRANCH   3  22
ATOM     22  C   LIG d   1      -2.313  94.306 119.434  0.00  0.00     0.382 C 
ATOM     23  O   LIG d   1      -2.683  95.150 120.286  0.00  0.00    -0.241 OA
ATOM     24  O   LIG d   1      -1.096  94.101 119.262  0.00  0.00    -0.241 OA
ENDBRANCH   3  22
TORSDOF 7
ENDMDL
MODEL 8
REMARK VINA RESULT:      -4.7      2.516      5.221
REMARK  7 active torsions:
REMARK  status: ('A' for Active; 'I' for Inactive)
REMARK    1  A    between atoms: C_2  and  C_3 
REMARK    2  A    between atoms: C_3  and  O_6 
REMARK    3  A    between atoms: C_3  and  C_4 
REMARK    4  A    between atoms: C_7  and  O_6 
REMARK    5  A    between atoms: C_9  and  C_10 
REMARK    6  A    between atoms: N_15  and  C_14 
REMARK    7  A    between atoms: N_20  and  C_19 
REMARK       I    between atoms: C_22  and  N_20 
ROOT
ATOM      1  C   LIG d   1      -4.682  93.015 118.381  0.00  0.00     0.161 C 
ATOM      2  C   LIG d   1      -5.812  93.849 118.383  0.00  0.00     0.016 C 
ATOM      3  C   LIG d   1      -6.842  93.766 117.417  0.00  0.00     0.038 C 
ATOM      4  C   LIG d   1      -6.885  92.737 116.465  0.00  0.00     0.028 C 
ATOM      5  C   LIG d   1      -5.509  92.181 116.112  0.00  0.00    -0.047 C 
ATOM      6  C   LIG d   1      -4.766  91.813 117.417  0.00  0.00     0.091 C 
ENDROOT
BRANCH   1   7
ATOM      7  O   LIG d   1      -4.407  92.563 119.722  0.00  0.00    -0.368 OA
BRANCH   7   8
ATOM      8  C   LIG d   1      -3.266  93.169 120.377  0.00  0.00     0.119 C 
BRANCH   8   9
ATOM      9  C   LIG d   1      -2.626  94.152 119.378  0.00  0.00     0.028 C 
ATOM     10  C   LIG d   1      -2.636  95.601 119.892  0.00  0.00     0.006 C 
ENDBRANCH   8   9
BRANCH   8  11
ATOM     11  C   LIG d   1      -2.179  92.132 120.678  0.00  0.00     0.028 C 
ATOM     12  C   LIG d   1      -0.888  92.374 119.881  0.00  0.00     0.006 C 
ENDBRANCH   8  11
ENDBRANCH   7   8
ENDBRANCH   1   7
BRANCH   6  13
ATOM     13  N   LIG d   1      -3.380  91.340 117.166  0.00  0.00    -0.311 N 
ATOM     14  C   LIG d   1      -2.929  90.151 117.561  0.00  0.00     0.210 C 
ATOM     15  C   LIG d   1      -1.462  89.869 117.218  0.00  0.00     0.109 C 
ATOM     16  O   LIG d   1      -3.613  89.289 118.134  0.00  0.00    -0.276 OA
ATOM     17  H   LIG d   1      -2.766  91.963 116.679  0.00  0.00     0.149 HD
ENDBRANCH   6  13
BRANCH   5  18
ATOM     18  N   LIG d   1      -5.712  91.026 115.217  0.00  0.00     0.381 N 
ATOM     19  H   LIG d   1      -6.561  91.142 114.701  0.00  0.00    -0.090 HD
ATOM     20  H   LIG d   1      -5.793  90.193 115.774  0.00  0.00    -0.090 HD
ATOM     21  H   LIG d   1      -4.942  90.941 114.590  0.00  0.00    -0.090 HD
ENDBRANCH   5  18
BRANCH   3  22
ATOM     22  C   LIG d   1      -7.822  94.746 117.373  0.00  0.00     0.382 C 
ATOM     23  O   LIG d   1      -7.522  95.944 117.590  0.00  0.00    -0.241 OA
ATOM     24  O   LIG d   1      -9.011  94.440 117.162  0.00  0.00    -0.241 OA
ENDBRANCH   3  22
TORSDOF 7
ENDMDL
MODEL 9
REMARK VINA RESULT:      -4.6      2.505      5.057
REMARK  7 active torsions:
REMARK  status: ('A' for Active; 'I' for Inactive)
REMARK    1  A    between atoms: C_2  and  C_3 
REMARK    2  A    between atoms: C_3  and  O_6 
REMARK    3  A    between atoms: C_3  and  C_4 
REMARK    4  A    between atoms: C_7  and  O_6 
REMARK    5  A    between atoms: C_9  and  C_10 
REMARK    6  A    between atoms: N_15  and  C_14 
REMARK    7  A    between atoms: N_20  and  C_19 
REMARK       I    between atoms: C_22  and  N_20 
ROOT
ATOM      1  C   LIG d   1      -4.409  91.497 117.546  0.00  0.00     0.161 C 
ATOM      2  C   LIG d   1      -5.291  90.708 116.790  0.00  0.00     0.016 C 
ATOM      3  C   LIG d   1      -6.494  91.201 116.233  0.00  0.00     0.038 C 
ATOM      4  C   LIG d   1      -6.822  92.565 116.267  0.00  0.00     0.028 C 
ATOM      5  C   LIG d   1      -6.212  93.305 117.453  0.00  0.00    -0.047 C 
ATOM      6  C   LIG d   1      -4.695  93.013 117.500  0.00  0.00     0.091 C 
ENDROOT
BRANCH   1   7
ATOM      7  O   LIG d   1      -3.050  91.232 117.145  0.00  0.00    -0.368 OA
BRANCH   7   8
ATOM      8  C   LIG d   1      -2.140  90.834 118.200  0.00  0.00     0.119 C 
BRANCH   8   9
ATOM      9  C   LIG d   1      -0.725  90.771 117.593  0.00  0.00     0.028 C 
ATOM     10  C   LIG d   1       0.374  90.731 118.667  0.00  0.00     0.006 C 
ENDBRANCH   8   9
BRANCH   8  11
ATOM     11  C   LIG d   1      -2.437  89.411 118.684  0.00  0.00     0.028 C 
ATOM     12  C   LIG d   1      -2.318  88.364 117.565  0.00  0.00     0.006 C 
ENDBRANCH   8  11
ENDBRANCH   7   8
ENDBRANCH   1   7
BRANCH   6  13
ATOM     13  N   LIG d   1      -4.035  93.632 118.679  0.00  0.00    -0.311 N 
ATOM     14  C   LIG d   1      -4.403  93.390 119.936  0.00  0.00     0.210 C 
ATOM     15  C   LIG d   1      -3.604  94.147 121.001  0.00  0.00     0.109 C 
ATOM     16  O   LIG d   1      -5.295  92.596 120.271  0.00  0.00    -0.276 OA
ATOM     17  H   LIG d   1      -3.280  94.265 118.500  0.00  0.00     0.149 HD
ENDBRANCH   6  13
BRANCH   5  18
ATOM     18  N   LIG d   1      -6.520  94.739 117.289  0.00  0.00     0.381 N 
ATOM     19  H   LIG d   1      -5.986  95.276 117.943  0.00  0.00    -0.090 HD
ATOM     20  H   LIG d   1      -7.495  94.886 117.481  0.00  0.00    -0.090 HD
ATOM     21  H   LIG d   1      -6.310  95.029 116.359  0.00  0.00    -0.090 HD
ENDBRANCH   5  18
BRANCH   3  22
ATOM     22  C   LIG d   1      -7.402  90.319 115.668  0.00  0.00     0.382 C 
ATOM     23  O   LIG d   1      -7.951  90.599 114.576  0.00  0.00    -0.241 OA
ATOM     24  O   LIG d   1      -7.711  89.267 116.258  0.00  0.00    -0.241 OA
ENDBRANCH   3  22
TORSDOF 7
ENDMDL
