MODEL 1
REMARK VINA RESULT:      -4.3      0.000      0.000
REMARK  7 active torsions:
REMARK  status: ('A' for Active; 'I' for Inactive)
REMARK    1  A    between atoms: C_2  and  C_3 
REMARK    2  A    between atoms: C_3  and  O_6 
REMARK    3  A    between atoms: C_3  and  C_4 
REMARK    4  A    between atoms: C_7  and  O_6 
REMARK    5  A    between atoms: C_9  and  C_10 
REMARK    6  A    between atoms: N_15  and  C_14 
REMARK    7  A    between atoms: N_20  and  C_19 
REMARK       I    between atoms: C_22  and  N_20 
ROOT
ATOM      1  C   LIG d   1       2.745  90.522 118.768  0.00  0.00     0.161 C 
ATOM      2  C   LIG d   1       3.322  91.791 118.943  0.00  0.00     0.016 C 
ATOM      3  C   LIG d   1       4.388  92.276 118.151  0.00  0.00     0.038 C 
ATOM      4  C   LIG d   1       4.852  91.580 117.025  0.00  0.00     0.028 C 
ATOM      5  C   LIG d   1       4.641  90.073 117.115  0.00  0.00    -0.047 C 
ATOM      6  C   LIG d   1       3.163  89.794 117.474  0.00  0.00     0.091 C 
ENDROOT
BRANCH   1   7
ATOM      7  O   LIG d   1       1.309  90.624 118.844  0.00  0.00    -0.368 OA
BRANCH   7   8
ATOM      8  C   LIG d   1       0.760  91.961 118.755  0.00  0.00     0.119 C 
BRANCH   8   9
ATOM      9  C   LIG d   1      -0.174  92.160 119.965  0.00  0.00     0.028 C 
ATOM     10  C   LIG d   1       0.576  92.666 121.208  0.00  0.00     0.006 C 
ENDBRANCH   8   9
BRANCH   8  11
ATOM     11  C   LIG d   1      -0.136  92.115 117.522  0.00  0.00     0.028 C 
ATOM     12  C   LIG d   1      -1.629  91.949 117.846  0.00  0.00     0.006 C 
ENDBRANCH   8  11
ENDBRANCH   7   8
ENDBRANCH   1   7
BRANCH   6  13
ATOM     13  N   LIG d   1       2.890  88.345 117.665  0.00  0.00    -0.311 N 
ATOM     14  C   LIG d   1       2.433  87.552 116.697  0.00  0.00     0.210 C 
ATOM     15  C   LIG d   1       2.200  86.095 117.111  0.00  0.00     0.109 C 
ATOM     16  O   LIG d   1       2.229  87.909 115.527  0.00  0.00    -0.276 OA
ATOM     17  H   LIG d   1       3.058  87.965 118.576  0.00  0.00     0.149 HD
ENDBRANCH   6  13
BRANCH   5  18
ATOM     18  N   LIG d   1       5.042  89.488 115.822  0.00  0.00     0.381 N 
ATOM     19  H   LIG d   1       5.549  90.165 115.287  0.00  0.00    -0.090 HD
ATOM     20  H   LIG d   1       4.216  89.235 115.309  0.00  0.00    -0.090 HD
ATOM     21  H   LIG d   1       5.608  88.682 115.973  0.00  0.00    -0.090 HD
ENDBRANCH   5  18
BRANCH   3  22
ATOM     22  C   LIG d   1       5.029  93.453 118.508  0.00  0.00     0.382 C 
ATOM     23  O   LIG d   1       5.412  93.625 119.690  0.00  0.00    -0.241 OA
ATOM     24  O   LIG d   1       5.189  94.363 117.673  0.00  0.00    -0.241 OA
ENDBRANCH   3  22
TORSDOF 7
ENDMDL
MODEL 2
REMARK VINA RESULT:      -4.3      5.434      7.780
REMARK  7 active torsions:
REMARK  status: ('A' for Active; 'I' for Inactive)
REMARK    1  A    between atoms: C_2  and  C_3 
REMARK    2  A    between atoms: C_3  and  O_6 
REMARK    3  A    between atoms: C_3  and  C_4 
REMARK    4  A    between atoms: C_7  and  O_6 
REMARK    5  A    between atoms: C_9  and  C_10 
REMARK    6  A    between atoms: N_15  and  C_14 
REMARK    7  A    between atoms: N_20  and  C_19 
REMARK       I    between atoms: C_22  and  N_20 
ROOT
ATOM      1  C   LIG d   1      -4.821  92.256 119.018  0.00  0.00     0.161 C 
ATOM      2  C   LIG d   1      -3.629  92.466 119.731  0.00  0.00     0.016 C 
ATOM      3  C   LIG d   1      -2.372  91.977 119.307  0.00  0.00     0.038 C 
ATOM      4  C   LIG d   1      -2.196  91.370 118.055  0.00  0.00     0.028 C 
ATOM      5  C   LIG d   1      -3.456  90.689 117.531  0.00  0.00    -0.047 C 
ATOM      6  C   LIG d   1      -4.631  91.691 117.595  0.00  0.00     0.091 C 
ENDROOT
BRANCH   1   7
ATOM      7  O   LIG d   1      -5.586  93.476 118.975  0.00  0.00    -0.368 OA
BRANCH   7   8
ATOM      8  C   LIG d   1      -5.390  94.391 120.082  0.00  0.00     0.119 C 
BRANCH   8   9
ATOM      9  C   LIG d   1      -6.753  94.574 120.778  0.00  0.00     0.028 C 
ATOM     10  C   LIG d   1      -7.932  94.480 119.794  0.00  0.00     0.006 C 
ENDBRANCH   8   9
BRANCH   8  11
ATOM     11  C   LIG d   1      -4.996  95.786 119.589  0.00  0.00     0.028 C 
ATOM     12  C   LIG d   1      -3.601  96.216 120.070  0.00  0.00     0.006 C 
ENDBRANCH   8  11
ENDBRANCH   7   8
ENDBRANCH   1   7
BRANCH   6  13
ATOM     13  N   LIG d   1      -5.921  91.080 117.178  0.00  0.00    -0.311 N 
ATOM     14  C   LIG d   1      -6.318  91.000 115.909  0.00  0.00     0.210 C 
ATOM     15  C   LIG d   1      -7.689  90.350 115.701  0.00  0.00     0.109 C 
ATOM     16  O   LIG d   1      -5.650  91.375 114.934  0.00  0.00    -0.276 OA
ATOM     17  H   LIG d   1      -6.511  90.722 117.903  0.00  0.00     0.149 HD
ENDBRANCH   6  13
BRANCH   5  18
ATOM     18  N   LIG d   1      -3.171  90.219 116.162  0.00  0.00     0.381 N 
ATOM     19  H   LIG d   1      -3.385  89.244 116.087  0.00  0.00    -0.090 HD
ATOM     20  H   LIG d   1      -2.192  90.343 115.973  0.00  0.00    -0.090 HD
ATOM     21  H   LIG d   1      -3.712  90.736 115.504  0.00  0.00    -0.090 HD
ENDBRANCH   5  18
BRANCH   3  22
ATOM     22  C   LIG d   1      -1.280  92.059 120.159  0.00  0.00     0.382 C 
ATOM     23  O   LIG d   1      -0.249  92.676 119.798  0.00  0.00    -0.241 OA
ATOM     24  O   LIG d   1      -1.297  91.486 121.265  0.00  0.00    -0.241 OA
ENDBRANCH   3  22
TORSDOF 7
ENDMDL
MODEL 3
REMARK VINA RESULT:      -4.2      2.532      5.353
REMARK  7 active torsions:
REMARK  status: ('A' for Active; 'I' for Inactive)
REMARK    1  A    between atoms: C_2  and  C_3 
REMARK    2  A    between atoms: C_3  and  O_6 
REMARK    3  A    between atoms: C_3  and  C_4 
REMARK    4  A    between atoms: C_7  and  O_6 
REMARK    5  A    between atoms: C_9  and  C_10 
REMARK    6  A    between atoms: N_15  and  C_14 
REMARK    7  A    between atoms: N_20  and  C_19 
REMARK       I    between atoms: C_22  and  N_20 
ROOT
ATOM      1  C   LIG d   1       4.153  89.302 117.270  0.00  0.00     0.161 C 
ATOM      2  C   LIG d   1       2.914  89.902 117.552  0.00  0.00     0.016 C 
ATOM      3  C   LIG d   1       2.784  91.169 118.165  0.00  0.00     0.038 C 
ATOM      4  C   LIG d   1       3.892  91.996 118.401  0.00  0.00     0.028 C 
ATOM      5  C   LIG d   1       5.193  91.223 118.597  0.00  0.00    -0.047 C 
ATOM      6  C   LIG d   1       5.372  90.236 117.420  0.00  0.00     0.091 C 
ENDROOT
BRANCH   1   7
ATOM      7  O   LIG d   1       4.126  88.721 115.952  0.00  0.00    -0.368 OA
BRANCH   7   8
ATOM      8  C   LIG d   1       4.033  87.276 115.894  0.00  0.00     0.119 C 
BRANCH   8   9
ATOM      9  C   LIG d   1       5.366  86.749 115.328  0.00  0.00     0.028 C 
ATOM     10  C   LIG d   1       6.151  85.915 116.355  0.00  0.00     0.006 C 
ENDBRANCH   8   9
BRANCH   8  11
ATOM     11  C   LIG d   1       2.962  86.826 114.896  0.00  0.00     0.028 C 
ATOM     12  C   LIG d   1       1.540  87.203 115.338  0.00  0.00     0.006 C 
ENDBRANCH   8  11
ENDBRANCH   7   8
ENDBRANCH   1   7
BRANCH   6  13
ATOM     13  N   LIG d   1       6.577  89.381 117.576  0.00  0.00    -0.311 N 
ATOM     14  C   LIG d   1       7.752  89.661 117.015  0.00  0.00     0.210 C 
ATOM     15  C   LIG d   1       8.858  88.637 117.286  0.00  0.00     0.109 C 
ATOM     16  O   LIG d   1       7.992  90.677 116.344  0.00  0.00    -0.276 OA
ATOM     17  H   LIG d   1       6.480  88.553 118.130  0.00  0.00     0.149 HD
ENDBRANCH   6  13
BRANCH   5  18
ATOM     18  N   LIG d   1       6.286  92.209 118.696  0.00  0.00     0.381 N 
ATOM     19  H   LIG d   1       7.146  91.741 118.904  0.00  0.00    -0.090 HD
ATOM     20  H   LIG d   1       6.083  92.844 119.447  0.00  0.00    -0.090 HD
ATOM     21  H   LIG d   1       6.371  92.711 117.840  0.00  0.00    -0.090 HD
ENDBRANCH   5  18
BRANCH   3  22
ATOM     22  C   LIG d   1       1.536  91.605 118.584  0.00  0.00     0.382 C 
ATOM     23  O   LIG d   1       1.191  91.460 119.781  0.00  0.00    -0.241 OA
ATOM     24  O   LIG d   1       0.734  92.102 117.770  0.00  0.00    -0.241 OA
ENDBRANCH   3  22
TORSDOF 7
ENDMDL
MODEL 4
REMARK VINA RESULT:      -4.1      2.663      6.737
REMARK  7 active torsions:
REMARK  status: ('A' for Active; 'I' for Inactive)
REMARK    1  A    between atoms: C_2  and  C_3 
REMARK    2  A    between atoms: C_3  and  O_6 
REMARK    3  A    between atoms: C_3  and  C_4 
REMARK    4  A    between atoms: C_7  and  O_6 
REMARK    5  A    between atoms: C_9  and  C_10 
REMARK    6  A    between atoms: N_15  and  C_14 
REMARK    7  A    between atoms: N_20  and  C_19 
REMARK       I    between atoms: C_22  and  N_20 
ROOT
ATOM      1  C   LIG d   1       4.680  89.564 116.725  0.00  0.00     0.161 C 
ATOM      2  C   LIG d   1       3.926  88.471 116.266  0.00  0.00     0.016 C 
ATOM      3  C   LIG d   1       2.618  88.183 116.719  0.00  0.00     0.038 C 
ATOM      4  C   LIG d   1       1.913  89.061 117.557  0.00  0.00     0.028 C 
ATOM      5  C   LIG d   1       2.819  89.912 118.440  0.00  0.00    -0.047 C 
ATOM      6  C   LIG d   1       3.886  90.595 117.555  0.00  0.00     0.091 C 
ENDROOT
BRANCH   1   7
ATOM      7  O   LIG d   1       5.330  90.211 115.613  0.00  0.00    -0.368 OA
BRANCH   7   8
ATOM      8  C   LIG d   1       6.713  89.845 115.383  0.00  0.00     0.119 C 
BRANCH   8   9
ATOM      9  C   LIG d   1       6.717  88.536 114.569  0.00  0.00     0.028 C 
ATOM     10  C   LIG d   1       7.309  87.357 115.359  0.00  0.00     0.006 C 
ENDBRANCH   8   9
BRANCH   8  11
ATOM     11  C   LIG d   1       7.426  89.509 116.696  0.00  0.00     0.028 C 
ATOM     12  C   LIG d   1       8.250  90.685 117.245  0.00  0.00     0.006 C 
ENDBRANCH   8  11
ENDBRANCH   7   8
ENDBRANCH   1   7
BRANCH   6  13
ATOM     13  N   LIG d   1       4.865  91.381 118.351  0.00  0.00    -0.311 N 
ATOM     14  C   LIG d   1       5.163  92.653 118.096  0.00  0.00     0.210 C 
ATOM     15  C   LIG d   1       6.213  93.270 119.026  0.00  0.00     0.109 C 
ATOM     16  O   LIG d   1       4.635  93.340 117.209  0.00  0.00    -0.276 OA
ATOM     17  H   LIG d   1       5.318  90.910 119.110  0.00  0.00     0.149 HD
ENDBRANCH   6  13
BRANCH   5  18
ATOM     18  N   LIG d   1       1.962  90.875 119.159  0.00  0.00     0.381 N 
ATOM     19  H   LIG d   1       1.201  91.154 118.573  0.00  0.00    -0.090 HD
ATOM     20  H   LIG d   1       2.505  91.691 119.380  0.00  0.00    -0.090 HD
ATOM     21  H   LIG d   1       1.613  90.462 119.996  0.00  0.00    -0.090 HD
ENDBRANCH   5  18
BRANCH   3  22
ATOM     22  C   LIG d   1       2.017  86.985 116.366  0.00  0.00     0.382 C 
ATOM     23  O   LIG d   1       1.256  86.935 115.369  0.00  0.00    -0.241 OA
ATOM     24  O   LIG d   1       2.190  85.963 117.056  0.00  0.00    -0.241 OA
ENDBRANCH   3  22
TORSDOF 7
ENDMDL
MODEL 5
REMARK VINA RESULT:      -3.9      1.954      2.557
REMARK  7 active torsions:
REMARK  status: ('A' for Active; 'I' for Inactive)
REMARK    1  A    between atoms: C_2  and  C_3 
REMARK    2  A    between atoms: C_3  and  O_6 
REMARK    3  A    between atoms: C_3  and  C_4 
REMARK    4  A    between atoms: C_7  and  O_6 
REMARK    5  A    between atoms: C_9  and  C_10 
REMARK    6  A    between atoms: N_15  and  C_14 
REMARK    7  A    between atoms: N_20  and  C_19 
REMARK       I    between atoms: C_22  and  N_20 
ROOT
ATOM      1  C   LIG d   1       4.065  88.880 118.201  0.00  0.00     0.161 C 
ATOM      2  C   LIG d   1       5.121  89.795 118.346  0.00  0.00     0.016 C 
ATOM      3  C   LIG d   1       5.976  90.171 117.285  0.00  0.00     0.038 C 
ATOM      4  C   LIG d   1       5.738  89.769 115.963  0.00  0.00     0.028 C 
ATOM      5  C   LIG d   1       4.986  88.446 115.858  0.00  0.00    -0.047 C 
ATOM      6  C   LIG d   1       3.720  88.517 116.742  0.00  0.00     0.091 C 
ENDROOT
BRANCH   1   7
ATOM      7  O   LIG d   1       2.895  89.372 118.884  0.00  0.00    -0.368 OA
BRANCH   7   8
ATOM      8  C   LIG d   1       2.825  90.806 119.078  0.00  0.00     0.119 C 
BRANCH   8   9
ATOM      9  C   LIG d   1       2.516  91.058 120.566  0.00  0.00     0.028 C 
ATOM     10  C   LIG d   1       3.789  91.278 121.401  0.00  0.00     0.006 C 
ENDBRANCH   8   9
BRANCH   8  11
ATOM     11  C   LIG d   1       1.648  91.415 118.311  0.00  0.00     0.028 C 
ATOM     12  C   LIG d   1       0.558  91.974 119.238  0.00  0.00     0.006 C 
ENDBRANCH   8  11
ENDBRANCH   7   8
ENDBRANCH   1   7
BRANCH   6  13
ATOM     13  N   LIG d   1       2.971  87.233 116.762  0.00  0.00    -0.311 N 
ATOM     14  C   LIG d   1       1.965  86.958 115.934  0.00  0.00     0.210 C 
ATOM     15  C   LIG d   1       1.317  85.585 116.138  0.00  0.00     0.109 C 
ATOM     16  O   LIG d   1       1.569  87.707 115.029  0.00  0.00    -0.276 OA
ATOM     17  H   LIG d   1       3.247  86.555 117.445  0.00  0.00     0.149 HD
ENDBRANCH   6  13
BRANCH   5  18
ATOM     18  N   LIG d   1       4.684  88.217 114.432  0.00  0.00     0.381 N 
ATOM     19  H   LIG d   1       5.018  88.987 113.887  0.00  0.00    -0.090 HD
ATOM     20  H   LIG d   1       3.688  88.157 114.317  0.00  0.00    -0.090 HD
ATOM     21  H   LIG d   1       5.114  87.372 114.124  0.00  0.00    -0.090 HD
ENDBRANCH   5  18
BRANCH   3  22
ATOM     22  C   LIG d   1       7.109  90.926 117.550  0.00  0.00     0.382 C 
ATOM     23  O   LIG d   1       8.093  90.873 116.774  0.00  0.00    -0.241 OA
ATOM     24  O   LIG d   1       7.176  91.625 118.579  0.00  0.00    -0.241 OA
ENDBRANCH   3  22
TORSDOF 7
ENDMDL
MODEL 6
REMARK VINA RESULT:      -3.8      2.354      5.333
REMARK  7 active torsions:
REMARK  status: ('A' for Active; 'I' for Inactive)
REMARK    1  A    between atoms: C_2  and  C_3 
REMARK    2  A    between atoms: C_3  and  O_6 
REMARK    3  A    between atoms: C_3  and  C_4 
REMARK    4  A    between atoms: C_7  and  O_6 
REMARK    5  A    between atoms: C_9  and  C_10 
REMARK    6  A    between atoms: N_15  and  C_14 
REMARK    7  A    between atoms: N_20  and  C_19 
REMARK       I    between atoms: C_22  and  N_20 
ROOT
ATOM      1  C   LIG d   1       3.876  89.164 117.249  0.00  0.00     0.161 C 
ATOM      2  C   LIG d   1       2.659  89.796 117.551  0.00  0.00     0.016 C 
ATOM      3  C   LIG d   1       2.571  91.100 118.089  0.00  0.00     0.038 C 
ATOM      4  C   LIG d   1       3.699  91.925 118.221  0.00  0.00     0.028 C 
ATOM      5  C   LIG d   1       4.999  91.149 118.402  0.00  0.00    -0.047 C 
ATOM      6  C   LIG d   1       5.111  90.089 117.282  0.00  0.00     0.091 C 
ENDROOT
BRANCH   1   7
ATOM      7  O   LIG d   1       3.780  88.502 115.972  0.00  0.00    -0.368 OA
BRANCH   7   8
ATOM      8  C   LIG d   1       4.024  87.074 115.974  0.00  0.00     0.119 C 
BRANCH   8   9
ATOM      9  C   LIG d   1       2.941  86.418 115.096  0.00  0.00     0.028 C 
ATOM     10  C   LIG d   1       1.558  87.064 115.288  0.00  0.00     0.006 C 
ENDBRANCH   8   9
BRANCH   8  11
ATOM     11  C   LIG d   1       3.829  86.477 117.371  0.00  0.00     0.028 C 
ATOM     12  C   LIG d   1       5.056  85.691 117.860  0.00  0.00     0.006 C 
ENDBRANCH   8  11
ENDBRANCH   7   8
ENDBRANCH   1   7
BRANCH   6  13
ATOM     13  N   LIG d   1       6.313  89.229 117.433  0.00  0.00    -0.311 N 
ATOM     14  C   LIG d   1       7.482  89.494 116.851  0.00  0.00     0.210 C 
ATOM     15  C   LIG d   1       8.586  88.467 117.122  0.00  0.00     0.109 C 
ATOM     16  O   LIG d   1       7.717  90.498 116.162  0.00  0.00    -0.276 OA
ATOM     17  H   LIG d   1       6.220  88.410 118.001  0.00  0.00     0.149 HD
ENDBRANCH   6  13
BRANCH   5  18
ATOM     18  N   LIG d   1       6.106  92.124 118.387  0.00  0.00     0.381 N 
ATOM     19  H   LIG d   1       5.746  93.047 118.531  0.00  0.00    -0.090 HD
ATOM     20  H   LIG d   1       6.552  92.096 117.487  0.00  0.00    -0.090 HD
ATOM     21  H   LIG d   1       6.765  91.902 119.100  0.00  0.00    -0.090 HD
ENDBRANCH   5  18
BRANCH   3  22
ATOM     22  C   LIG d   1       1.350  91.578 118.539  0.00  0.00     0.382 C 
ATOM     23  O   LIG d   1       0.577  92.169 117.746  0.00  0.00    -0.241 OA
ATOM     24  O   LIG d   1       1.030  91.465 119.737  0.00  0.00    -0.241 OA
ENDBRANCH   3  22
TORSDOF 7
ENDMDL
MODEL 7
REMARK VINA RESULT:      -3.8      4.859      7.950
REMARK  7 active torsions:
REMARK  status: ('A' for Active; 'I' for Inactive)
REMARK    1  A    between atoms: C_2  and  C_3 
REMARK    2  A    between atoms: C_3  and  O_6 
REMARK    3  A    between atoms: C_3  and  C_4 
REMARK    4  A    between atoms: C_7  and  O_6 
REMARK    5  A    between atoms: C_9  and  C_10 
REMARK    6  A    between atoms: N_15  and  C_14 
REMARK    7  A    between atoms: N_20  and  C_19 
REMARK       I    between atoms: C_22  and  N_20 
ROOT
ATOM      1  C   LIG d   1      -3.670  91.792 117.945  0.00  0.00     0.161 C 
ATOM      2  C   LIG d   1      -2.309  91.558 117.689  0.00  0.00     0.016 C 
ATOM      3  C   LIG d   1      -1.294  91.734 118.657  0.00  0.00     0.038 C 
ATOM      4  C   LIG d   1      -1.590  92.012 120.000  0.00  0.00     0.028 C 
ATOM      5  C   LIG d   1      -2.910  92.750 120.188  0.00  0.00    -0.047 C 
ATOM      6  C   LIG d   1      -4.024  91.988 119.434  0.00  0.00     0.091 C 
ENDROOT
BRANCH   1   7
ATOM      7  O   LIG d   1      -4.463  90.731 117.377  0.00  0.00    -0.368 OA
BRANCH   7   8
ATOM      8  C   LIG d   1      -5.265  91.082 116.222  0.00  0.00     0.119 C 
BRANCH   8   9
ATOM      9  C   LIG d   1      -6.740  91.092 116.668  0.00  0.00     0.028 C 
ATOM     10  C   LIG d   1      -7.587  90.051 115.917  0.00  0.00     0.006 C 
ENDBRANCH   8   9
BRANCH   8  11
ATOM     11  C   LIG d   1      -5.177  90.006 115.136  0.00  0.00     0.028 C 
ATOM     12  C   LIG d   1      -3.875  89.192 115.207  0.00  0.00     0.006 C 
ENDBRANCH   8  11
ENDBRANCH   7   8
ENDBRANCH   1   7
BRANCH   6  13
ATOM     13  N   LIG d   1      -5.333  92.689 119.497  0.00  0.00    -0.311 N 
ATOM     14  C   LIG d   1      -5.454  94.001 119.691  0.00  0.00     0.210 C 
ATOM     15  C   LIG d   1      -6.895  94.517 119.742  0.00  0.00     0.109 C 
ATOM     16  O   LIG d   1      -4.503  94.791 119.793  0.00  0.00    -0.276 OA
ATOM     17  H   LIG d   1      -6.156  92.128 119.392  0.00  0.00     0.149 HD
ENDBRANCH   6  13
BRANCH   5  18
ATOM     18  N   LIG d   1      -3.160  92.853 121.639  0.00  0.00     0.381 N 
ATOM     19  H   LIG d   1      -3.806  92.143 121.922  0.00  0.00    -0.090 HD
ATOM     20  H   LIG d   1      -3.571  93.749 121.835  0.00  0.00    -0.090 HD
ATOM     21  H   LIG d   1      -2.305  92.754 122.140  0.00  0.00    -0.090 HD
ENDBRANCH   5  18
BRANCH   3  22
ATOM     22  C   LIG d   1       0.038  91.670 118.276  0.00  0.00     0.382 C 
ATOM     23  O   LIG d   1       0.406  92.191 117.195  0.00  0.00    -0.241 OA
ATOM     24  O   LIG d   1       0.868  91.061 118.977  0.00  0.00    -0.241 OA
ENDBRANCH   3  22
TORSDOF 7
ENDMDL
MODEL 8
REMARK VINA RESULT:      -3.8      2.831      4.710
REMARK  7 active torsions:
REMARK  status: ('A' for Active; 'I' for Inactive)
REMARK    1  A    between atoms: C_2  and  C_3 
REMARK    2  A    between atoms: C_3  and  O_6 
REMARK    3  A    between atoms: C_3  and  C_4 
REMARK    4  A    between atoms: C_7  and  O_6 
REMARK    5  A    between atoms: C_9  and  C_10 
REMARK    6  A    between atoms: N_15  and  C_14 
REMARK    7  A    between atoms: N_20  and  C_19 
REMARK       I    between atoms: C_22  and  N_20 
ROOT
ATOM      1  C   LIG d   1       4.168  90.909 117.243  0.00  0.00     0.161 C 
ATOM      2  C   LIG d   1       4.756  91.759 118.194  0.00  0.00     0.016 C 
ATOM      3  C   LIG d   1       4.735  91.504 119.584  0.00  0.00     0.038 C 
ATOM      4  C   LIG d   1       4.254  90.295 120.109  0.00  0.00     0.028 C 
ATOM      5  C   LIG d   1       3.197  89.633 119.232  0.00  0.00    -0.047 C 
ATOM      6  C   LIG d   1       3.736  89.531 117.787  0.00  0.00     0.091 C 
ENDROOT
BRANCH   1   7
ATOM      7  O   LIG d   1       5.054  90.748 116.118  0.00  0.00    -0.368 OA
BRANCH   7   8
ATOM      8  C   LIG d   1       6.044  89.696 116.231  0.00  0.00     0.119 C 
BRANCH   8   9
ATOM      9  C   LIG d   1       7.433  90.360 116.185  0.00  0.00     0.028 C 
ATOM     10  C   LIG d   1       8.125  90.369 117.559  0.00  0.00     0.006 C 
ENDBRANCH   8   9
BRANCH   8  11
ATOM     11  C   LIG d   1       6.002  88.758 115.021  0.00  0.00     0.028 C 
ATOM     12  C   LIG d   1       6.612  87.378 115.315  0.00  0.00     0.006 C 
ENDBRANCH   8  11
ENDBRANCH   7   8
ENDBRANCH   1   7
BRANCH   6  13
ATOM     13  N   LIG d   1       2.731  88.971 116.845  0.00  0.00    -0.311 N 
ATOM     14  C   LIG d   1       2.683  87.684 116.505  0.00  0.00     0.210 C 
ATOM     15  C   LIG d   1       1.581  87.320 115.505  0.00  0.00     0.109 C 
ATOM     16  O   LIG d   1       3.427  86.803 116.962  0.00  0.00    -0.276 OA
ATOM     17  H   LIG d   1       2.069  89.610 116.452  0.00  0.00     0.149 HD
ENDBRANCH   6  13
BRANCH   5  18
ATOM     18  N   LIG d   1       2.884  88.319 119.826  0.00  0.00     0.381 N 
ATOM     19  H   LIG d   1       3.417  88.191 120.664  0.00  0.00    -0.090 HD
ATOM     20  H   LIG d   1       3.142  87.598 119.175  0.00  0.00    -0.090 HD
ATOM     21  H   LIG d   1       1.911  88.260 120.030  0.00  0.00    -0.090 HD
ENDBRANCH   5  18
BRANCH   3  22
ATOM     22  C   LIG d   1       5.165  92.482 120.469  0.00  0.00     0.382 C 
ATOM     23  O   LIG d   1       4.340  93.048 121.226  0.00  0.00    -0.241 OA
ATOM     24  O   LIG d   1       6.359  92.836 120.488  0.00  0.00    -0.241 OA
ENDBRANCH   3  22
TORSDOF 7
ENDMDL
MODEL 9
REMARK VINA RESULT:      -3.6      2.290      5.043
REMARK  7 active torsions:
REMARK  status: ('A' for Active; 'I' for Inactive)
REMARK    1  A    between atoms: C_2  and  C_3 
REMARK    2  A    between atoms: C_3  and  O_6 
REMARK    3  A    between atoms: C_3  and  C_4 
REMARK    4  A    between atoms: C_7  and  O_6 
REMARK    5  A    between atoms: C_9  and  C_10 
REMARK    6  A    between atoms: N_15  and  C_14 
REMARK    7  A    between atoms: N_20  and  C_19 
REMARK       I    between atoms: C_22  and  N_20 
ROOT
ATOM      1  C   LIG d   1       4.923  90.485 117.105  0.00  0.00     0.161 C 
ATOM      2  C   LIG d   1       5.492  91.662 117.618  0.00  0.00     0.016 C 
ATOM      3  C   LIG d   1       4.806  92.544 118.484  0.00  0.00     0.038 C 
ATOM      4  C   LIG d   1       3.548  92.229 119.020  0.00  0.00     0.028 C 
ATOM      5  C   LIG d   1       2.729  91.297 118.134  0.00  0.00    -0.047 C 
ATOM      6  C   LIG d   1       3.592  90.068 117.766  0.00  0.00     0.091 C 
ENDROOT
BRANCH   1   7
ATOM      7  O   LIG d   1       5.878  89.408 117.179  0.00  0.00    -0.368 OA
BRANCH   7   8
ATOM      8  C   LIG d   1       6.855  89.348 116.111  0.00  0.00     0.119 C 
BRANCH   8   9
ATOM      9  C   LIG d   1       6.082  89.325 114.778  0.00  0.00     0.028 C 
ATOM     10  C   LIG d   1       5.450  87.953 114.489  0.00  0.00     0.006 C 
ENDBRANCH   8   9
BRANCH   8  11
ATOM     11  C   LIG d   1       7.640  88.033 116.147  0.00  0.00     0.028 C 
ATOM     12  C   LIG d   1       8.814  88.067 117.138  0.00  0.00     0.006 C 
ENDBRANCH   8  11
ENDBRANCH   7   8
ENDBRANCH   1   7
BRANCH   6  13
ATOM     13  N   LIG d   1       2.896  89.145 116.832  0.00  0.00    -0.311 N 
ATOM     14  C   LIG d   1       2.635  87.871 117.119  0.00  0.00     0.210 C 
ATOM     15  C   LIG d   1       1.926  87.090 116.007  0.00  0.00     0.109 C 
ATOM     16  O   LIG d   1       2.895  87.322 118.200  0.00  0.00    -0.276 OA
ATOM     17  H   LIG d   1       2.621  89.517 115.944  0.00  0.00     0.149 HD
ENDBRANCH   6  13
BRANCH   5  18
ATOM     18  N   LIG d   1       1.504  90.942 118.874  0.00  0.00     0.381 N 
ATOM     19  H   LIG d   1       0.966  91.766 119.053  0.00  0.00    -0.090 HD
ATOM     20  H   LIG d   1       1.762  90.535 119.755  0.00  0.00    -0.090 HD
ATOM     21  H   LIG d   1       0.963  90.292 118.346  0.00  0.00    -0.090 HD
ENDBRANCH   5  18
BRANCH   3  22
ATOM     22  C   LIG d   1       5.363  93.777 118.792  0.00  0.00     0.382 C 
ATOM     23  O   LIG d   1       5.840  93.982 119.934  0.00  0.00    -0.241 OA
ATOM     24  O   LIG d   1       5.354  94.700 117.956  0.00  0.00    -0.241 OA
ENDBRANCH   3  22
TORSDOF 7
ENDMDL
