MODEL 1
REMARK VINA RESULT:      -5.4      0.000      0.000
REMARK  7 active torsions:
REMARK  status: ('A' for Active; 'I' for Inactive)
REMARK    1  A    between atoms: C_2  and  C_3 
REMARK    2  A    between atoms: C_3  and  O_6 
REMARK    3  A    between atoms: C_3  and  C_4 
REMARK    4  A    between atoms: C_7  and  O_6 
REMARK    5  A    between atoms: C_9  and  C_10 
REMARK    6  A    between atoms: N_15  and  C_14 
REMARK    7  A    between atoms: N_20  and  C_19 
REMARK       I    between atoms: C_22  and  N_20 
ROOT
ATOM      1  C   LIG d   1      -6.051  92.596 119.156  0.00  0.00     0.161 C 
ATOM      2  C   LIG d   1      -6.173  91.588 118.186  0.00  0.00     0.016 C 
ATOM      3  C   LIG d   1      -6.736  91.802 116.907  0.00  0.00     0.038 C 
ATOM      4  C   LIG d   1      -7.080  93.085 116.453  0.00  0.00     0.028 C 
ATOM      5  C   LIG d   1      -7.443  94.048 117.579  0.00  0.00    -0.047 C 
ATOM      6  C   LIG d   1      -6.319  94.026 118.640  0.00  0.00     0.091 C 
ENDROOT
BRANCH   1   7
ATOM      7  O   LIG d   1      -4.753  92.523 119.777  0.00  0.00    -0.368 OA
BRANCH   7   8
ATOM      8  C   LIG d   1      -3.798  91.630 119.153  0.00  0.00     0.119 C 
BRANCH   8   9
ATOM      9  C   LIG d   1      -3.340  90.620 120.223  0.00  0.00     0.028 C 
ATOM     10  C   LIG d   1      -3.289  89.179 119.688  0.00  0.00     0.006 C 
ENDBRANCH   8   9
BRANCH   8  11
ATOM     11  C   LIG d   1      -2.529  92.377 118.731  0.00  0.00     0.028 C 
ATOM     12  C   LIG d   1      -2.757  93.308 117.530  0.00  0.00     0.006 C 
ENDBRANCH   8  11
ENDBRANCH   7   8
ENDBRANCH   1   7
BRANCH   6  13
ATOM     13  N   LIG d   1      -6.633  94.877 119.816  0.00  0.00    -0.311 N 
ATOM     14  C   LIG d   1      -6.240  96.145 119.930  0.00  0.00     0.210 C 
ATOM     15  C   LIG d   1      -6.654  96.836 121.233  0.00  0.00     0.109 C 
ATOM     16  O   LIG d   1      -5.615  96.772 119.062  0.00  0.00    -0.276 OA
ATOM     17  H   LIG d   1      -7.164  94.457 120.555  0.00  0.00     0.149 HD
ENDBRANCH   6  13
BRANCH   5  18
ATOM     18  N   LIG d   1      -7.644  95.380 116.978  0.00  0.00     0.381 N 
ATOM     19  H   LIG d   1      -8.226  95.301 116.167  0.00  0.00    -0.090 HD
ATOM     20  H   LIG d   1      -6.753  95.746 116.692  0.00  0.00    -0.090 HD
ATOM     21  H   LIG d   1      -8.067  95.992 117.640  0.00  0.00    -0.090 HD
ENDBRANCH   5  18
BRANCH   3  22
ATOM     22  C   LIG d   1      -6.998  90.720 116.081  0.00  0.00     0.382 C 
ATOM     23  O   LIG d   1      -8.082  90.098 116.186  0.00  0.00    -0.241 OA
ATOM     24  O   LIG d   1      -6.144  90.330 115.261  0.00  0.00    -0.241 OA
ENDBRANCH   3  22
TORSDOF 7
ENDMDL
MODEL 2
REMARK VINA RESULT:      -5.4      2.057      2.332
REMARK  7 active torsions:
REMARK  status: ('A' for Active; 'I' for Inactive)
REMARK    1  A    between atoms: C_2  and  C_3 
REMARK    2  A    between atoms: C_3  and  O_6 
REMARK    3  A    between atoms: C_3  and  C_4 
REMARK    4  A    between atoms: C_7  and  O_6 
REMARK    5  A    between atoms: C_9  and  C_10 
REMARK    6  A    between atoms: N_15  and  C_14 
REMARK    7  A    between atoms: N_20  and  C_19 
REMARK       I    between atoms: C_22  and  N_20 
ROOT
ATOM      1  C   LIG d   1      -4.802  91.659 117.423  0.00  0.00     0.161 C 
ATOM      2  C   LIG d   1      -5.584  91.118 116.389  0.00  0.00     0.016 C 
ATOM      3  C   LIG d   1      -6.734  91.754 115.868  0.00  0.00     0.038 C 
ATOM      4  C   LIG d   1      -7.096  93.056 116.245  0.00  0.00     0.028 C 
ATOM      5  C   LIG d   1      -6.628  93.433 117.647  0.00  0.00    -0.047 C 
ATOM      6  C   LIG d   1      -5.117  93.129 117.770  0.00  0.00     0.091 C 
ENDROOT
BRANCH   1   7
ATOM      7  O   LIG d   1      -3.404  91.506 117.109  0.00  0.00    -0.368 OA
BRANCH   7   8
ATOM      8  C   LIG d   1      -2.687  90.500 117.865  0.00  0.00     0.119 C 
BRANCH   8   9
ATOM      9  C   LIG d   1      -3.596  90.060 119.029  0.00  0.00     0.028 C 
ATOM     10  C   LIG d   1      -2.963  90.334 120.404  0.00  0.00     0.006 C 
ENDBRANCH   8   9
BRANCH   8  11
ATOM     11  C   LIG d   1      -1.436  91.086 118.527  0.00  0.00     0.028 C 
ATOM     12  C   LIG d   1      -0.149  90.779 117.745  0.00  0.00     0.006 C 
ENDBRANCH   8  11
ENDBRANCH   7   8
ENDBRANCH   1   7
BRANCH   6  13
ATOM     13  N   LIG d   1      -4.596  93.390 119.137  0.00  0.00    -0.311 N 
ATOM     14  C   LIG d   1      -3.526  94.143 119.383  0.00  0.00     0.210 C 
ATOM     15  C   LIG d   1      -3.147  94.266 120.862  0.00  0.00     0.109 C 
ATOM     16  O   LIG d   1      -2.873  94.747 118.518  0.00  0.00    -0.276 OA
ATOM     17  H   LIG d   1      -5.084  92.963 119.900  0.00  0.00     0.149 HD
ENDBRANCH   6  13
BRANCH   5  18
ATOM     18  N   LIG d   1      -6.950  94.857 117.857  0.00  0.00     0.381 N 
ATOM     19  H   LIG d   1      -6.294  95.262 118.494  0.00  0.00    -0.090 HD
ATOM     20  H   LIG d   1      -7.867  94.926 118.262  0.00  0.00    -0.090 HD
ATOM     21  H   LIG d   1      -6.925  95.344 116.988  0.00  0.00    -0.090 HD
ENDBRANCH   5  18
BRANCH   3  22
ATOM     22  C   LIG d   1      -7.559  91.071 114.987  0.00  0.00     0.382 C 
ATOM     23  O   LIG d   1      -8.513  91.666 114.432  0.00  0.00    -0.241 OA
ATOM     24  O   LIG d   1      -7.387  89.855 114.776  0.00  0.00    -0.241 OA
ENDBRANCH   3  22
TORSDOF 7
ENDMDL
MODEL 3
REMARK VINA RESULT:      -5.3      2.233      4.967
REMARK  7 active torsions:
REMARK  status: ('A' for Active; 'I' for Inactive)
REMARK    1  A    between atoms: C_2  and  C_3 
REMARK    2  A    between atoms: C_3  and  O_6 
REMARK    3  A    between atoms: C_3  and  C_4 
REMARK    4  A    between atoms: C_7  and  O_6 
REMARK    5  A    between atoms: C_9  and  C_10 
REMARK    6  A    between atoms: N_15  and  C_14 
REMARK    7  A    between atoms: N_20  and  C_19 
REMARK       I    between atoms: C_22  and  N_20 
ROOT
ATOM      1  C   LIG d   1      -4.051  92.908 117.564  0.00  0.00     0.161 C 
ATOM      2  C   LIG d   1      -3.445  93.447 118.711  0.00  0.00     0.016 C 
ATOM      3  C   LIG d   1      -4.163  93.800 119.877  0.00  0.00     0.038 C 
ATOM      4  C   LIG d   1      -5.524  93.496 120.030  0.00  0.00     0.028 C 
ATOM      5  C   LIG d   1      -6.279  93.412 118.708  0.00  0.00    -0.047 C 
ATOM      6  C   LIG d   1      -5.517  92.465 117.753  0.00  0.00     0.091 C 
ENDROOT
BRANCH   1   7
ATOM      7  O   LIG d   1      -3.258  91.814 117.061  0.00  0.00    -0.368 OA
BRANCH   7   8
ATOM      8  C   LIG d   1      -2.459  91.104 118.039  0.00  0.00     0.119 C 
BRANCH   8   9
ATOM      9  C   LIG d   1      -1.053  90.913 117.438  0.00  0.00     0.028 C 
ATOM     10  C   LIG d   1      -0.445  89.544 117.790  0.00  0.00     0.006 C 
ENDBRANCH   8   9
BRANCH   8  11
ATOM     11  C   LIG d   1      -2.995  89.689 118.276  0.00  0.00     0.028 C 
ATOM     12  C   LIG d   1      -3.645  89.521 119.658  0.00  0.00     0.006 C 
ENDBRANCH   8  11
ENDBRANCH   7   8
ENDBRANCH   1   7
BRANCH   6  13
ATOM     13  N   LIG d   1      -6.142  92.393 116.407  0.00  0.00    -0.311 N 
ATOM     14  C   LIG d   1      -7.078  91.503 116.081  0.00  0.00     0.210 C 
ATOM     15  C   LIG d   1      -7.575  91.589 114.634  0.00  0.00     0.109 C 
ATOM     16  O   LIG d   1      -7.567  90.672 116.861  0.00  0.00    -0.276 OA
ATOM     17  H   LIG d   1      -5.827  93.051 115.722  0.00  0.00     0.149 HD
ENDBRANCH   6  13
BRANCH   5  18
ATOM     18  N   LIG d   1      -7.649  92.954 119.005  0.00  0.00     0.381 N 
ATOM     19  H   LIG d   1      -7.852  93.099 119.974  0.00  0.00    -0.090 HD
ATOM     20  H   LIG d   1      -7.711  91.969 118.814  0.00  0.00    -0.090 HD
ATOM     21  H   LIG d   1      -8.304  93.451 118.443  0.00  0.00    -0.090 HD
ENDBRANCH   5  18
BRANCH   3  22
ATOM     22  C   LIG d   1      -3.527  94.502 120.889  0.00  0.00     0.382 C 
ATOM     23  O   LIG d   1      -4.175  94.874 121.897  0.00  0.00    -0.241 OA
ATOM     24  O   LIG d   1      -2.324  94.807 120.787  0.00  0.00    -0.241 OA
ENDBRANCH   3  22
TORSDOF 7
ENDMDL
MODEL 4
REMARK VINA RESULT:      -5.0      1.802      4.569
REMARK  7 active torsions:
REMARK  status: ('A' for Active; 'I' for Inactive)
REMARK    1  A    between atoms: C_2  and  C_3 
REMARK    2  A    between atoms: C_3  and  O_6 
REMARK    3  A    between atoms: C_3  and  C_4 
REMARK    4  A    between atoms: C_7  and  O_6 
REMARK    5  A    between atoms: C_9  and  C_10 
REMARK    6  A    between atoms: N_15  and  C_14 
REMARK    7  A    between atoms: N_20  and  C_19 
REMARK       I    between atoms: C_22  and  N_20 
ROOT
ATOM      1  C   LIG d   1      -5.144  92.124 118.016  0.00  0.00     0.161 C 
ATOM      2  C   LIG d   1      -4.344  93.122 118.597  0.00  0.00     0.016 C 
ATOM      3  C   LIG d   1      -4.815  94.420 118.898  0.00  0.00     0.038 C 
ATOM      4  C   LIG d   1      -6.169  94.765 118.776  0.00  0.00     0.028 C 
ATOM      5  C   LIG d   1      -6.908  93.949 117.720  0.00  0.00    -0.047 C 
ATOM      6  C   LIG d   1      -6.653  92.447 117.978  0.00  0.00     0.091 C 
ENDROOT
BRANCH   1   7
ATOM      7  O   LIG d   1      -4.918  90.866 118.681  0.00  0.00    -0.368 OA
BRANCH   7   8
ATOM      8  C   LIG d   1      -3.566  90.624 119.143  0.00  0.00     0.119 C 
BRANCH   8   9
ATOM      9  C   LIG d   1      -2.980  89.486 118.285  0.00  0.00     0.028 C 
ATOM     10  C   LIG d   1      -1.770  88.811 118.953  0.00  0.00     0.006 C 
ENDBRANCH   8   9
BRANCH   8  11
ATOM     11  C   LIG d   1      -3.555  90.095 120.581  0.00  0.00     0.028 C 
ATOM     12  C   LIG d   1      -3.285  91.196 121.618  0.00  0.00     0.006 C 
ENDBRANCH   8  11
ENDBRANCH   7   8
ENDBRANCH   1   7
BRANCH   6  13
ATOM     13  N   LIG d   1      -7.272  91.581 116.940  0.00  0.00    -0.311 N 
ATOM     14  C   LIG d   1      -6.966  91.655 115.646  0.00  0.00     0.210 C 
ATOM     15  C   LIG d   1      -7.736  90.685 114.744  0.00  0.00     0.109 C 
ATOM     16  O   LIG d   1      -6.108  92.409 115.164  0.00  0.00    -0.276 OA
ATOM     17  H   LIG d   1      -7.956  90.918 117.248  0.00  0.00     0.149 HD
ENDBRANCH   6  13
BRANCH   5  18
ATOM     18  N   LIG d   1      -8.336  94.314 117.794  0.00  0.00     0.381 N 
ATOM     19  H   LIG d   1      -8.848  93.821 117.091  0.00  0.00    -0.090 HD
ATOM     20  H   LIG d   1      -8.429  95.300 117.620  0.00  0.00    -0.090 HD
ATOM     21  H   LIG d   1      -8.698  94.094 118.696  0.00  0.00    -0.090 HD
ENDBRANCH   5  18
BRANCH   3  22
ATOM     22  C   LIG d   1      -3.918  95.403 119.289  0.00  0.00     0.382 C 
ATOM     23  O   LIG d   1      -4.239  96.613 119.210  0.00  0.00    -0.241 OA
ATOM     24  O   LIG d   1      -2.775  95.096 119.679  0.00  0.00    -0.241 OA
ENDBRANCH   3  22
TORSDOF 7
ENDMDL
MODEL 5
REMARK VINA RESULT:      -4.8      1.686      2.195
REMARK  7 active torsions:
REMARK  status: ('A' for Active; 'I' for Inactive)
REMARK    1  A    between atoms: C_2  and  C_3 
REMARK    2  A    between atoms: C_3  and  O_6 
REMARK    3  A    between atoms: C_3  and  C_4 
REMARK    4  A    between atoms: C_7  and  O_6 
REMARK    5  A    between atoms: C_9  and  C_10 
REMARK    6  A    between atoms: N_15  and  C_14 
REMARK    7  A    between atoms: N_20  and  C_19 
REMARK       I    between atoms: C_22  and  N_20 
ROOT
ATOM      1  C   LIG d   1      -4.844  92.486 117.895  0.00  0.00     0.161 C 
ATOM      2  C   LIG d   1      -5.086  91.510 116.914  0.00  0.00     0.016 C 
ATOM      3  C   LIG d   1      -6.212  91.529 116.059  0.00  0.00     0.038 C 
ATOM      4  C   LIG d   1      -7.100  92.614 116.026  0.00  0.00     0.028 C 
ATOM      5  C   LIG d   1      -7.176  93.375 117.346  0.00  0.00    -0.047 C 
ATOM      6  C   LIG d   1      -5.743  93.737 117.799  0.00  0.00     0.091 C 
ENDROOT
BRANCH   1   7
ATOM      7  O   LIG d   1      -3.454  92.866 117.875  0.00  0.00    -0.368 OA
BRANCH   7   8
ATOM      8  C   LIG d   1      -2.668  92.468 119.025  0.00  0.00     0.119 C 
BRANCH   8   9
ATOM      9  C   LIG d   1      -1.415  91.740 118.501  0.00  0.00     0.028 C 
ATOM     10  C   LIG d   1      -0.230  91.832 119.477  0.00  0.00     0.006 C 
ENDBRANCH   8   9
BRANCH   8  11
ATOM     11  C   LIG d   1      -3.410  91.435 119.878  0.00  0.00     0.028 C 
ATOM     12  C   LIG d   1      -3.428  91.797 121.371  0.00  0.00     0.006 C 
ENDBRANCH   8  11
ENDBRANCH   7   8
ENDBRANCH   1   7
BRANCH   6  13
ATOM     13  N   LIG d   1      -5.721  94.410 119.124  0.00  0.00    -0.311 N 
ATOM     14  C   LIG d   1      -6.230  93.869 120.229  0.00  0.00     0.210 C 
ATOM     15  C   LIG d   1      -6.121  94.740 121.485  0.00  0.00     0.109 C 
ATOM     16  O   LIG d   1      -6.734  92.738 120.296  0.00  0.00    -0.276 OA
ATOM     17  H   LIG d   1      -5.303  95.318 119.167  0.00  0.00     0.149 HD
ENDBRANCH   6  13
BRANCH   5  18
ATOM     18  N   LIG d   1      -8.030  94.558 117.129  0.00  0.00     0.381 N 
ATOM     19  H   LIG d   1      -7.666  95.105 116.374  0.00  0.00    -0.090 HD
ATOM     20  H   LIG d   1      -8.020  95.123 117.960  0.00  0.00    -0.090 HD
ATOM     21  H   LIG d   1      -8.962  94.273 116.923  0.00  0.00    -0.090 HD
ENDBRANCH   5  18
BRANCH   3  22
ATOM     22  C   LIG d   1      -6.481  90.433 115.253  0.00  0.00     0.382 C 
ATOM     23  O   LIG d   1      -7.664  90.162 114.937  0.00  0.00    -0.241 OA
ATOM     24  O   LIG d   1      -5.558  89.686 114.874  0.00  0.00    -0.241 OA
ENDBRANCH   3  22
TORSDOF 7
ENDMDL
MODEL 6
REMARK VINA RESULT:      -4.7      2.335      4.167
REMARK  7 active torsions:
REMARK  status: ('A' for Active; 'I' for Inactive)
REMARK    1  A    between atoms: C_2  and  C_3 
REMARK    2  A    between atoms: C_3  and  O_6 
REMARK    3  A    between atoms: C_3  and  C_4 
REMARK    4  A    between atoms: C_7  and  O_6 
REMARK    5  A    between atoms: C_9  and  C_10 
REMARK    6  A    between atoms: N_15  and  C_14 
REMARK    7  A    between atoms: N_20  and  C_19 
REMARK       I    between atoms: C_22  and  N_20 
ROOT
ATOM      1  C   LIG d   1      -5.981  92.910 118.225  0.00  0.00     0.161 C 
ATOM      2  C   LIG d   1      -6.799  92.372 117.217  0.00  0.00     0.016 C 
ATOM      3  C   LIG d   1      -6.327  91.484 116.223  0.00  0.00     0.038 C 
ATOM      4  C   LIG d   1      -5.029  90.952 116.260  0.00  0.00     0.028 C 
ATOM      5  C   LIG d   1      -4.024  91.857 116.964  0.00  0.00    -0.047 C 
ATOM      6  C   LIG d   1      -4.589  92.255 118.347  0.00  0.00     0.091 C 
ENDROOT
BRANCH   1   7
ATOM      7  O   LIG d   1      -6.669  92.864 119.490  0.00  0.00    -0.368 OA
BRANCH   7   8
ATOM      8  C   LIG d   1      -6.989  94.143 120.090  0.00  0.00     0.119 C 
BRANCH   8   9
ATOM      9  C   LIG d   1      -8.522  94.294 120.071  0.00  0.00     0.028 C 
ATOM     10  C   LIG d   1      -9.079  94.796 121.413  0.00  0.00     0.006 C 
ENDBRANCH   8   9
BRANCH   8  11
ATOM     11  C   LIG d   1      -6.457  95.304 119.243  0.00  0.00     0.028 C 
ATOM     12  C   LIG d   1      -5.562  96.264 120.043  0.00  0.00     0.006 C 
ENDBRANCH   8  11
ENDBRANCH   7   8
ENDBRANCH   1   7
BRANCH   6  13
ATOM     13  N   LIG d   1      -3.705  93.208 119.067  0.00  0.00    -0.311 N 
ATOM     14  C   LIG d   1      -3.391  93.086 120.356  0.00  0.00     0.210 C 
ATOM     15  C   LIG d   1      -2.482  94.188 120.907  0.00  0.00     0.109 C 
ATOM     16  O   LIG d   1      -3.753  92.151 121.086  0.00  0.00    -0.276 OA
ATOM     17  H   LIG d   1      -3.342  93.980 118.543  0.00  0.00     0.149 HD
ENDBRANCH   6  13
BRANCH   5  18
ATOM     18  N   LIG d   1      -2.748  91.122 117.051  0.00  0.00     0.381 N 
ATOM     19  H   LIG d   1      -2.048  91.593 116.512  0.00  0.00    -0.090 HD
ATOM     20  H   LIG d   1      -2.875  90.202 116.668  0.00  0.00    -0.090 HD
ATOM     21  H   LIG d   1      -2.456  91.057 118.002  0.00  0.00    -0.090 HD
ENDBRANCH   5  18
BRANCH   3  22
ATOM     22  C   LIG d   1      -7.146  91.150 115.155  0.00  0.00     0.382 C 
ATOM     23  O   LIG d   1      -7.251  89.952 114.797  0.00  0.00    -0.241 OA
ATOM     24  O   LIG d   1      -7.745  92.036 114.518  0.00  0.00    -0.241 OA
ENDBRANCH   3  22
TORSDOF 7
ENDMDL
MODEL 7
REMARK VINA RESULT:      -4.7      2.792      4.682
REMARK  7 active torsions:
REMARK  status: ('A' for Active; 'I' for Inactive)
REMARK    1  A    between atoms: C_2  and  C_3 
REMARK    2  A    between atoms: C_3  and  O_6 
REMARK    3  A    between atoms: C_3  and  C_4 
REMARK    4  A    between atoms: C_7  and  O_6 
REMARK    5  A    between atoms: C_9  and  C_10 
REMARK    6  A    between atoms: N_15  and  C_14 
REMARK    7  A    between atoms: N_20  and  C_19 
REMARK       I    between atoms: C_22  and  N_20 
ROOT
ATOM      1  C   LIG d   1      -4.831  92.716 118.857  0.00  0.00     0.161 C 
ATOM      2  C   LIG d   1      -5.892  93.628 118.726  0.00  0.00     0.016 C 
ATOM      3  C   LIG d   1      -6.773  93.644 117.621  0.00  0.00     0.038 C 
ATOM      4  C   LIG d   1      -6.745  92.645 116.637  0.00  0.00     0.028 C 
ATOM      5  C   LIG d   1      -5.373  92.001 116.465  0.00  0.00    -0.047 C 
ATOM      6  C   LIG d   1      -4.854  91.549 117.849  0.00  0.00     0.091 C 
ENDROOT
BRANCH   1   7
ATOM      7  O   LIG d   1      -4.785  92.212 120.207  0.00  0.00    -0.368 OA
BRANCH   7   8
ATOM      8  C   LIG d   1      -3.828  92.846 121.091  0.00  0.00     0.119 C 
BRANCH   8   9
ATOM      9  C   LIG d   1      -2.993  93.825 120.244  0.00  0.00     0.028 C 
ATOM     10  C   LIG d   1      -3.117  95.278 120.733  0.00  0.00     0.006 C 
ENDBRANCH   8   9
BRANCH   8  11
ATOM     11  C   LIG d   1      -2.824  91.831 121.646  0.00  0.00     0.028 C 
ATOM     12  C   LIG d   1      -1.412  92.013 121.068  0.00  0.00     0.006 C 
ENDBRANCH   8  11
ENDBRANCH   7   8
ENDBRANCH   1   7
BRANCH   6  13
ATOM     13  N   LIG d   1      -3.481  90.985 117.782  0.00  0.00    -0.311 N 
ATOM     14  C   LIG d   1      -3.089  89.925 118.488  0.00  0.00     0.210 C 
ATOM     15  C   LIG d   1      -1.625  89.520 118.286  0.00  0.00     0.109 C 
ATOM     16  O   LIG d   1      -3.823  89.263 119.237  0.00  0.00    -0.276 OA
ATOM     17  H   LIG d   1      -2.829  91.442 117.175  0.00  0.00     0.149 HD
ENDBRANCH   6  13
BRANCH   5  18
ATOM     18  N   LIG d   1      -5.520  90.887 115.510  0.00  0.00     0.381 N 
ATOM     19  H   LIG d   1      -6.319  91.043 114.927  0.00  0.00    -0.090 HD
ATOM     20  H   LIG d   1      -5.666  90.036 116.023  0.00  0.00    -0.090 HD
ATOM     21  H   LIG d   1      -4.701  90.809 114.948  0.00  0.00    -0.090 HD
ENDBRANCH   5  18
BRANCH   3  22
ATOM     22  C   LIG d   1      -7.669  94.691 117.471  0.00  0.00     0.382 C 
ATOM     23  O   LIG d   1      -8.837  94.465 117.073  0.00  0.00    -0.241 OA
ATOM     24  O   LIG d   1      -7.311  95.865 117.686  0.00  0.00    -0.241 OA
ENDBRANCH   3  22
TORSDOF 7
ENDMDL
MODEL 8
REMARK VINA RESULT:      -4.7      2.299      5.306
REMARK  7 active torsions:
REMARK  status: ('A' for Active; 'I' for Inactive)
REMARK    1  A    between atoms: C_2  and  C_3 
REMARK    2  A    between atoms: C_3  and  O_6 
REMARK    3  A    between atoms: C_3  and  C_4 
REMARK    4  A    between atoms: C_7  and  O_6 
REMARK    5  A    between atoms: C_9  and  C_10 
REMARK    6  A    between atoms: N_15  and  C_14 
REMARK    7  A    between atoms: N_20  and  C_19 
REMARK       I    between atoms: C_22  and  N_20 
ROOT
ATOM      1  C   LIG d   1      -6.517  92.240 118.785  0.00  0.00     0.161 C 
ATOM      2  C   LIG d   1      -7.095  93.499 118.555  0.00  0.00     0.016 C 
ATOM      3  C   LIG d   1      -6.377  94.714 118.640  0.00  0.00     0.038 C 
ATOM      4  C   LIG d   1      -4.985  94.741 118.816  0.00  0.00     0.028 C 
ATOM      5  C   LIG d   1      -4.444  93.521 119.554  0.00  0.00    -0.047 C 
ATOM      6  C   LIG d   1      -4.976  92.242 118.868  0.00  0.00     0.091 C 
ENDROOT
BRANCH   1   7
ATOM      7  O   LIG d   1      -6.963  91.306 117.782  0.00  0.00    -0.368 OA
BRANCH   7   8
ATOM      8  C   LIG d   1      -6.764  91.707 116.404  0.00  0.00     0.119 C 
BRANCH   8   9
ATOM      9  C   LIG d   1      -7.737  90.884 115.538  0.00  0.00     0.028 C 
ATOM     10  C   LIG d   1      -8.396  91.728 114.434  0.00  0.00     0.006 C 
ENDBRANCH   8   9
BRANCH   8  11
ATOM     11  C   LIG d   1      -5.364  91.330 115.911  0.00  0.00     0.028 C 
ATOM     12  C   LIG d   1      -5.333  89.980 115.179  0.00  0.00     0.006 C 
ENDBRANCH   8  11
ENDBRANCH   7   8
ENDBRANCH   1   7
BRANCH   6  13
ATOM     13  N   LIG d   1      -4.562  91.004 119.579  0.00  0.00    -0.311 N 
ATOM     14  C   LIG d   1      -3.529  90.252 119.200  0.00  0.00     0.210 C 
ATOM     15  C   LIG d   1      -3.287  89.008 120.060  0.00  0.00     0.109 C 
ATOM     16  O   LIG d   1      -2.772  90.516 118.254  0.00  0.00    -0.276 OA
ATOM     17  H   LIG d   1      -5.103  90.734 120.376  0.00  0.00     0.149 HD
ENDBRANCH   6  13
BRANCH   5  18
ATOM     18  N   LIG d   1      -2.971  93.612 119.545  0.00  0.00     0.381 N 
ATOM     19  H   LIG d   1      -2.607  93.129 118.749  0.00  0.00    -0.090 HD
ATOM     20  H   LIG d   1      -2.613  93.171 120.374  0.00  0.00    -0.090 HD
ATOM     21  H   LIG d   1      -2.689  94.568 119.521  0.00  0.00    -0.090 HD
ENDBRANCH   5  18
BRANCH   3  22
ATOM     22  C   LIG d   1      -7.058  95.920 118.590  0.00  0.00     0.382 C 
ATOM     23  O   LIG d   1      -7.183  96.613 119.629  0.00  0.00    -0.241 OA
ATOM     24  O   LIG d   1      -7.586  96.304 117.529  0.00  0.00    -0.241 OA
ENDBRANCH   3  22
TORSDOF 7
ENDMDL
MODEL 9
REMARK VINA RESULT:      -4.6      2.526      4.245
REMARK  7 active torsions:
REMARK  status: ('A' for Active; 'I' for Inactive)
REMARK    1  A    between atoms: C_2  and  C_3 
REMARK    2  A    between atoms: C_3  and  O_6 
REMARK    3  A    between atoms: C_3  and  C_4 
REMARK    4  A    between atoms: C_7  and  O_6 
REMARK    5  A    between atoms: C_9  and  C_10 
REMARK    6  A    between atoms: N_15  and  C_14 
REMARK    7  A    between atoms: N_20  and  C_19 
REMARK       I    between atoms: C_22  and  N_20 
ROOT
ATOM      1  C   LIG d   1      -5.435  91.900 119.523  0.00  0.00     0.161 C 
ATOM      2  C   LIG d   1      -6.621  92.439 118.998  0.00  0.00     0.016 C 
ATOM      3  C   LIG d   1      -6.861  93.828 118.887  0.00  0.00     0.038 C 
ATOM      4  C   LIG d   1      -5.864  94.777 119.157  0.00  0.00     0.028 C 
ATOM      5  C   LIG d   1      -4.828  94.297 120.167  0.00  0.00    -0.047 C 
ATOM      6  C   LIG d   1      -4.292  92.918 119.719  0.00  0.00     0.091 C 
ENDROOT
BRANCH   1   7
ATOM      7  O   LIG d   1      -4.992  90.801 118.702  0.00  0.00    -0.368 OA
BRANCH   7   8
ATOM      8  C   LIG d   1      -4.189  91.152 117.548  0.00  0.00     0.119 C 
BRANCH   8   9
ATOM      9  C   LIG d   1      -4.948  90.675 116.294  0.00  0.00     0.028 C 
ATOM     10  C   LIG d   1      -5.688  91.821 115.585  0.00  0.00     0.006 C 
ENDBRANCH   8   9
BRANCH   8  11
ATOM     11  C   LIG d   1      -2.864  90.383 117.537  0.00  0.00     0.028 C 
ATOM     12  C   LIG d   1      -2.785  89.316 118.640  0.00  0.00     0.006 C 
ENDBRANCH   8  11
ENDBRANCH   7   8
ENDBRANCH   1   7
BRANCH   6  13
ATOM     13  N   LIG d   1      -3.335  92.337 120.697  0.00  0.00    -0.311 N 
ATOM     14  C   LIG d   1      -2.012  92.419 120.565  0.00  0.00     0.210 C 
ATOM     15  C   LIG d   1      -1.208  91.735 121.675  0.00  0.00     0.109 C 
ATOM     16  O   LIG d   1      -1.429  93.022 119.652  0.00  0.00    -0.276 OA
ATOM     17  H   LIG d   1      -3.723  91.857 121.485  0.00  0.00     0.149 HD
ENDBRANCH   6  13
BRANCH   5  18
ATOM     18  N   LIG d   1      -3.775  95.327 120.251  0.00  0.00     0.381 N 
ATOM     19  H   LIG d   1      -3.630  95.586 121.206  0.00  0.00    -0.090 HD
ATOM     20  H   LIG d   1      -4.077  96.141 119.745  0.00  0.00    -0.090 HD
ATOM     21  H   LIG d   1      -2.927  94.980 119.860  0.00  0.00    -0.090 HD
ENDBRANCH   5  18
BRANCH   3  22
ATOM     22  C   LIG d   1      -8.125  94.281 118.540  0.00  0.00     0.382 C 
ATOM     23  O   LIG d   1      -9.040  94.304 119.398  0.00  0.00    -0.241 OA
ATOM     24  O   LIG d   1      -8.373  94.626 117.369  0.00  0.00    -0.241 OA
ENDBRANCH   3  22
TORSDOF 7
ENDMDL
