MODEL 1
REMARK VINA RESULT:      -5.5      0.000      0.000
REMARK  7 active torsions:
REMARK  status: ('A' for Active; 'I' for Inactive)
REMARK    1  A    between atoms: C_2  and  C_3 
REMARK    2  A    between atoms: C_3  and  O_6 
REMARK    3  A    between atoms: C_3  and  C_4 
REMARK    4  A    between atoms: C_7  and  O_6 
REMARK    5  A    between atoms: C_9  and  C_10 
REMARK    6  A    between atoms: N_15  and  C_14 
REMARK    7  A    between atoms: N_20  and  C_19 
REMARK       I    between atoms: C_22  and  N_20 
ROOT
ATOM      1  C   LIG d   1      -4.533  92.047 117.760  0.00  0.00     0.161 C 
ATOM      2  C   LIG d   1      -4.627  91.125 116.704  0.00  0.00     0.016 C 
ATOM      3  C   LIG d   1      -5.795  90.951 115.926  0.00  0.00     0.038 C 
ATOM      4  C   LIG d   1      -6.905  91.798 116.054  0.00  0.00     0.028 C 
ATOM      5  C   LIG d   1      -7.043  92.410 117.444  0.00  0.00    -0.047 C 
ATOM      6  C   LIG d   1      -5.697  93.057 117.843  0.00  0.00     0.091 C 
ENDROOT
BRANCH   1   7
ATOM      7  O   LIG d   1      -3.272  92.740 117.693  0.00  0.00    -0.368 OA
BRANCH   7   8
ATOM      8  C   LIG d   1      -2.287  92.370 118.689  0.00  0.00     0.119 C 
BRANCH   8   9
ATOM      9  C   LIG d   1      -1.940  93.640 119.491  0.00  0.00     0.028 C 
ATOM     10  C   LIG d   1      -2.331  94.928 118.748  0.00  0.00     0.006 C 
ENDBRANCH   8   9
BRANCH   8  11
ATOM     11  C   LIG d   1      -0.973  91.930 118.037  0.00  0.00     0.028 C 
ATOM     12  C   LIG d   1      -0.949  90.432 117.697  0.00  0.00     0.006 C 
ENDBRANCH   8  11
ENDBRANCH   7   8
ENDBRANCH   1   7
BRANCH   6  13
ATOM     13  N   LIG d   1      -5.719  93.606 119.224  0.00  0.00    -0.311 N 
ATOM     14  C   LIG d   1      -6.013  94.874 119.504  0.00  0.00     0.210 C 
ATOM     15  C   LIG d   1      -5.959  95.237 120.992  0.00  0.00     0.109 C 
ATOM     16  O   LIG d   1      -6.345  95.725 118.666  0.00  0.00    -0.276 OA
ATOM     17  H   LIG d   1      -5.493  92.976 119.969  0.00  0.00     0.149 HD
ENDBRANCH   6  13
BRANCH   5  18
ATOM     18  N   LIG d   1      -8.157  93.375 117.398  0.00  0.00     0.381 N 
ATOM     19  H   LIG d   1      -8.918  92.990 116.874  0.00  0.00    -0.090 HD
ATOM     20  H   LIG d   1      -7.846  94.210 116.933  0.00  0.00    -0.090 HD
ATOM     21  H   LIG d   1      -8.458  93.593 118.322  0.00  0.00    -0.090 HD
ENDBRANCH   5  18
BRANCH   3  22
ATOM     22  C   LIG d   1      -5.873  89.893 115.033  0.00  0.00     0.382 C 
ATOM     23  O   LIG d   1      -6.949  89.658 114.431  0.00  0.00    -0.241 OA
ATOM     24  O   LIG d   1      -4.895  89.143 114.854  0.00  0.00    -0.241 OA
ENDBRANCH   3  22
TORSDOF 7
ENDMDL
MODEL 2
REMARK VINA RESULT:      -5.4      2.122      4.634
REMARK  7 active torsions:
REMARK  status: ('A' for Active; 'I' for Inactive)
REMARK    1  A    between atoms: C_2  and  C_3 
REMARK    2  A    between atoms: C_3  and  O_6 
REMARK    3  A    between atoms: C_3  and  C_4 
REMARK    4  A    between atoms: C_7  and  O_6 
REMARK    5  A    between atoms: C_9  and  C_10 
REMARK    6  A    between atoms: N_15  and  C_14 
REMARK    7  A    between atoms: N_20  and  C_19 
REMARK       I    between atoms: C_22  and  N_20 
ROOT
ATOM      1  C   LIG d   1      -6.280  93.336 117.914  0.00  0.00     0.161 C 
ATOM      2  C   LIG d   1      -7.013  92.450 117.106  0.00  0.00     0.016 C 
ATOM      3  C   LIG d   1      -6.438  91.335 116.454  0.00  0.00     0.038 C 
ATOM      4  C   LIG d   1      -5.113  90.940 116.689  0.00  0.00     0.028 C 
ATOM      5  C   LIG d   1      -4.201  92.092 117.100  0.00  0.00    -0.047 C 
ATOM      6  C   LIG d   1      -4.857  92.858 118.272  0.00  0.00     0.091 C 
ENDROOT
BRANCH   1   7
ATOM      7  O   LIG d   1      -7.024  93.634 119.112  0.00  0.00    -0.368 OA
BRANCH   7   8
ATOM      8  C   LIG d   1      -7.971  94.727 119.019  0.00  0.00     0.119 C 
BRANCH   8   9
ATOM      9  C   LIG d   1      -7.168  96.011 118.734  0.00  0.00     0.028 C 
ATOM     10  C   LIG d   1      -7.911  96.969 117.787  0.00  0.00     0.006 C 
ENDBRANCH   8   9
BRANCH   8  11
ATOM     11  C   LIG d   1      -8.670  94.974 120.358  0.00  0.00     0.028 C 
ATOM     12  C   LIG d   1     -10.153  94.571 120.340  0.00  0.00     0.006 C 
ENDBRANCH   8  11
ENDBRANCH   7   8
ENDBRANCH   1   7
BRANCH   6  13
ATOM     13  N   LIG d   1      -4.071  94.051 118.680  0.00  0.00    -0.311 N 
ATOM     14  C   LIG d   1      -3.164  94.033 119.655  0.00  0.00     0.210 C 
ATOM     15  C   LIG d   1      -2.482  95.377 119.928  0.00  0.00     0.109 C 
ATOM     16  O   LIG d   1      -2.837  93.025 120.299  0.00  0.00    -0.276 OA
ATOM     17  H   LIG d   1      -4.250  94.905 118.188  0.00  0.00     0.149 HD
ENDBRANCH   6  13
BRANCH   5  18
ATOM     18  N   LIG d   1      -2.887  91.519 117.446  0.00  0.00     0.381 N 
ATOM     19  H   LIG d   1      -2.715  90.706 116.889  0.00  0.00    -0.090 HD
ATOM     20  H   LIG d   1      -2.898  91.242 118.412  0.00  0.00    -0.090 HD
ATOM     21  H   LIG d   1      -2.170  92.193 117.294  0.00  0.00    -0.090 HD
ENDBRANCH   5  18
BRANCH   3  22
ATOM     22  C   LIG d   1      -7.182  90.625 115.524  0.00  0.00     0.382 C 
ATOM     23  O   LIG d   1      -7.223  89.372 115.579  0.00  0.00    -0.241 OA
ATOM     24  O   LIG d   1      -7.776  91.218 114.604  0.00  0.00    -0.241 OA
ENDBRANCH   3  22
TORSDOF 7
ENDMDL
MODEL 3
REMARK VINA RESULT:      -4.9      1.714      2.554
REMARK  7 active torsions:
REMARK  status: ('A' for Active; 'I' for Inactive)
REMARK    1  A    between atoms: C_2  and  C_3 
REMARK    2  A    between atoms: C_3  and  O_6 
REMARK    3  A    between atoms: C_3  and  C_4 
REMARK    4  A    between atoms: C_7  and  O_6 
REMARK    5  A    between atoms: C_9  and  C_10 
REMARK    6  A    between atoms: N_15  and  C_14 
REMARK    7  A    between atoms: N_20  and  C_19 
REMARK       I    between atoms: C_22  and  N_20 
ROOT
ATOM      1  C   LIG d   1      -4.100  91.236 117.638  0.00  0.00     0.161 C 
ATOM      2  C   LIG d   1      -4.748  90.637 116.545  0.00  0.00     0.016 C 
ATOM      3  C   LIG d   1      -5.938  91.143 115.973  0.00  0.00     0.038 C 
ATOM      4  C   LIG d   1      -6.482  92.376 116.363  0.00  0.00     0.028 C 
ATOM      5  C   LIG d   1      -6.145  92.760 117.800  0.00  0.00    -0.047 C 
ATOM      6  C   LIG d   1      -4.618  92.643 118.005  0.00  0.00     0.091 C 
ENDROOT
BRANCH   1   7
ATOM      7  O   LIG d   1      -2.678  91.271 117.404  0.00  0.00    -0.368 OA
BRANCH   7   8
ATOM      8  C   LIG d   1      -1.951  90.059 117.722  0.00  0.00     0.119 C 
BRANCH   8   9
ATOM      9  C   LIG d   1      -2.170  89.766 119.219  0.00  0.00     0.028 C 
ATOM     10  C   LIG d   1      -2.507  88.289 119.485  0.00  0.00     0.006 C 
ENDBRANCH   8   9
BRANCH   8  11
ATOM     11  C   LIG d   1      -0.440  90.258 117.565  0.00  0.00     0.028 C 
ATOM     12  C   LIG d   1       0.297  88.962 117.194  0.00  0.00     0.006 C 
ENDBRANCH   8  11
ENDBRANCH   7   8
ENDBRANCH   1   7
BRANCH   6  13
ATOM     13  N   LIG d   1      -4.211  92.920 119.408  0.00  0.00    -0.311 N 
ATOM     14  C   LIG d   1      -3.350  93.877 119.746  0.00  0.00     0.210 C 
ATOM     15  C   LIG d   1      -3.054  93.981 121.245  0.00  0.00     0.109 C 
ATOM     16  O   LIG d   1      -2.828  94.673 118.950  0.00  0.00    -0.276 OA
ATOM     17  H   LIG d   1      -4.611  92.342 120.121  0.00  0.00     0.149 HD
ENDBRANCH   6  13
BRANCH   5  18
ATOM     18  N   LIG d   1      -6.657  94.124 118.028  0.00  0.00     0.381 N 
ATOM     19  H   LIG d   1      -6.798  94.584 117.151  0.00  0.00    -0.090 HD
ATOM     20  H   LIG d   1      -5.973  94.644 118.551  0.00  0.00    -0.090 HD
ATOM     21  H   LIG d   1      -7.514  94.087 118.534  0.00  0.00    -0.090 HD
ENDBRANCH   5  18
BRANCH   3  22
ATOM     22  C   LIG d   1      -6.619  90.392 115.027  0.00  0.00     0.382 C 
ATOM     23  O   LIG d   1      -6.091  89.360 114.547  0.00  0.00    -0.241 OA
ATOM     24  O   LIG d   1      -7.736  90.759 114.614  0.00  0.00    -0.241 OA
ENDBRANCH   3  22
TORSDOF 7
ENDMDL
MODEL 4
REMARK VINA RESULT:      -4.5      1.714      4.976
REMARK  7 active torsions:
REMARK  status: ('A' for Active; 'I' for Inactive)
REMARK    1  A    between atoms: C_2  and  C_3 
REMARK    2  A    between atoms: C_3  and  O_6 
REMARK    3  A    between atoms: C_3  and  C_4 
REMARK    4  A    between atoms: C_7  and  O_6 
REMARK    5  A    between atoms: C_9  and  C_10 
REMARK    6  A    between atoms: N_15  and  C_14 
REMARK    7  A    between atoms: N_20  and  C_19 
REMARK       I    between atoms: C_22  and  N_20 
ROOT
ATOM      1  C   LIG d   1      -4.470  92.864 118.231  0.00  0.00     0.161 C 
ATOM      2  C   LIG d   1      -4.448  93.853 119.228  0.00  0.00     0.016 C 
ATOM      3  C   LIG d   1      -5.585  94.607 119.601  0.00  0.00     0.038 C 
ATOM      4  C   LIG d   1      -6.864  94.316 119.103  0.00  0.00     0.028 C 
ATOM      5  C   LIG d   1      -6.843  93.664 117.724  0.00  0.00    -0.047 C 
ATOM      6  C   LIG d   1      -5.880  92.455 117.755  0.00  0.00     0.091 C 
ENDROOT
BRANCH   1   7
ATOM      7  O   LIG d   1      -3.736  91.706 118.676  0.00  0.00    -0.368 OA
BRANCH   7   8
ATOM      8  C   LIG d   1      -2.293  91.788 118.574  0.00  0.00     0.119 C 
BRANCH   8   9
ATOM      9  C   LIG d   1      -1.809  90.527 117.832  0.00  0.00     0.028 C 
ATOM     10  C   LIG d   1      -2.974  89.659 117.327  0.00  0.00     0.006 C 
ENDBRANCH   8   9
BRANCH   8  11
ATOM     11  C   LIG d   1      -1.632  91.724 119.954  0.00  0.00     0.028 C 
ATOM     12  C   LIG d   1      -2.364  90.781 120.922  0.00  0.00     0.006 C 
ENDBRANCH   8  11
ENDBRANCH   7   8
ENDBRANCH   1   7
BRANCH   6  13
ATOM     13  N   LIG d   1      -5.736  91.811 116.424  0.00  0.00    -0.311 N 
ATOM     14  C   LIG d   1      -6.575  90.885 115.963  0.00  0.00     0.210 C 
ATOM     15  C   LIG d   1      -6.233  90.336 114.574  0.00  0.00     0.109 C 
ATOM     16  O   LIG d   1      -7.589  90.490 116.559  0.00  0.00    -0.276 OA
ATOM     17  H   LIG d   1      -4.958  92.095 115.861  0.00  0.00     0.149 HD
ENDBRANCH   6  13
BRANCH   5  18
ATOM     18  N   LIG d   1      -8.230  93.289 117.388  0.00  0.00     0.381 N 
ATOM     19  H   LIG d   1      -8.633  92.771 118.142  0.00  0.00    -0.090 HD
ATOM     20  H   LIG d   1      -8.219  92.702 116.572  0.00  0.00    -0.090 HD
ATOM     21  H   LIG d   1      -8.770  94.107 117.210  0.00  0.00    -0.090 HD
ENDBRANCH   5  18
BRANCH   3  22
ATOM     22  C   LIG d   1      -5.441  95.693 120.451  0.00  0.00     0.382 C 
ATOM     23  O   LIG d   1      -6.121  95.758 121.504  0.00  0.00    -0.241 OA
ATOM     24  O   LIG d   1      -4.673  96.628 120.157  0.00  0.00    -0.241 OA
ENDBRANCH   3  22
TORSDOF 7
ENDMDL
MODEL 5
REMARK VINA RESULT:      -4.4      2.292      5.074
REMARK  7 active torsions:
REMARK  status: ('A' for Active; 'I' for Inactive)
REMARK    1  A    between atoms: C_2  and  C_3 
REMARK    2  A    between atoms: C_3  and  O_6 
REMARK    3  A    between atoms: C_3  and  C_4 
REMARK    4  A    between atoms: C_7  and  O_6 
REMARK    5  A    between atoms: C_9  and  C_10 
REMARK    6  A    between atoms: N_15  and  C_14 
REMARK    7  A    between atoms: N_20  and  C_19 
REMARK       I    between atoms: C_22  and  N_20 
ROOT
ATOM      1  C   LIG d   1      -3.387  92.045 117.887  0.00  0.00     0.161 C 
ATOM      2  C   LIG d   1      -2.817  92.395 119.123  0.00  0.00     0.016 C 
ATOM      3  C   LIG d   1      -3.542  93.013 120.167  0.00  0.00     0.038 C 
ATOM      4  C   LIG d   1      -4.932  93.187 120.102  0.00  0.00     0.028 C 
ATOM      5  C   LIG d   1      -5.462  93.310 118.677  0.00  0.00    -0.047 C 
ATOM      6  C   LIG d   1      -4.927  92.126 117.840  0.00  0.00     0.091 C 
ENDROOT
BRANCH   1   7
ATOM      7  O   LIG d   1      -2.942  90.731 117.498  0.00  0.00    -0.368 OA
BRANCH   7   8
ATOM      8  C   LIG d   1      -1.928  90.127 118.339  0.00  0.00     0.119 C 
BRANCH   8   9
ATOM      9  C   LIG d   1      -0.742  89.744 117.432  0.00  0.00     0.028 C 
ATOM     10  C   LIG d   1      -0.505  88.226 117.385  0.00  0.00     0.006 C 
ENDBRANCH   8   9
BRANCH   8  11
ATOM     11  C   LIG d   1      -2.418  88.807 118.943  0.00  0.00     0.028 C 
ATOM     12  C   LIG d   1      -2.307  88.776 120.475  0.00  0.00     0.006 C 
ENDBRANCH   8  11
ENDBRANCH   7   8
ENDBRANCH   1   7
BRANCH   6  13
ATOM     13  N   LIG d   1      -5.329  92.215 116.412  0.00  0.00    -0.311 N 
ATOM     14  C   LIG d   1      -6.464  91.707 115.936  0.00  0.00     0.210 C 
ATOM     15  C   LIG d   1      -6.675  91.891 114.430  0.00  0.00     0.109 C 
ATOM     16  O   LIG d   1      -7.332  91.149 116.625  0.00  0.00    -0.276 OA
ATOM     17  H   LIG d   1      -4.697  92.679 115.788  0.00  0.00     0.149 HD
ENDBRANCH   6  13
BRANCH   5  18
ATOM     18  N   LIG d   1      -6.934  93.348 118.751  0.00  0.00     0.381 N 
ATOM     19  H   LIG d   1      -7.297  92.415 118.771  0.00  0.00    -0.090 HD
ATOM     20  H   LIG d   1      -7.289  93.806 117.930  0.00  0.00    -0.090 HD
ATOM     21  H   LIG d   1      -7.223  93.842 119.566  0.00  0.00    -0.090 HD
ENDBRANCH   5  18
BRANCH   3  22
ATOM     22  C   LIG d   1      -2.868  93.500 121.277  0.00  0.00     0.382 C 
ATOM     23  O   LIG d   1      -2.990  94.705 121.605  0.00  0.00    -0.241 OA
ATOM     24  O   LIG d   1      -2.106  92.762 121.928  0.00  0.00    -0.241 OA
ENDBRANCH   3  22
TORSDOF 7
ENDMDL
MODEL 6
REMARK VINA RESULT:      -4.3      1.616      2.653
REMARK  7 active torsions:
REMARK  status: ('A' for Active; 'I' for Inactive)
REMARK    1  A    between atoms: C_2  and  C_3 
REMARK    2  A    between atoms: C_3  and  O_6 
REMARK    3  A    between atoms: C_3  and  C_4 
REMARK    4  A    between atoms: C_7  and  O_6 
REMARK    5  A    between atoms: C_9  and  C_10 
REMARK    6  A    between atoms: N_15  and  C_14 
REMARK    7  A    between atoms: N_20  and  C_19 
REMARK       I    between atoms: C_22  and  N_20 
ROOT
ATOM      1  C   LIG d   1      -4.500  92.876 119.245  0.00  0.00     0.161 C 
ATOM      2  C   LIG d   1      -3.980  91.842 118.449  0.00  0.00     0.016 C 
ATOM      3  C   LIG d   1      -4.619  91.359 117.284  0.00  0.00     0.038 C 
ATOM      4  C   LIG d   1      -5.755  91.984 116.749  0.00  0.00     0.028 C 
ATOM      5  C   LIG d   1      -6.597  92.708 117.794  0.00  0.00    -0.047 C 
ATOM      6  C   LIG d   1      -5.681  93.644 118.615  0.00  0.00     0.091 C 
ENDROOT
BRANCH   1   7
ATOM      7  O   LIG d   1      -3.446  93.788 119.610  0.00  0.00    -0.368 OA
BRANCH   7   8
ATOM      8  C   LIG d   1      -3.200  94.879 118.689  0.00  0.00     0.119 C 
BRANCH   8   9
ATOM      9  C   LIG d   1      -1.782  94.689 118.116  0.00  0.00     0.028 C 
ATOM     10  C   LIG d   1      -0.866  93.899 119.066  0.00  0.00     0.006 C 
ENDBRANCH   8   9
BRANCH   8  11
ATOM     11  C   LIG d   1      -3.166  96.226 119.417  0.00  0.00     0.028 C 
ATOM     12  C   LIG d   1      -3.412  96.093 120.928  0.00  0.00     0.006 C 
ENDBRANCH   8  11
ENDBRANCH   7   8
ENDBRANCH   1   7
BRANCH   6  13
ATOM     13  N   LIG d   1      -6.410  94.329 119.715  0.00  0.00    -0.311 N 
ATOM     14  C   LIG d   1      -6.899  95.563 119.613  0.00  0.00     0.210 C 
ATOM     15  C   LIG d   1      -7.598  96.087 120.872  0.00  0.00     0.109 C 
ATOM     16  O   LIG d   1      -6.849  96.262 118.590  0.00  0.00    -0.276 OA
ATOM     17  H   LIG d   1      -6.523  93.822 120.571  0.00  0.00     0.149 HD
ENDBRANCH   6  13
BRANCH   5  18
ATOM     18  N   LIG d   1      -7.669  93.428 117.081  0.00  0.00     0.381 N 
ATOM     19  H   LIG d   1      -8.449  92.818 116.936  0.00  0.00    -0.090 HD
ATOM     20  H   LIG d   1      -7.325  93.719 116.183  0.00  0.00    -0.090 HD
ATOM     21  H   LIG d   1      -7.955  94.224 117.609  0.00  0.00    -0.090 HD
ENDBRANCH   5  18
BRANCH   3  22
ATOM     22  C   LIG d   1      -4.145  90.213 116.664  0.00  0.00     0.382 C 
ATOM     23  O   LIG d   1      -3.158  89.603 117.144  0.00  0.00    -0.241 OA
ATOM     24  O   LIG d   1      -4.662  89.806 115.607  0.00  0.00    -0.241 OA
ENDBRANCH   3  22
TORSDOF 7
ENDMDL
MODEL 7
REMARK VINA RESULT:      -4.2      2.573      3.880
REMARK  7 active torsions:
REMARK  status: ('A' for Active; 'I' for Inactive)
REMARK    1  A    between atoms: C_2  and  C_3 
REMARK    2  A    between atoms: C_3  and  O_6 
REMARK    3  A    between atoms: C_3  and  C_4 
REMARK    4  A    between atoms: C_7  and  O_6 
REMARK    5  A    between atoms: C_9  and  C_10 
REMARK    6  A    between atoms: N_15  and  C_14 
REMARK    7  A    between atoms: N_20  and  C_19 
REMARK       I    between atoms: C_22  and  N_20 
ROOT
ATOM      1  C   LIG d   1      -2.311  90.438 117.968  0.00  0.00     0.161 C 
ATOM      2  C   LIG d   1      -3.298  89.981 117.080  0.00  0.00     0.016 C 
ATOM      3  C   LIG d   1      -4.400  90.766 116.670  0.00  0.00     0.038 C 
ATOM      4  C   LIG d   1      -4.509  92.124 117.005  0.00  0.00     0.028 C 
ATOM      5  C   LIG d   1      -3.804  92.484 118.308  0.00  0.00    -0.047 C 
ATOM      6  C   LIG d   1      -2.353  91.953 118.257  0.00  0.00     0.091 C 
ENDROOT
BRANCH   1   7
ATOM      7  O   LIG d   1      -1.006  90.056 117.489  0.00  0.00    -0.368 OA
BRANCH   7   8
ATOM      8  C   LIG d   1      -0.103  89.499 118.475  0.00  0.00     0.119 C 
BRANCH   8   9
ATOM      9  C   LIG d   1       1.260  90.197 118.301  0.00  0.00     0.028 C 
ATOM     10  C   LIG d   1       1.225  91.290 117.220  0.00  0.00     0.006 C 
ENDBRANCH   8   9
BRANCH   8  11
ATOM     11  C   LIG d   1       0.165  88.014 118.210  0.00  0.00     0.028 C 
ATOM     12  C   LIG d   1       0.361  87.701 116.718  0.00  0.00     0.006 C 
ENDBRANCH   8  11
ENDBRANCH   7   8
ENDBRANCH   1   7
BRANCH   6  13
ATOM     13  N   LIG d   1      -1.618  92.190 119.527  0.00  0.00    -0.311 N 
ATOM     14  C   LIG d   1      -0.804  93.226 119.721  0.00  0.00     0.210 C 
ATOM     15  C   LIG d   1      -0.130  93.270 121.096  0.00  0.00     0.109 C 
ATOM     16  O   LIG d   1      -0.600  94.130 118.897  0.00  0.00    -0.276 OA
ATOM     17  H   LIG d   1      -1.749  91.521 120.261  0.00  0.00     0.149 HD
ENDBRANCH   6  13
BRANCH   5  18
ATOM     18  N   LIG d   1      -3.879  93.949 118.465  0.00  0.00     0.381 N 
ATOM     19  H   LIG d   1      -4.835  94.243 118.445  0.00  0.00    -0.090 HD
ATOM     20  H   LIG d   1      -3.398  94.383 117.697  0.00  0.00    -0.090 HD
ATOM     21  H   LIG d   1      -3.458  94.221 119.326  0.00  0.00    -0.090 HD
ENDBRANCH   5  18
BRANCH   3  22
ATOM     22  C   LIG d   1      -5.429  90.181 115.947  0.00  0.00     0.382 C 
ATOM     23  O   LIG d   1      -5.167  89.384 115.015  0.00  0.00    -0.241 OA
ATOM     24  O   LIG d   1      -6.616  90.475 116.188  0.00  0.00    -0.241 OA
ENDBRANCH   3  22
TORSDOF 7
ENDMDL
MODEL 8
REMARK VINA RESULT:      -4.2      2.296      4.900
REMARK  7 active torsions:
REMARK  status: ('A' for Active; 'I' for Inactive)
REMARK    1  A    between atoms: C_2  and  C_3 
REMARK    2  A    between atoms: C_3  and  O_6 
REMARK    3  A    between atoms: C_3  and  C_4 
REMARK    4  A    between atoms: C_7  and  O_6 
REMARK    5  A    between atoms: C_9  and  C_10 
REMARK    6  A    between atoms: N_15  and  C_14 
REMARK    7  A    between atoms: N_20  and  C_19 
REMARK       I    between atoms: C_22  and  N_20 
ROOT
ATOM      1  C   LIG d   1      -5.303  92.869 118.353  0.00  0.00     0.161 C 
ATOM      2  C   LIG d   1      -6.513  93.468 117.967  0.00  0.00     0.016 C 
ATOM      3  C   LIG d   1      -6.948  94.725 118.448  0.00  0.00     0.038 C 
ATOM      4  C   LIG d   1      -6.125  95.542 119.237  0.00  0.00     0.028 C 
ATOM      5  C   LIG d   1      -5.106  94.761 120.060  0.00  0.00    -0.047 C 
ATOM      6  C   LIG d   1      -4.341  93.795 119.127  0.00  0.00     0.091 C 
ENDROOT
BRANCH   1   7
ATOM      7  O   LIG d   1      -4.643  92.312 117.199  0.00  0.00    -0.368 OA
BRANCH   7   8
ATOM      8  C   LIG d   1      -4.634  90.866 117.106  0.00  0.00     0.119 C 
BRANCH   8   9
ATOM      9  C   LIG d   1      -3.162  90.410 117.133  0.00  0.00     0.028 C 
ATOM     10  C   LIG d   1      -2.863  89.461 118.305  0.00  0.00     0.006 C 
ENDBRANCH   8   9
BRANCH   8  11
ATOM     11  C   LIG d   1      -5.181  90.391 115.757  0.00  0.00     0.028 C 
ATOM     12  C   LIG d   1      -6.708  90.531 115.651  0.00  0.00     0.006 C 
ENDBRANCH   8  11
ENDBRANCH   7   8
ENDBRANCH   1   7
BRANCH   6  13
ATOM     13  N   LIG d   1      -3.383  92.932 119.866  0.00  0.00    -0.311 N 
ATOM     14  C   LIG d   1      -2.067  92.956 119.663  0.00  0.00     0.210 C 
ATOM     15  C   LIG d   1      -1.263  91.971 120.517  0.00  0.00     0.109 C 
ATOM     16  O   LIG d   1      -1.486  93.722 118.879  0.00  0.00    -0.276 OA
ATOM     17  H   LIG d   1      -3.766  92.302 120.543  0.00  0.00     0.149 HD
ENDBRANCH   6  13
BRANCH   5  18
ATOM     18  N   LIG d   1      -4.227  95.740 120.726  0.00  0.00     0.381 N 
ATOM     19  H   LIG d   1      -3.971  95.403 121.633  0.00  0.00    -0.090 HD
ATOM     20  H   LIG d   1      -4.729  96.603 120.841  0.00  0.00    -0.090 HD
ATOM     21  H   LIG d   1      -3.409  95.892 120.178  0.00  0.00    -0.090 HD
ENDBRANCH   5  18
BRANCH   3  22
ATOM     22  C   LIG d   1      -8.236  95.158 118.171  0.00  0.00     0.382 C 
ATOM     23  O   LIG d   1      -8.435  96.345 117.817  0.00  0.00    -0.241 OA
ATOM     24  O   LIG d   1      -9.205  94.390 118.315  0.00  0.00    -0.241 OA
ENDBRANCH   3  22
TORSDOF 7
ENDMDL
MODEL 9
REMARK VINA RESULT:      -4.2      2.085      4.149
REMARK  7 active torsions:
REMARK  status: ('A' for Active; 'I' for Inactive)
REMARK    1  A    between atoms: C_2  and  C_3 
REMARK    2  A    between atoms: C_3  and  O_6 
REMARK    3  A    between atoms: C_3  and  C_4 
REMARK    4  A    between atoms: C_7  and  O_6 
REMARK    5  A    between atoms: C_9  and  C_10 
REMARK    6  A    between atoms: N_15  and  C_14 
REMARK    7  A    between atoms: N_20  and  C_19 
REMARK       I    between atoms: C_22  and  N_20 
ROOT
ATOM      1  C   LIG d   1      -4.631  92.698 118.272  0.00  0.00     0.161 C 
ATOM      2  C   LIG d   1      -5.434  92.176 117.244  0.00  0.00     0.016 C 
ATOM      3  C   LIG d   1      -5.074  91.046 116.475  0.00  0.00     0.038 C 
ATOM      4  C   LIG d   1      -3.950  90.265 116.784  0.00  0.00     0.028 C 
ATOM      5  C   LIG d   1      -2.847  91.045 117.490  0.00  0.00    -0.047 C 
ATOM      6  C   LIG d   1      -3.455  91.794 118.697  0.00  0.00     0.091 C 
ENDROOT
BRANCH   1   7
ATOM      7  O   LIG d   1      -5.449  93.025 119.413  0.00  0.00    -0.368 OA
BRANCH   7   8
ATOM      8  C   LIG d   1      -5.946  94.385 119.472  0.00  0.00     0.119 C 
BRANCH   8   9
ATOM      9  C   LIG d   1      -4.872  95.240 120.171  0.00  0.00     0.028 C 
ATOM     10  C   LIG d   1      -4.324  96.352 119.260  0.00  0.00     0.006 C 
ENDBRANCH   8   9
BRANCH   8  11
ATOM     11  C   LIG d   1      -7.188  94.486 120.364  0.00  0.00     0.028 C 
ATOM     12  C   LIG d   1      -7.109  93.577 121.601  0.00  0.00     0.006 C 
ENDBRANCH   8  11
ENDBRANCH   7   8
ENDBRANCH   1   7
BRANCH   6  13
ATOM     13  N   LIG d   1      -2.459  92.650 119.394  0.00  0.00    -0.311 N 
ATOM     14  C   LIG d   1      -1.786  93.630 118.793  0.00  0.00     0.210 C 
ATOM     15  C   LIG d   1      -0.793  94.376 119.689  0.00  0.00     0.109 C 
ATOM     16  O   LIG d   1      -1.941  93.973 117.612  0.00  0.00    -0.276 OA
ATOM     17  H   LIG d   1      -2.294  92.461 120.363  0.00  0.00     0.149 HD
ENDBRANCH   6  13
BRANCH   5  18
ATOM     18  N   LIG d   1      -1.797  90.083 117.875  0.00  0.00     0.381 N 
ATOM     19  H   LIG d   1      -1.228  89.867 117.082  0.00  0.00    -0.090 HD
ATOM     20  H   LIG d   1      -2.234  89.235 118.190  0.00  0.00    -0.090 HD
ATOM     21  H   LIG d   1      -1.234  90.466 118.603  0.00  0.00    -0.090 HD
ENDBRANCH   5  18
BRANCH   3  22
ATOM     22  C   LIG d   1      -5.822  90.709 115.357  0.00  0.00     0.382 C 
ATOM     23  O   LIG d   1      -6.228  89.532 115.205  0.00  0.00    -0.241 OA
ATOM     24  O   LIG d   1      -6.059  91.558 114.477  0.00  0.00    -0.241 OA
ENDBRANCH   3  22
TORSDOF 7
ENDMDL
