MODEL 1
REMARK VINA RESULT:      -5.6      0.000      0.000
REMARK  7 active torsions:
REMARK  status: ('A' for Active; 'I' for Inactive)
REMARK    1  A    between atoms: C_2  and  C_3 
REMARK    2  A    between atoms: C_3  and  O_6 
REMARK    3  A    between atoms: C_3  and  C_4 
REMARK    4  A    between atoms: C_7  and  O_6 
REMARK    5  A    between atoms: C_9  and  C_10 
REMARK    6  A    between atoms: N_15  and  C_14 
REMARK    7  A    between atoms: N_20  and  C_19 
REMARK       I    between atoms: C_22  and  N_20 
ROOT
ATOM      1  C   LIG d   1      -4.656  91.978 117.656  0.00  0.00     0.161 C 
ATOM      2  C   LIG d   1      -5.158  91.429 116.464  0.00  0.00     0.016 C 
ATOM      3  C   LIG d   1      -6.473  91.653 115.997  0.00  0.00     0.038 C 
ATOM      4  C   LIG d   1      -7.334  92.570 116.618  0.00  0.00     0.028 C 
ATOM      5  C   LIG d   1      -7.047  92.761 118.103  0.00  0.00    -0.047 C 
ATOM      6  C   LIG d   1      -5.544  93.071 118.288  0.00  0.00     0.091 C 
ENDROOT
BRANCH   1   7
ATOM      7  O   LIG d   1      -3.322  92.480 117.439  0.00  0.00    -0.368 OA
BRANCH   7   8
ATOM      8  C   LIG d   1      -2.300  91.485 117.186  0.00  0.00     0.119 C 
BRANCH   8   9
ATOM      9  C   LIG d   1      -2.212  90.585 118.434  0.00  0.00     0.028 C 
ATOM     10  C   LIG d   1      -2.599  89.127 118.135  0.00  0.00     0.006 C 
ENDBRANCH   8   9
BRANCH   8  11
ATOM     11  C   LIG d   1      -0.917  92.128 117.052  0.00  0.00     0.028 C 
ATOM     12  C   LIG d   1      -0.957  93.659 117.181  0.00  0.00     0.006 C 
ENDBRANCH   8  11
ENDBRANCH   7   8
ENDBRANCH   1   7
BRANCH   6  13
ATOM     13  N   LIG d   1      -5.161  93.189 119.719  0.00  0.00    -0.311 N 
ATOM     14  C   LIG d   1      -4.668  94.303 120.257  0.00  0.00     0.210 C 
ATOM     15  C   LIG d   1      -4.320  94.204 121.746  0.00  0.00     0.109 C 
ATOM     16  O   LIG d   1      -4.517  95.374 119.650  0.00  0.00    -0.276 OA
ATOM     17  H   LIG d   1      -5.281  92.376 120.292  0.00  0.00     0.149 HD
ENDBRANCH   6  13
BRANCH   5  18
ATOM     18  N   LIG d   1      -7.924  93.842 118.592  0.00  0.00     0.381 N 
ATOM     19  H   LIG d   1      -8.704  93.451 119.081  0.00  0.00    -0.090 HD
ATOM     20  H   LIG d   1      -8.273  94.358 117.803  0.00  0.00    -0.090 HD
ATOM     21  H   LIG d   1      -7.414  94.449 119.196  0.00  0.00    -0.090 HD
ENDBRANCH   5  18
BRANCH   3  22
ATOM     22  C   LIG d   1      -6.954  90.924 114.920  0.00  0.00     0.382 C 
ATOM     23  O   LIG d   1      -8.076  91.195 114.430  0.00  0.00    -0.241 OA
ATOM     24  O   LIG d   1      -6.298  89.970 114.460  0.00  0.00    -0.241 OA
ENDBRANCH   3  22
TORSDOF 7
ENDMDL
MODEL 2
REMARK VINA RESULT:      -5.4      2.369      4.638
REMARK  7 active torsions:
REMARK  status: ('A' for Active; 'I' for Inactive)
REMARK    1  A    between atoms: C_2  and  C_3 
REMARK    2  A    between atoms: C_3  and  O_6 
REMARK    3  A    between atoms: C_3  and  C_4 
REMARK    4  A    between atoms: C_7  and  O_6 
REMARK    5  A    between atoms: C_9  and  C_10 
REMARK    6  A    between atoms: N_15  and  C_14 
REMARK    7  A    between atoms: N_20  and  C_19 
REMARK       I    between atoms: C_22  and  N_20 
ROOT
ATOM      1  C   LIG d   1      -5.792  93.065 118.279  0.00  0.00     0.161 C 
ATOM      2  C   LIG d   1      -6.702  92.494 117.374  0.00  0.00     0.016 C 
ATOM      3  C   LIG d   1      -6.321  91.593 116.353  0.00  0.00     0.038 C 
ATOM      4  C   LIG d   1      -5.018  91.081 116.262  0.00  0.00     0.028 C 
ATOM      5  C   LIG d   1      -3.960  92.015 116.840  0.00  0.00    -0.047 C 
ATOM      6  C   LIG d   1      -4.384  92.434 118.266  0.00  0.00     0.091 C 
ENDROOT
BRANCH   1   7
ATOM      7  O   LIG d   1      -6.343  93.034 119.610  0.00  0.00    -0.368 OA
BRANCH   7   8
ATOM      8  C   LIG d   1      -7.146  94.177 119.995  0.00  0.00     0.119 C 
BRANCH   8   9
ATOM      9  C   LIG d   1      -6.351  95.445 119.629  0.00  0.00     0.028 C 
ATOM     10  C   LIG d   1      -7.259  96.671 119.434  0.00  0.00     0.006 C 
ENDBRANCH   8   9
BRANCH   8  11
ATOM     11  C   LIG d   1      -7.335  94.240 121.513  0.00  0.00     0.028 C 
ATOM     12  C   LIG d   1      -8.815  94.265 121.929  0.00  0.00     0.006 C 
ENDBRANCH   8  11
ENDBRANCH   7   8
ENDBRANCH   1   7
BRANCH   6  13
ATOM     13  N   LIG d   1      -3.446  93.414 118.872  0.00  0.00    -0.311 N 
ATOM     14  C   LIG d   1      -2.795  93.198 120.014  0.00  0.00     0.210 C 
ATOM     15  C   LIG d   1      -1.892  94.347 120.472  0.00  0.00     0.109 C 
ATOM     16  O   LIG d   1      -2.856  92.150 120.675  0.00  0.00    -0.276 OA
ATOM     17  H   LIG d   1      -3.313  94.279 118.386  0.00  0.00     0.149 HD
ENDBRANCH   6  13
BRANCH   5  18
ATOM     18  N   LIG d   1      -2.669  91.302 116.806  0.00  0.00     0.381 N 
ATOM     19  H   LIG d   1      -2.742  90.446 117.319  0.00  0.00    -0.090 HD
ATOM     20  H   LIG d   1      -1.970  91.874 117.245  0.00  0.00    -0.090 HD
ATOM     21  H   LIG d   1      -2.409  91.111 115.863  0.00  0.00    -0.090 HD
ENDBRANCH   5  18
BRANCH   3  22
ATOM     22  C   LIG d   1      -7.242  91.225 115.383  0.00  0.00     0.382 C 
ATOM     23  O   LIG d   1      -7.678  90.049 115.347  0.00  0.00    -0.241 OA
ATOM     24  O   LIG d   1      -7.608  92.042 114.517  0.00  0.00    -0.241 OA
ENDBRANCH   3  22
TORSDOF 7
ENDMDL
MODEL 3
REMARK VINA RESULT:      -5.2      1.693      4.979
REMARK  7 active torsions:
REMARK  status: ('A' for Active; 'I' for Inactive)
REMARK    1  A    between atoms: C_2  and  C_3 
REMARK    2  A    between atoms: C_3  and  O_6 
REMARK    3  A    between atoms: C_3  and  C_4 
REMARK    4  A    between atoms: C_7  and  O_6 
REMARK    5  A    between atoms: C_9  and  C_10 
REMARK    6  A    between atoms: N_15  and  C_14 
REMARK    7  A    between atoms: N_20  and  C_19 
REMARK       I    between atoms: C_22  and  N_20 
ROOT
ATOM      1  C   LIG d   1      -5.015  93.036 118.637  0.00  0.00     0.161 C 
ATOM      2  C   LIG d   1      -5.061  93.861 119.773  0.00  0.00     0.016 C 
ATOM      3  C   LIG d   1      -6.174  94.668 120.105  0.00  0.00     0.038 C 
ATOM      4  C   LIG d   1      -7.384  94.588 119.399  0.00  0.00     0.028 C 
ATOM      5  C   LIG d   1      -7.212  94.146 117.949  0.00  0.00    -0.047 C 
ATOM      6  C   LIG d   1      -6.367  92.852 117.916  0.00  0.00     0.091 C 
ENDROOT
BRANCH   1   7
ATOM      7  O   LIG d   1      -4.455  91.755 118.986  0.00  0.00    -0.368 OA
BRANCH   7   8
ATOM      8  C   LIG d   1      -3.142  91.465 118.446  0.00  0.00     0.119 C 
BRANCH   8   9
ATOM      9  C   LIG d   1      -2.874  92.475 117.313  0.00  0.00     0.028 C 
ATOM     10  C   LIG d   1      -1.518  93.184 117.468  0.00  0.00     0.006 C 
ENDBRANCH   8   9
BRANCH   8  11
ATOM     11  C   LIG d   1      -3.105  90.087 117.778  0.00  0.00     0.028 C 
ATOM     12  C   LIG d   1      -1.728  89.414 117.877  0.00  0.00     0.006 C 
ENDBRANCH   8  11
ENDBRANCH   7   8
ENDBRANCH   1   7
BRANCH   6  13
ATOM     13  N   LIG d   1      -6.080  92.398 116.531  0.00  0.00    -0.311 N 
ATOM     14  C   LIG d   1      -6.738  91.406 115.933  0.00  0.00     0.210 C 
ATOM     15  C   LIG d   1      -6.270  91.084 114.510  0.00  0.00     0.109 C 
ATOM     16  O   LIG d   1      -7.687  90.783 116.434  0.00  0.00    -0.276 OA
ATOM     17  H   LIG d   1      -5.346  92.869 116.039  0.00  0.00     0.149 HD
ENDBRANCH   6  13
BRANCH   5  18
ATOM     18  N   LIG d   1      -8.558  93.973 117.373  0.00  0.00     0.381 N 
ATOM     19  H   LIG d   1      -8.536  94.171 116.393  0.00  0.00    -0.090 HD
ATOM     20  H   LIG d   1      -9.186  94.623 117.812  0.00  0.00    -0.090 HD
ATOM     21  H   LIG d   1      -8.876  93.040 117.523  0.00  0.00    -0.090 HD
ENDBRANCH   5  18
BRANCH   3  22
ATOM     22  C   LIG d   1      -6.069  95.596 121.129  0.00  0.00     0.382 C 
ATOM     23  O   LIG d   1      -7.014  96.390 121.355  0.00  0.00    -0.241 OA
ATOM     24  O   LIG d   1      -5.025  95.678 121.803  0.00  0.00    -0.241 OA
ENDBRANCH   3  22
TORSDOF 7
ENDMDL
MODEL 4
REMARK VINA RESULT:      -5.2      2.549      4.341
REMARK  7 active torsions:
REMARK  status: ('A' for Active; 'I' for Inactive)
REMARK    1  A    between atoms: C_2  and  C_3 
REMARK    2  A    between atoms: C_3  and  O_6 
REMARK    3  A    between atoms: C_3  and  C_4 
REMARK    4  A    between atoms: C_7  and  O_6 
REMARK    5  A    between atoms: C_9  and  C_10 
REMARK    6  A    between atoms: N_15  and  C_14 
REMARK    7  A    between atoms: N_20  and  C_19 
REMARK       I    between atoms: C_22  and  N_20 
ROOT
ATOM      1  C   LIG d   1      -4.507  92.697 118.819  0.00  0.00     0.161 C 
ATOM      2  C   LIG d   1      -5.731  93.385 118.874  0.00  0.00     0.016 C 
ATOM      3  C   LIG d   1      -6.761  93.217 117.920  0.00  0.00     0.038 C 
ATOM      4  C   LIG d   1      -6.697  92.230 116.925  0.00  0.00     0.028 C 
ATOM      5  C   LIG d   1      -5.271  91.863 116.528  0.00  0.00    -0.047 C 
ATOM      6  C   LIG d   1      -4.463  91.536 117.804  0.00  0.00     0.091 C 
ENDROOT
BRANCH   1   7
ATOM      7  O   LIG d   1      -4.152  92.227 120.134  0.00  0.00    -0.368 OA
BRANCH   7   8
ATOM      8  C   LIG d   1      -3.037  92.898 120.771  0.00  0.00     0.119 C 
BRANCH   8   9
ATOM      9  C   LIG d   1      -3.612  93.804 121.877  0.00  0.00     0.028 C 
ATOM     10  C   LIG d   1      -3.640  95.286 121.466  0.00  0.00     0.006 C 
ENDBRANCH   8   9
BRANCH   8  11
ATOM     11  C   LIG d   1      -2.327  93.845 119.799  0.00  0.00     0.028 C 
ATOM     12  C   LIG d   1      -0.873  93.434 119.521  0.00  0.00     0.006 C 
ENDBRANCH   8  11
ENDBRANCH   7   8
ENDBRANCH   1   7
BRANCH   6  13
ATOM     13  N   LIG d   1      -3.034  91.248 117.512  0.00  0.00    -0.311 N 
ATOM     14  C   LIG d   1      -2.380  90.202 118.014  0.00  0.00     0.210 C 
ATOM     15  C   LIG d   1      -0.908  90.102 117.603  0.00  0.00     0.109 C 
ATOM     16  O   LIG d   1      -2.887  89.330 118.735  0.00  0.00    -0.276 OA
ATOM     17  H   LIG d   1      -2.553  91.888 116.911  0.00  0.00     0.149 HD
ENDBRANCH   6  13
BRANCH   5  18
ATOM     18  N   LIG d   1      -5.348  90.730 115.586  0.00  0.00     0.381 N 
ATOM     19  H   LIG d   1      -6.291  90.616 115.270  0.00  0.00    -0.090 HD
ATOM     20  H   LIG d   1      -5.072  89.891 116.064  0.00  0.00    -0.090 HD
ATOM     21  H   LIG d   1      -4.747  90.891 114.808  0.00  0.00    -0.090 HD
ENDBRANCH   5  18
BRANCH   3  22
ATOM     22  C   LIG d   1      -7.855  94.069 117.933  0.00  0.00     0.382 C 
ATOM     23  O   LIG d   1      -8.958  93.680 117.478  0.00  0.00    -0.241 OA
ATOM     24  O   LIG d   1      -7.742  95.236 118.352  0.00  0.00    -0.241 OA
ENDBRANCH   3  22
TORSDOF 7
ENDMDL
MODEL 5
REMARK VINA RESULT:      -5.1      2.790      6.050
REMARK  7 active torsions:
REMARK  status: ('A' for Active; 'I' for Inactive)
REMARK    1  A    between atoms: C_2  and  C_3 
REMARK    2  A    between atoms: C_3  and  O_6 
REMARK    3  A    between atoms: C_3  and  C_4 
REMARK    4  A    between atoms: C_7  and  O_6 
REMARK    5  A    between atoms: C_9  and  C_10 
REMARK    6  A    between atoms: N_15  and  C_14 
REMARK    7  A    between atoms: N_20  and  C_19 
REMARK       I    between atoms: C_22  and  N_20 
ROOT
ATOM      1  C   LIG d   1      -0.960  91.338 116.999  0.00  0.00     0.161 C 
ATOM      2  C   LIG d   1       0.236  91.860 117.520  0.00  0.00     0.016 C 
ATOM      3  C   LIG d   1       0.308  93.076 118.238  0.00  0.00     0.038 C 
ATOM      4  C   LIG d   1      -0.844  93.781 118.617  0.00  0.00     0.028 C 
ATOM      5  C   LIG d   1      -2.027  93.557 117.681  0.00  0.00    -0.047 C 
ATOM      6  C   LIG d   1      -2.241  92.037 117.499  0.00  0.00     0.091 C 
ENDROOT
BRANCH   1   7
ATOM      7  O   LIG d   1      -1.028  89.921 117.258  0.00  0.00    -0.368 OA
BRANCH   7   8
ATOM      8  C   LIG d   1      -1.440  89.537 118.593  0.00  0.00     0.119 C 
BRANCH   8   9
ATOM      9  C   LIG d   1      -0.368  88.581 119.151  0.00  0.00     0.028 C 
ATOM     10  C   LIG d   1       0.407  87.855 118.039  0.00  0.00     0.006 C 
ENDBRANCH   8   9
BRANCH   8  11
ATOM     11  C   LIG d   1      -2.735  88.719 118.562  0.00  0.00     0.028 C 
ATOM     12  C   LIG d   1      -3.130  88.176 119.945  0.00  0.00     0.006 C 
ENDBRANCH   8  11
ENDBRANCH   7   8
ENDBRANCH   1   7
BRANCH   6  13
ATOM     13  N   LIG d   1      -3.327  91.729 116.531  0.00  0.00    -0.311 N 
ATOM     14  C   LIG d   1      -4.599  91.560 116.887  0.00  0.00     0.210 C 
ATOM     15  C   LIG d   1      -5.554  91.230 115.735  0.00  0.00     0.109 C 
ATOM     16  O   LIG d   1      -5.033  91.683 118.042  0.00  0.00    -0.276 OA
ATOM     17  H   LIG d   1      -3.069  91.643 115.568  0.00  0.00     0.149 HD
ENDBRANCH   6  13
BRANCH   5  18
ATOM     18  N   LIG d   1      -3.196  94.239 118.269  0.00  0.00     0.381 N 
ATOM     19  H   LIG d   1      -3.042  95.227 118.279  0.00  0.00    -0.090 HD
ATOM     20  H   LIG d   1      -3.310  93.928 119.218  0.00  0.00    -0.090 HD
ATOM     21  H   LIG d   1      -4.014  94.028 117.742  0.00  0.00    -0.090 HD
ENDBRANCH   5  18
BRANCH   3  22
ATOM     22  C   LIG d   1       1.545  93.618 118.549  0.00  0.00     0.382 C 
ATOM     23  O   LIG d   1       2.586  93.142 118.035  0.00  0.00    -0.241 OA
ATOM     24  O   LIG d   1       1.637  94.549 119.372  0.00  0.00    -0.241 OA
ENDBRANCH   3  22
TORSDOF 7
ENDMDL
MODEL 6
REMARK VINA RESULT:      -5.0      1.359      2.070
REMARK  7 active torsions:
REMARK  status: ('A' for Active; 'I' for Inactive)
REMARK    1  A    between atoms: C_2  and  C_3 
REMARK    2  A    between atoms: C_3  and  O_6 
REMARK    3  A    between atoms: C_3  and  C_4 
REMARK    4  A    between atoms: C_7  and  O_6 
REMARK    5  A    between atoms: C_9  and  C_10 
REMARK    6  A    between atoms: N_15  and  C_14 
REMARK    7  A    between atoms: N_20  and  C_19 
REMARK       I    between atoms: C_22  and  N_20 
ROOT
ATOM      1  C   LIG d   1      -5.111  92.446 118.227  0.00  0.00     0.161 C 
ATOM      2  C   LIG d   1      -5.388  91.624 117.122  0.00  0.00     0.016 C 
ATOM      3  C   LIG d   1      -6.561  91.741 116.340  0.00  0.00     0.038 C 
ATOM      4  C   LIG d   1      -7.470  92.793 116.520  0.00  0.00     0.028 C 
ATOM      5  C   LIG d   1      -7.487  93.343 117.943  0.00  0.00    -0.047 C 
ATOM      6  C   LIG d   1      -6.038  93.671 118.370  0.00  0.00     0.091 C 
ENDROOT
BRANCH   1   7
ATOM      7  O   LIG d   1      -3.732  92.863 118.192  0.00  0.00    -0.368 OA
BRANCH   7   8
ATOM      8  C   LIG d   1      -2.920  92.478 119.329  0.00  0.00     0.119 C 
BRANCH   8   9
ATOM      9  C   LIG d   1      -1.536  93.133 119.153  0.00  0.00     0.028 C 
ATOM     10  C   LIG d   1      -1.632  94.572 118.620  0.00  0.00     0.006 C 
ENDBRANCH   8   9
BRANCH   8  11
ATOM     11  C   LIG d   1      -2.657  90.970 119.340  0.00  0.00     0.028 C 
ATOM     12  C   LIG d   1      -1.357  90.586 118.615  0.00  0.00     0.006 C 
ENDBRANCH   8  11
ENDBRANCH   7   8
ENDBRANCH   1   7
BRANCH   6  13
ATOM     13  N   LIG d   1      -5.954  94.136 119.780  0.00  0.00    -0.311 N 
ATOM     14  C   LIG d   1      -5.947  95.421 120.129  0.00  0.00     0.210 C 
ATOM     15  C   LIG d   1      -5.835  95.681 121.634  0.00  0.00     0.109 C 
ATOM     16  O   LIG d   1      -6.056  96.370 119.337  0.00  0.00    -0.276 OA
ATOM     17  H   LIG d   1      -5.895  93.432 120.489  0.00  0.00     0.149 HD
ENDBRANCH   6  13
BRANCH   5  18
ATOM     18  N   LIG d   1      -8.374  94.521 117.955  0.00  0.00     0.381 N 
ATOM     19  H   LIG d   1      -9.328  94.226 118.024  0.00  0.00    -0.090 HD
ATOM     20  H   LIG d   1      -8.261  95.023 117.092  0.00  0.00    -0.090 HD
ATOM     21  H   LIG d   1      -8.146  95.112 118.724  0.00  0.00    -0.090 HD
ENDBRANCH   5  18
BRANCH   3  22
ATOM     22  C   LIG d   1      -6.852  90.773 115.391  0.00  0.00     0.382 C 
ATOM     23  O   LIG d   1      -7.874  90.056 115.520  0.00  0.00    -0.241 OA
ATOM     24  O   LIG d   1      -6.084  90.579 114.430  0.00  0.00    -0.241 OA
ENDBRANCH   3  22
TORSDOF 7
ENDMDL
MODEL 7
REMARK VINA RESULT:      -4.9      3.470      6.735
REMARK  7 active torsions:
REMARK  status: ('A' for Active; 'I' for Inactive)
REMARK    1  A    between atoms: C_2  and  C_3 
REMARK    2  A    between atoms: C_3  and  O_6 
REMARK    3  A    between atoms: C_3  and  C_4 
REMARK    4  A    between atoms: C_7  and  O_6 
REMARK    5  A    between atoms: C_9  and  C_10 
REMARK    6  A    between atoms: N_15  and  C_14 
REMARK    7  A    between atoms: N_20  and  C_19 
REMARK       I    between atoms: C_22  and  N_20 
ROOT
ATOM      1  C   LIG d   1      -0.366  90.406 117.753  0.00  0.00     0.161 C 
ATOM      2  C   LIG d   1       1.017  90.555 117.950  0.00  0.00     0.016 C 
ATOM      3  C   LIG d   1       1.712  91.761 117.704  0.00  0.00     0.038 C 
ATOM      4  C   LIG d   1       1.042  92.952 117.386  0.00  0.00     0.028 C 
ATOM      5  C   LIG d   1      -0.294  92.727 116.686  0.00  0.00    -0.047 C 
ATOM      6  C   LIG d   1      -1.131  91.724 117.513  0.00  0.00     0.091 C 
ENDROOT
BRANCH   1   7
ATOM      7  O   LIG d   1      -0.942  89.686 118.861  0.00  0.00    -0.368 OA
BRANCH   7   8
ATOM      8  C   LIG d   1      -1.615  88.445 118.534  0.00  0.00     0.119 C 
BRANCH   8   9
ATOM      9  C   LIG d   1      -3.055  88.543 119.073  0.00  0.00     0.028 C 
ATOM     10  C   LIG d   1      -3.269  87.687 120.333  0.00  0.00     0.006 C 
ENDBRANCH   8   9
BRANCH   8  11
ATOM     11  C   LIG d   1      -0.986  87.259 119.271  0.00  0.00     0.028 C 
ATOM     12  C   LIG d   1       0.173  86.619 118.490  0.00  0.00     0.006 C 
ENDBRANCH   8  11
ENDBRANCH   7   8
ENDBRANCH   1   7
BRANCH   6  13
ATOM     13  N   LIG d   1      -2.419  91.383 116.855  0.00  0.00    -0.311 N 
ATOM     14  C   LIG d   1      -3.577  91.963 117.166  0.00  0.00     0.210 C 
ATOM     15  C   LIG d   1      -4.789  91.450 116.382  0.00  0.00     0.109 C 
ATOM     16  O   LIG d   1      -3.711  92.876 117.995  0.00  0.00    -0.276 OA
ATOM     17  H   LIG d   1      -2.397  90.674 116.149  0.00  0.00     0.149 HD
ENDBRANCH   6  13
BRANCH   5  18
ATOM     18  N   LIG d   1      -0.947  94.041 116.538  0.00  0.00     0.381 N 
ATOM     19  H   LIG d   1      -1.170  94.202 115.576  0.00  0.00    -0.090 HD
ATOM     20  H   LIG d   1      -0.308  94.757 116.837  0.00  0.00    -0.090 HD
ATOM     21  H   LIG d   1      -1.776  94.074 117.089  0.00  0.00    -0.090 HD
ENDBRANCH   5  18
BRANCH   3  22
ATOM     22  C   LIG d   1       3.099  91.775 117.736  0.00  0.00     0.382 C 
ATOM     23  O   LIG d   1       3.714  91.020 118.527  0.00  0.00    -0.241 OA
ATOM     24  O   LIG d   1       3.740  92.563 117.017  0.00  0.00    -0.241 OA
ENDBRANCH   3  22
TORSDOF 7
ENDMDL
MODEL 8
REMARK VINA RESULT:      -4.8      2.116      3.168
REMARK  7 active torsions:
REMARK  status: ('A' for Active; 'I' for Inactive)
REMARK    1  A    between atoms: C_2  and  C_3 
REMARK    2  A    between atoms: C_3  and  O_6 
REMARK    3  A    between atoms: C_3  and  C_4 
REMARK    4  A    between atoms: C_7  and  O_6 
REMARK    5  A    between atoms: C_9  and  C_10 
REMARK    6  A    between atoms: N_15  and  C_14 
REMARK    7  A    between atoms: N_20  and  C_19 
REMARK       I    between atoms: C_22  and  N_20 
ROOT
ATOM      1  C   LIG d   1      -5.445  93.727 119.381  0.00  0.00     0.161 C 
ATOM      2  C   LIG d   1      -4.933  92.679 118.598  0.00  0.00     0.016 C 
ATOM      3  C   LIG d   1      -5.603  92.150 117.471  0.00  0.00     0.038 C 
ATOM      4  C   LIG d   1      -6.768  92.740 116.957  0.00  0.00     0.028 C 
ATOM      5  C   LIG d   1      -7.587  93.480 118.009  0.00  0.00    -0.047 C 
ATOM      6  C   LIG d   1      -6.660  94.456 118.771  0.00  0.00     0.091 C 
ENDROOT
BRANCH   1   7
ATOM      7  O   LIG d   1      -4.396  94.668 119.683  0.00  0.00    -0.368 OA
BRANCH   7   8
ATOM      8  C   LIG d   1      -3.042  94.158 119.614  0.00  0.00     0.119 C 
BRANCH   8   9
ATOM      9  C   LIG d   1      -2.475  94.155 121.047  0.00  0.00     0.028 C 
ATOM     10  C   LIG d   1      -0.994  93.742 121.091  0.00  0.00     0.006 C 
ENDBRANCH   8   9
BRANCH   8  11
ATOM     11  C   LIG d   1      -2.132  95.098 118.819  0.00  0.00     0.028 C 
ATOM     12  C   LIG d   1      -1.641  94.479 117.501  0.00  0.00     0.006 C 
ENDBRANCH   8  11
ENDBRANCH   7   8
ENDBRANCH   1   7
BRANCH   6  13
ATOM     13  N   LIG d   1      -7.363  95.160 119.875  0.00  0.00    -0.311 N 
ATOM     14  C   LIG d   1      -7.330  96.481 120.040  0.00  0.00     0.210 C 
ATOM     15  C   LIG d   1      -8.107  97.000 121.254  0.00  0.00     0.109 C 
ATOM     16  O   LIG d   1      -6.758  97.275 119.278  0.00  0.00    -0.276 OA
ATOM     17  H   LIG d   1      -7.878  94.595 120.521  0.00  0.00     0.149 HD
ENDBRANCH   6  13
BRANCH   5  18
ATOM     18  N   LIG d   1      -8.696  94.160 117.314  0.00  0.00     0.381 N 
ATOM     19  H   LIG d   1      -8.591  95.152 117.396  0.00  0.00    -0.090 HD
ATOM     20  H   LIG d   1      -9.562  93.897 117.749  0.00  0.00    -0.090 HD
ATOM     21  H   LIG d   1      -8.706  93.899 116.352  0.00  0.00    -0.090 HD
ENDBRANCH   5  18
BRANCH   3  22
ATOM     22  C   LIG d   1      -5.129  90.995 116.868  0.00  0.00     0.382 C 
ATOM     23  O   LIG d   1      -4.190  90.352 117.397  0.00  0.00    -0.241 OA
ATOM     24  O   LIG d   1      -5.599  90.611 115.780  0.00  0.00    -0.241 OA
ENDBRANCH   3  22
TORSDOF 7
ENDMDL
MODEL 9
REMARK VINA RESULT:      -4.7      2.621      5.839
REMARK  7 active torsions:
REMARK  status: ('A' for Active; 'I' for Inactive)
REMARK    1  A    between atoms: C_2  and  C_3 
REMARK    2  A    between atoms: C_3  and  O_6 
REMARK    3  A    between atoms: C_3  and  C_4 
REMARK    4  A    between atoms: C_7  and  O_6 
REMARK    5  A    between atoms: C_9  and  C_10 
REMARK    6  A    between atoms: N_15  and  C_14 
REMARK    7  A    between atoms: N_20  and  C_19 
REMARK       I    between atoms: C_22  and  N_20 
ROOT
ATOM      1  C   LIG d   1      -3.770  91.730 118.388  0.00  0.00     0.161 C 
ATOM      2  C   LIG d   1      -4.021  93.012 118.907  0.00  0.00     0.016 C 
ATOM      3  C   LIG d   1      -3.162  94.116 118.701  0.00  0.00     0.038 C 
ATOM      4  C   LIG d   1      -2.063  94.049 117.831  0.00  0.00     0.028 C 
ATOM      5  C   LIG d   1      -1.489  92.643 117.688  0.00  0.00    -0.047 C 
ATOM      6  C   LIG d   1      -2.636  91.665 117.345  0.00  0.00     0.091 C 
ENDROOT
BRANCH   1   7
ATOM      7  O   LIG d   1      -4.985  91.178 117.843  0.00  0.00    -0.368 OA
BRANCH   7   8
ATOM      8  C   LIG d   1      -5.619  91.947 116.792  0.00  0.00     0.119 C 
BRANCH   8   9
ATOM      9  C   LIG d   1      -7.090  92.161 117.199  0.00  0.00     0.028 C 
ATOM     10  C   LIG d   1      -7.378  93.613 117.616  0.00  0.00     0.006 C 
ENDBRANCH   8   9
BRANCH   8  11
ATOM     11  C   LIG d   1      -5.672  91.160 115.479  0.00  0.00     0.028 C 
ATOM     12  C   LIG d   1      -6.763  91.667 114.523  0.00  0.00     0.006 C 
ENDBRANCH   8  11
ENDBRANCH   7   8
ENDBRANCH   1   7
BRANCH   6  13
ATOM     13  N   LIG d   1      -2.174  90.255 117.270  0.00  0.00    -0.311 N 
ATOM     14  C   LIG d   1      -1.289  89.727 118.114  0.00  0.00     0.210 C 
ATOM     15  C   LIG d   1      -0.936  88.260 117.848  0.00  0.00     0.109 C 
ATOM     16  O   LIG d   1      -0.789  90.325 119.079  0.00  0.00    -0.276 OA
ATOM     17  H   LIG d   1      -2.553  89.689 116.536  0.00  0.00     0.149 HD
ENDBRANCH   6  13
BRANCH   5  18
ATOM     18  N   LIG d   1      -0.442  92.694 116.650  0.00  0.00     0.381 N 
ATOM     19  H   LIG d   1      -0.248  93.645 116.410  0.00  0.00    -0.090 HD
ATOM     20  H   LIG d   1      -0.777  92.223 115.827  0.00  0.00    -0.090 HD
ATOM     21  H   LIG d   1       0.387  92.251 116.980  0.00  0.00    -0.090 HD
ENDBRANCH   5  18
BRANCH   3  22
ATOM     22  C   LIG d   1      -3.376  95.293 119.402  0.00  0.00     0.382 C 
ATOM     23  O   LIG d   1      -4.511  95.545 119.873  0.00  0.00    -0.241 OA
ATOM     24  O   LIG d   1      -2.459  96.126 119.532  0.00  0.00    -0.241 OA
ENDBRANCH   3  22
TORSDOF 7
ENDMDL
