MODEL 1
REMARK VINA RESULT:      -5.3      0.000      0.000
REMARK  7 active torsions:
REMARK  status: ('A' for Active; 'I' for Inactive)
REMARK    1  A    between atoms: C_2  and  C_3 
REMARK    2  A    between atoms: C_3  and  O_6 
REMARK    3  A    between atoms: C_3  and  C_4 
REMARK    4  A    between atoms: C_7  and  O_6 
REMARK    5  A    between atoms: C_9  and  C_10 
REMARK    6  A    between atoms: N_15  and  C_14 
REMARK    7  A    between atoms: N_20  and  C_19 
REMARK       I    between atoms: C_22  and  N_20 
ROOT
ATOM      1  C   LIG d   1      -6.127  92.864 118.030  0.00  0.00     0.161 C 
ATOM      2  C   LIG d   1      -6.901  92.011 117.225  0.00  0.00     0.016 C 
ATOM      3  C   LIG d   1      -6.369  90.902 116.530  0.00  0.00     0.038 C 
ATOM      4  C   LIG d   1      -5.045  90.477 116.714  0.00  0.00     0.028 C 
ATOM      5  C   LIG d   1      -4.099  91.602 117.122  0.00  0.00    -0.047 C 
ATOM      6  C   LIG d   1      -4.703  92.351 118.331  0.00  0.00     0.091 C 
ENDROOT
BRANCH   1   7
ATOM      7  O   LIG d   1      -6.828  93.147 119.257  0.00  0.00    -0.368 OA
BRANCH   7   8
ATOM      8  C   LIG d   1      -7.748  94.266 119.222  0.00  0.00     0.119 C 
BRANCH   8   9
ATOM      9  C   LIG d   1      -6.965  95.492 118.712  0.00  0.00     0.028 C 
ATOM     10  C   LIG d   1      -6.190  96.202 119.835  0.00  0.00     0.006 C 
ENDBRANCH   8   9
BRANCH   8  11
ATOM     11  C   LIG d   1      -8.220  94.643 120.630  0.00  0.00     0.028 C 
ATOM     12  C   LIG d   1      -9.646  94.156 120.930  0.00  0.00     0.006 C 
ENDBRANCH   8  11
ENDBRANCH   7   8
ENDBRANCH   1   7
BRANCH   6  13
ATOM     13  N   LIG d   1      -3.882  93.520 118.742  0.00  0.00    -0.311 N 
ATOM     14  C   LIG d   1      -3.399  93.680 119.973  0.00  0.00     0.210 C 
ATOM     15  C   LIG d   1      -2.594  94.966 120.189  0.00  0.00     0.109 C 
ATOM     16  O   LIG d   1      -3.532  92.864 120.897  0.00  0.00    -0.276 OA
ATOM     17  H   LIG d   1      -3.699  94.216 118.046  0.00  0.00     0.149 HD
ENDBRANCH   6  13
BRANCH   5  18
ATOM     18  N   LIG d   1      -2.786  90.997 117.414  0.00  0.00     0.381 N 
ATOM     19  H   LIG d   1      -2.093  91.714 117.494  0.00  0.00    -0.090 HD
ATOM     20  H   LIG d   1      -2.529  90.394 116.652  0.00  0.00    -0.090 HD
ATOM     21  H   LIG d   1      -2.832  90.473 118.260  0.00  0.00    -0.090 HD
ENDBRANCH   5  18
BRANCH   3  22
ATOM     22  C   LIG d   1      -7.154  90.228 115.607  0.00  0.00     0.382 C 
ATOM     23  O   LIG d   1      -6.657  89.307 114.914  0.00  0.00    -0.241 OA
ATOM     24  O   LIG d   1      -8.342  90.558 115.427  0.00  0.00    -0.241 OA
ENDBRANCH   3  22
TORSDOF 7
ENDMDL
MODEL 2
REMARK VINA RESULT:      -5.3      0.784      1.677
REMARK  7 active torsions:
REMARK  status: ('A' for Active; 'I' for Inactive)
REMARK    1  A    between atoms: C_2  and  C_3 
REMARK    2  A    between atoms: C_3  and  O_6 
REMARK    3  A    between atoms: C_3  and  C_4 
REMARK    4  A    between atoms: C_7  and  O_6 
REMARK    5  A    between atoms: C_9  and  C_10 
REMARK    6  A    between atoms: N_15  and  C_14 
REMARK    7  A    between atoms: N_20  and  C_19 
REMARK       I    between atoms: C_22  and  N_20 
ROOT
ATOM      1  C   LIG d   1      -5.813  92.961 118.497  0.00  0.00     0.161 C 
ATOM      2  C   LIG d   1      -6.686  92.142 117.762  0.00  0.00     0.016 C 
ATOM      3  C   LIG d   1      -6.250  91.066 116.955  0.00  0.00     0.038 C 
ATOM      4  C   LIG d   1      -4.914  90.638 116.949  0.00  0.00     0.028 C 
ATOM      5  C   LIG d   1      -3.922  91.747 117.281  0.00  0.00    -0.047 C 
ATOM      6  C   LIG d   1      -4.364  92.440 118.590  0.00  0.00     0.091 C 
ENDROOT
BRANCH   1   7
ATOM      7  O   LIG d   1      -6.350  93.187 119.815  0.00  0.00    -0.368 OA
BRANCH   7   8
ATOM      8  C   LIG d   1      -6.848  94.522 120.080  0.00  0.00     0.119 C 
BRANCH   8   9
ATOM      9  C   LIG d   1      -8.379  94.423 120.232  0.00  0.00     0.028 C 
ATOM     10  C   LIG d   1      -8.901  95.216 121.441  0.00  0.00     0.006 C 
ENDBRANCH   8   9
BRANCH   8  11
ATOM     11  C   LIG d   1      -6.619  95.450 118.883  0.00  0.00     0.028 C 
ATOM     12  C   LIG d   1      -5.771  96.682 119.239  0.00  0.00     0.006 C 
ENDBRANCH   8  11
ENDBRANCH   7   8
ENDBRANCH   1   7
BRANCH   6  13
ATOM     13  N   LIG d   1      -3.494  93.593 118.943  0.00  0.00    -0.311 N 
ATOM     14  C   LIG d   1      -2.449  93.498 119.764  0.00  0.00     0.210 C 
ATOM     15  C   LIG d   1      -1.698  94.811 120.009  0.00  0.00     0.109 C 
ATOM     16  O   LIG d   1      -2.053  92.445 120.286  0.00  0.00    -0.276 OA
ATOM     17  H   LIG d   1      -3.725  94.479 118.539  0.00  0.00     0.149 HD
ENDBRANCH   6  13
BRANCH   5  18
ATOM     18  N   LIG d   1      -2.583  91.134 117.375  0.00  0.00     0.381 N 
ATOM     19  H   LIG d   1      -2.338  91.001 118.336  0.00  0.00    -0.090 HD
ATOM     20  H   LIG d   1      -1.911  91.755 116.962  0.00  0.00    -0.090 HD
ATOM     21  H   LIG d   1      -2.575  90.259 116.899  0.00  0.00    -0.090 HD
ENDBRANCH   5  18
BRANCH   3  22
ATOM     22  C   LIG d   1      -7.149  90.430 116.112  0.00  0.00     0.382 C 
ATOM     23  O   LIG d   1      -6.847  89.333 115.586  0.00  0.00    -0.241 OA
ATOM     24  O   LIG d   1      -8.241  90.963 115.837  0.00  0.00    -0.241 OA
ENDBRANCH   3  22
TORSDOF 7
ENDMDL
MODEL 3
REMARK VINA RESULT:      -5.2      2.113      4.377
REMARK  7 active torsions:
REMARK  status: ('A' for Active; 'I' for Inactive)
REMARK    1  A    between atoms: C_2  and  C_3 
REMARK    2  A    between atoms: C_3  and  O_6 
REMARK    3  A    between atoms: C_3  and  C_4 
REMARK    4  A    between atoms: C_7  and  O_6 
REMARK    5  A    between atoms: C_9  and  C_10 
REMARK    6  A    between atoms: N_15  and  C_14 
REMARK    7  A    between atoms: N_20  and  C_19 
REMARK       I    between atoms: C_22  and  N_20 
ROOT
ATOM      1  C   LIG d   1      -4.609  91.716 118.129  0.00  0.00     0.161 C 
ATOM      2  C   LIG d   1      -4.950  90.923 117.021  0.00  0.00     0.016 C 
ATOM      3  C   LIG d   1      -6.136  91.100 116.273  0.00  0.00     0.038 C 
ATOM      4  C   LIG d   1      -6.995  92.187 116.491  0.00  0.00     0.028 C 
ATOM      5  C   LIG d   1      -6.951  92.717 117.920  0.00  0.00    -0.047 C 
ATOM      6  C   LIG d   1      -5.479  92.977 118.313  0.00  0.00     0.091 C 
ENDROOT
BRANCH   1   7
ATOM      7  O   LIG d   1      -3.214  92.075 118.062  0.00  0.00    -0.368 OA
BRANCH   7   8
ATOM      8  C   LIG d   1      -2.331  91.370 118.969  0.00  0.00     0.119 C 
BRANCH   8   9
ATOM      9  C   LIG d   1      -1.264  92.373 119.449  0.00  0.00     0.028 C 
ATOM     10  C   LIG d   1      -1.740  93.832 119.343  0.00  0.00     0.006 C 
ENDBRANCH   8   9
BRANCH   8  11
ATOM     11  C   LIG d   1      -1.554  90.267 118.245  0.00  0.00     0.028 C 
ATOM     12  C   LIG d   1      -2.172  88.874 118.445  0.00  0.00     0.006 C 
ENDBRANCH   8  11
ENDBRANCH   7   8
ENDBRANCH   1   7
BRANCH   6  13
ATOM     13  N   LIG d   1      -5.339  93.418 119.726  0.00  0.00    -0.311 N 
ATOM     14  C   LIG d   1      -5.338  94.696 120.099  0.00  0.00     0.210 C 
ATOM     15  C   LIG d   1      -5.161  94.931 121.602  0.00  0.00     0.109 C 
ATOM     16  O   LIG d   1      -5.499  95.657 119.331  0.00  0.00    -0.276 OA
ATOM     17  H   LIG d   1      -5.234  92.702 120.418  0.00  0.00     0.149 HD
ENDBRANCH   6  13
BRANCH   5  18
ATOM     18  N   LIG d   1      -7.787  93.931 117.972  0.00  0.00     0.381 N 
ATOM     19  H   LIG d   1      -7.968  94.257 117.044  0.00  0.00    -0.090 HD
ATOM     20  H   LIG d   1      -7.287  94.649 118.466  0.00  0.00    -0.090 HD
ATOM     21  H   LIG d   1      -8.646  93.734 118.437  0.00  0.00    -0.090 HD
ENDBRANCH   5  18
BRANCH   3  22
ATOM     22  C   LIG d   1      -6.494  90.159 115.319  0.00  0.00     0.382 C 
ATOM     23  O   LIG d   1      -7.570  90.286 114.686  0.00  0.00    -0.241 OA
ATOM     24  O   LIG d   1      -5.776  89.162 115.114  0.00  0.00    -0.241 OA
ENDBRANCH   3  22
TORSDOF 7
ENDMDL
MODEL 4
REMARK VINA RESULT:      -5.1      2.271      4.540
REMARK  7 active torsions:
REMARK  status: ('A' for Active; 'I' for Inactive)
REMARK    1  A    between atoms: C_2  and  C_3 
REMARK    2  A    between atoms: C_3  and  O_6 
REMARK    3  A    between atoms: C_3  and  C_4 
REMARK    4  A    between atoms: C_7  and  O_6 
REMARK    5  A    between atoms: C_9  and  C_10 
REMARK    6  A    between atoms: N_15  and  C_14 
REMARK    7  A    between atoms: N_20  and  C_19 
REMARK       I    between atoms: C_22  and  N_20 
ROOT
ATOM      1  C   LIG d   1      -4.605  91.849 118.078  0.00  0.00     0.161 C 
ATOM      2  C   LIG d   1      -4.942  91.015 116.999  0.00  0.00     0.016 C 
ATOM      3  C   LIG d   1      -6.157  91.121 116.283  0.00  0.00     0.038 C 
ATOM      4  C   LIG d   1      -7.057  92.174 116.504  0.00  0.00     0.028 C 
ATOM      5  C   LIG d   1      -6.995  92.738 117.919  0.00  0.00    -0.047 C 
ATOM      6  C   LIG d   1      -5.526  93.074 118.261  0.00  0.00     0.091 C 
ENDROOT
BRANCH   1   7
ATOM      7  O   LIG d   1      -3.231  92.268 117.962  0.00  0.00    -0.368 OA
BRANCH   7   8
ATOM      8  C   LIG d   1      -2.233  91.308 118.388  0.00  0.00     0.119 C 
BRANCH   8   9
ATOM      9  C   LIG d   1      -2.383  91.129 119.911  0.00  0.00     0.028 C 
ATOM     10  C   LIG d   1      -1.519  89.979 120.455  0.00  0.00     0.006 C 
ENDBRANCH   8   9
BRANCH   8  11
ATOM     11  C   LIG d   1      -0.815  91.848 118.181  0.00  0.00     0.028 C 
ATOM     12  C   LIG d   1      -0.792  93.349 117.848  0.00  0.00     0.006 C 
ENDBRANCH   8  11
ENDBRANCH   7   8
ENDBRANCH   1   7
BRANCH   6  13
ATOM     13  N   LIG d   1      -5.365  93.553 119.659  0.00  0.00    -0.311 N 
ATOM     14  C   LIG d   1      -5.443  94.836 120.007  0.00  0.00     0.210 C 
ATOM     15  C   LIG d   1      -5.226  95.116 121.498  0.00  0.00     0.109 C 
ATOM     16  O   LIG d   1      -5.702  95.766 119.229  0.00  0.00    -0.276 OA
ATOM     17  H   LIG d   1      -5.182  92.862 120.360  0.00  0.00     0.149 HD
ENDBRANCH   6  13
BRANCH   5  18
ATOM     18  N   LIG d   1      -7.884  93.915 117.969  0.00  0.00     0.381 N 
ATOM     19  H   LIG d   1      -8.702  93.745 117.418  0.00  0.00    -0.090 HD
ATOM     20  H   LIG d   1      -7.400  94.704 117.579  0.00  0.00    -0.090 HD
ATOM     21  H   LIG d   1      -8.143  94.107 118.911  0.00  0.00    -0.090 HD
ENDBRANCH   5  18
BRANCH   3  22
ATOM     22  C   LIG d   1      -6.499  90.143 115.362  0.00  0.00     0.382 C 
ATOM     23  O   LIG d   1      -5.719  89.185 115.146  0.00  0.00    -0.241 OA
ATOM     24  O   LIG d   1      -7.557  90.231 114.711  0.00  0.00    -0.241 OA
ENDBRANCH   3  22
TORSDOF 7
ENDMDL
MODEL 5
REMARK VINA RESULT:      -4.7      4.352      7.883
REMARK  7 active torsions:
REMARK  status: ('A' for Active; 'I' for Inactive)
REMARK    1  A    between atoms: C_2  and  C_3 
REMARK    2  A    between atoms: C_3  and  O_6 
REMARK    3  A    between atoms: C_3  and  C_4 
REMARK    4  A    between atoms: C_7  and  O_6 
REMARK    5  A    between atoms: C_9  and  C_10 
REMARK    6  A    between atoms: N_15  and  C_14 
REMARK    7  A    between atoms: N_20  and  C_19 
REMARK       I    between atoms: C_22  and  N_20 
ROOT
ATOM      1  C   LIG d   1      -0.476  91.690 118.019  0.00  0.00     0.161 C 
ATOM      2  C   LIG d   1       0.861  92.047 118.262  0.00  0.00     0.016 C 
ATOM      3  C   LIG d   1       1.287  93.380 118.462  0.00  0.00     0.038 C 
ATOM      4  C   LIG d   1       0.376  94.439 118.582  0.00  0.00     0.028 C 
ATOM      5  C   LIG d   1      -0.935  94.198 117.842  0.00  0.00    -0.047 C 
ATOM      6  C   LIG d   1      -1.500  92.820 118.257  0.00  0.00     0.091 C 
ENDROOT
BRANCH   1   7
ATOM      7  O   LIG d   1      -0.822  90.528 118.798  0.00  0.00    -0.368 OA
BRANCH   7   8
ATOM      8  C   LIG d   1      -0.993  89.293 118.059  0.00  0.00     0.119 C 
BRANCH   8   9
ATOM      9  C   LIG d   1      -2.388  88.737 118.404  0.00  0.00     0.028 C 
ATOM     10  C   LIG d   1      -2.363  87.809 119.630  0.00  0.00     0.006 C 
ENDBRANCH   8   9
BRANCH   8  11
ATOM     11  C   LIG d   1      -0.003  88.223 118.527  0.00  0.00     0.028 C 
ATOM     12  C   LIG d   1       0.532  87.360 117.373  0.00  0.00     0.006 C 
ENDBRANCH   8  11
ENDBRANCH   7   8
ENDBRANCH   1   7
BRANCH   6  13
ATOM     13  N   LIG d   1      -2.739  92.468 117.516  0.00  0.00    -0.311 N 
ATOM     14  C   LIG d   1      -3.871  92.100 118.113  0.00  0.00     0.210 C 
ATOM     15  C   LIG d   1      -5.023  91.761 117.161  0.00  0.00     0.109 C 
ATOM     16  O   LIG d   1      -4.040  92.054 119.340  0.00  0.00    -0.276 OA
ATOM     17  H   LIG d   1      -2.699  92.509 116.516  0.00  0.00     0.149 HD
ENDBRANCH   6  13
BRANCH   5  18
ATOM     18  N   LIG d   1      -1.842  95.315 118.165  0.00  0.00     0.381 N 
ATOM     19  H   LIG d   1      -1.803  95.511 119.146  0.00  0.00    -0.090 HD
ATOM     20  H   LIG d   1      -2.783  95.048 117.934  0.00  0.00    -0.090 HD
ATOM     21  H   LIG d   1      -1.583  96.126 117.647  0.00  0.00    -0.090 HD
ENDBRANCH   5  18
BRANCH   3  22
ATOM     22  C   LIG d   1       2.643  93.669 118.503  0.00  0.00     0.382 C 
ATOM     23  O   LIG d   1       3.359  93.463 117.493  0.00  0.00    -0.241 OA
ATOM     24  O   LIG d   1       3.167  94.092 119.551  0.00  0.00    -0.241 OA
ENDBRANCH   3  22
TORSDOF 7
ENDMDL
MODEL 6
REMARK VINA RESULT:      -4.4      2.277      4.655
REMARK  7 active torsions:
REMARK  status: ('A' for Active; 'I' for Inactive)
REMARK    1  A    between atoms: C_2  and  C_3 
REMARK    2  A    between atoms: C_3  and  O_6 
REMARK    3  A    between atoms: C_3  and  C_4 
REMARK    4  A    between atoms: C_7  and  O_6 
REMARK    5  A    between atoms: C_9  and  C_10 
REMARK    6  A    between atoms: N_15  and  C_14 
REMARK    7  A    between atoms: N_20  and  C_19 
REMARK       I    between atoms: C_22  and  N_20 
ROOT
ATOM      1  C   LIG d   1      -4.612  93.455 119.461  0.00  0.00     0.161 C 
ATOM      2  C   LIG d   1      -5.804  94.196 119.512  0.00  0.00     0.016 C 
ATOM      3  C   LIG d   1      -6.881  94.002 118.616  0.00  0.00     0.038 C 
ATOM      4  C   LIG d   1      -6.898  92.943 117.697  0.00  0.00     0.028 C 
ATOM      5  C   LIG d   1      -5.507  92.486 117.272  0.00  0.00    -0.047 C 
ATOM      6  C   LIG d   1      -4.658  92.220 118.536  0.00  0.00     0.091 C 
ENDROOT
BRANCH   1   7
ATOM      7  O   LIG d   1      -4.220  93.069 120.793  0.00  0.00    -0.368 OA
BRANCH   7   8
ATOM      8  C   LIG d   1      -3.026  93.703 121.314  0.00  0.00     0.119 C 
BRANCH   8   9
ATOM      9  C   LIG d   1      -2.554  94.732 120.269  0.00  0.00     0.028 C 
ATOM     10  C   LIG d   1      -2.596  96.173 120.803  0.00  0.00     0.006 C 
ENDBRANCH   8   9
BRANCH   8  11
ATOM     11  C   LIG d   1      -1.875  92.701 121.446  0.00  0.00     0.028 C 
ATOM     12  C   LIG d   1      -0.714  92.998 120.485  0.00  0.00     0.006 C 
ENDBRANCH   8  11
ENDBRANCH   7   8
ENDBRANCH   1   7
BRANCH   6  13
ATOM     13  N   LIG d   1      -3.256  91.850 118.210  0.00  0.00    -0.311 N 
ATOM     14  C   LIG d   1      -2.842  90.592 118.077  0.00  0.00     0.210 C 
ATOM     15  C   LIG d   1      -1.352  90.431 117.759  0.00  0.00     0.109 C 
ATOM     16  O   LIG d   1      -3.574  89.594 118.160  0.00  0.00    -0.276 OA
ATOM     17  H   LIG d   1      -2.602  92.599 118.095  0.00  0.00     0.149 HD
ENDBRANCH   6  13
BRANCH   5  18
ATOM     18  N   LIG d   1      -5.670  91.291 116.423  0.00  0.00     0.381 N 
ATOM     19  H   LIG d   1      -5.524  90.465 116.968  0.00  0.00    -0.090 HD
ATOM     20  H   LIG d   1      -4.978  91.314 115.694  0.00  0.00    -0.090 HD
ATOM     21  H   LIG d   1      -6.583  91.278 116.024  0.00  0.00    -0.090 HD
ENDBRANCH   5  18
BRANCH   3  22
ATOM     22  C   LIG d   1      -7.938  94.899 118.608  0.00  0.00     0.382 C 
ATOM     23  O   LIG d   1      -9.117  94.477 118.524  0.00  0.00    -0.241 OA
ATOM     24  O   LIG d   1      -7.726  96.126 118.638  0.00  0.00    -0.241 OA
ENDBRANCH   3  22
TORSDOF 7
ENDMDL
MODEL 7
REMARK VINA RESULT:      -4.3      2.409      4.371
REMARK  7 active torsions:
REMARK  status: ('A' for Active; 'I' for Inactive)
REMARK    1  A    between atoms: C_2  and  C_3 
REMARK    2  A    between atoms: C_3  and  O_6 
REMARK    3  A    between atoms: C_3  and  C_4 
REMARK    4  A    between atoms: C_7  and  O_6 
REMARK    5  A    between atoms: C_9  and  C_10 
REMARK    6  A    between atoms: N_15  and  C_14 
REMARK    7  A    between atoms: N_20  and  C_19 
REMARK       I    between atoms: C_22  and  N_20 
ROOT
ATOM      1  C   LIG d   1      -5.009  93.167 120.160  0.00  0.00     0.161 C 
ATOM      2  C   LIG d   1      -4.550  92.157 119.299  0.00  0.00     0.016 C 
ATOM      3  C   LIG d   1      -5.180  91.831 118.076  0.00  0.00     0.038 C 
ATOM      4  C   LIG d   1      -6.231  92.601 117.556  0.00  0.00     0.028 C 
ATOM      5  C   LIG d   1      -7.048  93.314 118.628  0.00  0.00    -0.047 C 
ATOM      6  C   LIG d   1      -6.087  94.091 119.557  0.00  0.00     0.091 C 
ENDROOT
BRANCH   1   7
ATOM      7  O   LIG d   1      -3.894  93.945 120.639  0.00  0.00    -0.368 OA
BRANCH   7   8
ATOM      8  C   LIG d   1      -3.293  94.853 119.683  0.00  0.00     0.119 C 
BRANCH   8   9
ATOM      9  C   LIG d   1      -1.785  94.541 119.631  0.00  0.00     0.028 C 
ATOM     10  C   LIG d   1      -1.359  93.926 118.287  0.00  0.00     0.006 C 
ENDBRANCH   8   9
BRANCH   8  11
ATOM     11  C   LIG d   1      -3.390  96.306 120.158  0.00  0.00     0.028 C 
ATOM     12  C   LIG d   1      -3.573  96.425 121.679  0.00  0.00     0.006 C 
ENDBRANCH   8  11
ENDBRANCH   7   8
ENDBRANCH   1   7
BRANCH   6  13
ATOM     13  N   LIG d   1      -6.798  94.749 120.684  0.00  0.00    -0.311 N 
ATOM     14  C   LIG d   1      -7.207  96.016 120.653  0.00  0.00     0.210 C 
ATOM     15  C   LIG d   1      -7.902  96.503 121.928  0.00  0.00     0.109 C 
ATOM     16  O   LIG d   1      -7.090  96.773 119.677  0.00  0.00    -0.276 OA
ATOM     17  H   LIG d   1      -6.962  94.198 121.504  0.00  0.00     0.149 HD
ENDBRANCH   6  13
BRANCH   5  18
ATOM     18  N   LIG d   1      -8.020  94.186 117.941  0.00  0.00     0.381 N 
ATOM     19  H   LIG d   1      -8.760  93.633 117.558  0.00  0.00    -0.090 HD
ATOM     20  H   LIG d   1      -7.555  94.659 117.186  0.00  0.00    -0.090 HD
ATOM     21  H   LIG d   1      -8.391  94.853 118.581  0.00  0.00    -0.090 HD
ENDBRANCH   5  18
BRANCH   3  22
ATOM     22  C   LIG d   1      -4.784  90.700 117.379  0.00  0.00     0.382 C 
ATOM     23  O   LIG d   1      -5.367  90.384 116.314  0.00  0.00    -0.241 OA
ATOM     24  O   LIG d   1      -3.882  89.967 117.825  0.00  0.00    -0.241 OA
ENDBRANCH   3  22
TORSDOF 7
ENDMDL
MODEL 8
REMARK VINA RESULT:      -4.3      2.489      5.447
REMARK  7 active torsions:
REMARK  status: ('A' for Active; 'I' for Inactive)
REMARK    1  A    between atoms: C_2  and  C_3 
REMARK    2  A    between atoms: C_3  and  O_6 
REMARK    3  A    between atoms: C_3  and  C_4 
REMARK    4  A    between atoms: C_7  and  O_6 
REMARK    5  A    between atoms: C_9  and  C_10 
REMARK    6  A    between atoms: N_15  and  C_14 
REMARK    7  A    between atoms: N_20  and  C_19 
REMARK       I    between atoms: C_22  and  N_20 
ROOT
ATOM      1  C   LIG d   1      -3.333  91.643 118.903  0.00  0.00     0.161 C 
ATOM      2  C   LIG d   1      -3.590  92.829 119.611  0.00  0.00     0.016 C 
ATOM      3  C   LIG d   1      -2.784  93.986 119.509  0.00  0.00     0.038 C 
ATOM      4  C   LIG d   1      -1.746  94.087 118.571  0.00  0.00     0.028 C 
ATOM      5  C   LIG d   1      -1.136  92.740 118.196  0.00  0.00    -0.047 C 
ATOM      6  C   LIG d   1      -2.270  91.771 117.792  0.00  0.00     0.091 C 
ENDROOT
BRANCH   1   7
ATOM      7  O   LIG d   1      -4.563  91.120 118.363  0.00  0.00    -0.368 OA
BRANCH   7   8
ATOM      8  C   LIG d   1      -5.230  91.948 117.379  0.00  0.00     0.119 C 
BRANCH   8   9
ATOM      9  C   LIG d   1      -6.646  92.246 117.908  0.00  0.00     0.028 C 
ATOM     10  C   LIG d   1      -6.861  93.740 118.200  0.00  0.00     0.006 C 
ENDBRANCH   8   9
BRANCH   8  11
ATOM     11  C   LIG d   1      -5.438  91.191 116.064  0.00  0.00     0.028 C 
ATOM     12  C   LIG d   1      -6.351  91.943 115.082  0.00  0.00     0.006 C 
ENDBRANCH   8  11
ENDBRANCH   7   8
ENDBRANCH   1   7
BRANCH   6  13
ATOM     13  N   LIG d   1      -1.768  90.405 117.491  0.00  0.00    -0.311 N 
ATOM     14  C   LIG d   1      -1.110  89.655 118.373  0.00  0.00     0.210 C 
ATOM     15  C   LIG d   1      -0.663  88.286 117.852  0.00  0.00     0.109 C 
ATOM     16  O   LIG d   1      -0.882  89.981 119.548  0.00  0.00    -0.276 OA
ATOM     17  H   LIG d   1      -1.937  90.050 116.570  0.00  0.00     0.149 HD
ENDBRANCH   6  13
BRANCH   5  18
ATOM     18  N   LIG d   1      -0.165  92.978 117.112  0.00  0.00     0.381 N 
ATOM     19  H   LIG d   1      -0.001  92.127 116.612  0.00  0.00    -0.090 HD
ATOM     20  H   LIG d   1       0.705  93.279 117.515  0.00  0.00    -0.090 HD
ATOM     21  H   LIG d   1      -0.511  93.675 116.491  0.00  0.00    -0.090 HD
ENDBRANCH   5  18
BRANCH   3  22
ATOM     22  C   LIG d   1      -2.989  95.045 120.381  0.00  0.00     0.382 C 
ATOM     23  O   LIG d   1      -3.377  94.826 121.554  0.00  0.00    -0.241 OA
ATOM     24  O   LIG d   1      -2.834  96.220 119.996  0.00  0.00    -0.241 OA
ENDBRANCH   3  22
TORSDOF 7
ENDMDL
MODEL 9
REMARK VINA RESULT:      -4.1      3.931      6.768
REMARK  7 active torsions:
REMARK  status: ('A' for Active; 'I' for Inactive)
REMARK    1  A    between atoms: C_2  and  C_3 
REMARK    2  A    between atoms: C_3  and  O_6 
REMARK    3  A    between atoms: C_3  and  C_4 
REMARK    4  A    between atoms: C_7  and  O_6 
REMARK    5  A    between atoms: C_9  and  C_10 
REMARK    6  A    between atoms: N_15  and  C_14 
REMARK    7  A    between atoms: N_20  and  C_19 
REMARK       I    between atoms: C_22  and  N_20 
ROOT
ATOM      1  C   LIG d   1      -1.218  93.558 117.812  0.00  0.00     0.161 C 
ATOM      2  C   LIG d   1       0.016  92.959 117.510  0.00  0.00     0.016 C 
ATOM      3  C   LIG d   1       1.223  93.289 118.168  0.00  0.00     0.038 C 
ATOM      4  C   LIG d   1       1.251  94.138 119.284  0.00  0.00     0.028 C 
ATOM      5  C   LIG d   1       0.112  95.152 119.303  0.00  0.00    -0.047 C 
ATOM      6  C   LIG d   1      -1.227  94.405 119.102  0.00  0.00     0.091 C 
ENDROOT
BRANCH   1   7
ATOM      7  O   LIG d   1      -2.249  92.552 117.866  0.00  0.00    -0.368 OA
BRANCH   7   8
ATOM      8  C   LIG d   1      -2.180  91.628 118.980  0.00  0.00     0.119 C 
BRANCH   8   9
ATOM      9  C   LIG d   1      -2.335  90.204 118.410  0.00  0.00     0.028 C 
ATOM     10  C   LIG d   1      -0.979  89.534 118.130  0.00  0.00     0.006 C 
ENDBRANCH   8   9
BRANCH   8  11
ATOM     11  C   LIG d   1      -3.365  91.814 119.933  0.00  0.00     0.028 C 
ATOM     12  C   LIG d   1      -4.625  92.333 119.222  0.00  0.00     0.006 C 
ENDBRANCH   8  11
ENDBRANCH   7   8
ENDBRANCH   1   7
BRANCH   6  13
ATOM     13  N   LIG d   1      -2.386  95.332 119.023  0.00  0.00    -0.311 N 
ATOM     14  C   LIG d   1      -3.149  95.643 120.070  0.00  0.00     0.210 C 
ATOM     15  C   LIG d   1      -4.304  96.601 119.766  0.00  0.00     0.109 C 
ATOM     16  O   LIG d   1      -2.958  95.241 121.228  0.00  0.00    -0.276 OA
ATOM     17  H   LIG d   1      -2.594  95.728 118.127  0.00  0.00     0.149 HD
ENDBRANCH   6  13
BRANCH   5  18
ATOM     18  N   LIG d   1       0.182  95.878 120.585  0.00  0.00     0.381 N 
ATOM     19  H   LIG d   1      -0.301  95.362 121.293  0.00  0.00    -0.090 HD
ATOM     20  H   LIG d   1      -0.271  96.769 120.479  0.00  0.00    -0.090 HD
ATOM     21  H   LIG d   1       1.133  96.010 120.850  0.00  0.00    -0.090 HD
ENDBRANCH   5  18
BRANCH   3  22
ATOM     22  C   LIG d   1       2.426  92.798 117.684  0.00  0.00     0.382 C 
ATOM     23  O   LIG d   1       3.420  93.558 117.585  0.00  0.00    -0.241 OA
ATOM     24  O   LIG d   1       2.519  91.615 117.304  0.00  0.00    -0.241 OA
ENDBRANCH   3  22
TORSDOF 7
ENDMDL
