MODEL 1
REMARK VINA RESULT:      -5.5      0.000      0.000
REMARK  7 active torsions:
REMARK  status: ('A' for Active; 'I' for Inactive)
REMARK    1  A    between atoms: C_2  and  C_3 
REMARK    2  A    between atoms: C_3  and  O_6 
REMARK    3  A    between atoms: C_3  and  C_4 
REMARK    4  A    between atoms: C_7  and  O_6 
REMARK    5  A    between atoms: C_9  and  C_10 
REMARK    6  A    between atoms: N_15  and  C_14 
REMARK    7  A    between atoms: N_20  and  C_19 
REMARK       I    between atoms: C_22  and  N_20 
ROOT
ATOM      1  C   LIG d   1      -4.434  90.846 118.005  0.00  0.00     0.161 C 
ATOM      2  C   LIG d   1      -5.261  90.143 117.113  0.00  0.00     0.016 C 
ATOM      3  C   LIG d   1      -6.441  90.686 116.554  0.00  0.00     0.038 C 
ATOM      4  C   LIG d   1      -6.795  92.031 116.733  0.00  0.00     0.028 C 
ATOM      5  C   LIG d   1      -6.262  92.631 118.029  0.00  0.00    -0.047 C 
ATOM      6  C   LIG d   1      -4.744  92.353 118.124  0.00  0.00     0.091 C 
ENDROOT
BRANCH   1   7
ATOM      7  O   LIG d   1      -3.051  90.646 117.650  0.00  0.00    -0.368 OA
BRANCH   7   8
ATOM      8  C   LIG d   1      -2.281  89.800 118.539  0.00  0.00     0.119 C 
BRANCH   8   9
ATOM      9  C   LIG d   1      -2.105  88.436 117.844  0.00  0.00     0.028 C 
ATOM     10  C   LIG d   1      -0.643  88.159 117.454  0.00  0.00     0.006 C 
ENDBRANCH   8   9
BRANCH   8  11
ATOM     11  C   LIG d   1      -3.050  89.501 119.829  0.00  0.00     0.028 C 
ATOM     12  C   LIG d   1      -3.241  87.996 120.074  0.00  0.00     0.006 C 
ENDBRANCH   8  11
ENDBRANCH   7   8
ENDBRANCH   1   7
BRANCH   6  13
ATOM     13  N   LIG d   1      -4.159  92.833 119.403  0.00  0.00    -0.311 N 
ATOM     14  C   LIG d   1      -2.996  93.478 119.481  0.00  0.00     0.210 C 
ATOM     15  C   LIG d   1      -2.566  93.867 120.899  0.00  0.00     0.109 C 
ATOM     16  O   LIG d   1      -2.296  93.794 118.507  0.00  0.00    -0.276 OA
ATOM     17  H   LIG d   1      -4.676  92.646 120.240  0.00  0.00     0.149 HD
ENDBRANCH   6  13
BRANCH   5  18
ATOM     18  N   LIG d   1      -6.586  94.070 118.021  0.00  0.00     0.381 N 
ATOM     19  H   LIG d   1      -7.570  94.195 117.895  0.00  0.00    -0.090 HD
ATOM     20  H   LIG d   1      -6.111  94.506 117.250  0.00  0.00    -0.090 HD
ATOM     21  H   LIG d   1      -6.298  94.489 118.878  0.00  0.00    -0.090 HD
ENDBRANCH   5  18
BRANCH   3  22
ATOM     22  C   LIG d   1      -7.302  89.867 115.839  0.00  0.00     0.382 C 
ATOM     23  O   LIG d   1      -8.115  89.130 116.446  0.00  0.00    -0.241 OA
ATOM     24  O   LIG d   1      -7.245  89.825 114.595  0.00  0.00    -0.241 OA
ENDBRANCH   3  22
TORSDOF 7
ENDMDL
MODEL 2
REMARK VINA RESULT:      -5.5      2.308      4.472
REMARK  7 active torsions:
REMARK  status: ('A' for Active; 'I' for Inactive)
REMARK    1  A    between atoms: C_2  and  C_3 
REMARK    2  A    between atoms: C_3  and  O_6 
REMARK    3  A    between atoms: C_3  and  C_4 
REMARK    4  A    between atoms: C_7  and  O_6 
REMARK    5  A    between atoms: C_9  and  C_10 
REMARK    6  A    between atoms: N_15  and  C_14 
REMARK    7  A    between atoms: N_20  and  C_19 
REMARK       I    between atoms: C_22  and  N_20 
ROOT
ATOM      1  C   LIG d   1      -5.714  92.467 118.259  0.00  0.00     0.161 C 
ATOM      2  C   LIG d   1      -6.630  91.625 117.607  0.00  0.00     0.016 C 
ATOM      3  C   LIG d   1      -6.243  90.533 116.797  0.00  0.00     0.038 C 
ATOM      4  C   LIG d   1      -4.907  90.115 116.706  0.00  0.00     0.028 C 
ATOM      5  C   LIG d   1      -3.903  91.238 116.940  0.00  0.00    -0.047 C 
ATOM      6  C   LIG d   1      -4.257  91.960 118.261  0.00  0.00     0.091 C 
ENDROOT
BRANCH   1   7
ATOM      7  O   LIG d   1      -6.158  92.722 119.606  0.00  0.00    -0.368 OA
BRANCH   7   8
ATOM      8  C   LIG d   1      -6.905  93.946 119.811  0.00  0.00     0.119 C 
BRANCH   8   9
ATOM      9  C   LIG d   1      -5.886  95.096 119.927  0.00  0.00     0.028 C 
ATOM     10  C   LIG d   1      -6.241  96.288 119.023  0.00  0.00     0.006 C 
ENDBRANCH   8   9
BRANCH   8  11
ATOM     11  C   LIG d   1      -7.651  93.927 121.149  0.00  0.00     0.028 C 
ATOM     12  C   LIG d   1      -9.178  93.947 120.980  0.00  0.00     0.006 C 
ENDBRANCH   8  11
ENDBRANCH   7   8
ENDBRANCH   1   7
BRANCH   6  13
ATOM     13  N   LIG d   1      -3.375  93.127 118.524  0.00  0.00    -0.311 N 
ATOM     14  C   LIG d   1      -2.277  93.061 119.275  0.00  0.00     0.210 C 
ATOM     15  C   LIG d   1      -1.522  94.385 119.434  0.00  0.00     0.109 C 
ATOM     16  O   LIG d   1      -1.839  92.026 119.798  0.00  0.00    -0.276 OA
ATOM     17  H   LIG d   1      -3.639  94.000 118.112  0.00  0.00     0.149 HD
ENDBRANCH   6  13
BRANCH   5  18
ATOM     18  N   LIG d   1      -2.556  90.637 116.953  0.00  0.00     0.381 N 
ATOM     19  H   LIG d   1      -1.951  91.175 117.541  0.00  0.00    -0.090 HD
ATOM     20  H   LIG d   1      -2.184  90.653 116.020  0.00  0.00    -0.090 HD
ATOM     21  H   LIG d   1      -2.604  89.699 117.284  0.00  0.00    -0.090 HD
ENDBRANCH   5  18
BRANCH   3  22
ATOM     22  C   LIG d   1      -7.193  89.870 116.035  0.00  0.00     0.382 C 
ATOM     23  O   LIG d   1      -8.071  89.172 116.597  0.00  0.00    -0.241 OA
ATOM     24  O   LIG d   1      -7.157  89.926 114.791  0.00  0.00    -0.241 OA
ENDBRANCH   3  22
TORSDOF 7
ENDMDL
MODEL 3
REMARK VINA RESULT:      -5.3      2.427      4.325
REMARK  7 active torsions:
REMARK  status: ('A' for Active; 'I' for Inactive)
REMARK    1  A    between atoms: C_2  and  C_3 
REMARK    2  A    between atoms: C_3  and  O_6 
REMARK    3  A    between atoms: C_3  and  C_4 
REMARK    4  A    between atoms: C_7  and  O_6 
REMARK    5  A    between atoms: C_9  and  C_10 
REMARK    6  A    between atoms: N_15  and  C_14 
REMARK    7  A    between atoms: N_20  and  C_19 
REMARK       I    between atoms: C_22  and  N_20 
ROOT
ATOM      1  C   LIG d   1      -3.966  92.044 118.279  0.00  0.00     0.161 C 
ATOM      2  C   LIG d   1      -5.276  92.546 118.354  0.00  0.00     0.016 C 
ATOM      3  C   LIG d   1      -6.343  92.055 117.569  0.00  0.00     0.038 C 
ATOM      4  C   LIG d   1      -6.206  90.918 116.758  0.00  0.00     0.028 C 
ATOM      5  C   LIG d   1      -4.779  90.692 116.269  0.00  0.00    -0.047 C 
ATOM      6  C   LIG d   1      -3.821  90.731 117.481  0.00  0.00     0.091 C 
ENDROOT
BRANCH   1   7
ATOM      7  O   LIG d   1      -3.426  91.887 119.606  0.00  0.00    -0.368 OA
BRANCH   7   8
ATOM      8  C   LIG d   1      -2.390  92.825 119.988  0.00  0.00     0.119 C 
BRANCH   8   9
ATOM      9  C   LIG d   1      -3.016  93.829 120.975  0.00  0.00     0.028 C 
ATOM     10  C   LIG d   1      -3.347  95.176 120.311  0.00  0.00     0.006 C 
ENDBRANCH   8   9
BRANCH   8  11
ATOM     11  C   LIG d   1      -1.930  93.665 118.793  0.00  0.00     0.028 C 
ATOM     12  C   LIG d   1      -0.453  93.436 118.437  0.00  0.00     0.006 C 
ENDBRANCH   8  11
ENDBRANCH   7   8
ENDBRANCH   1   7
BRANCH   6  13
ATOM     13  N   LIG d   1      -2.395  90.602 117.082  0.00  0.00    -0.311 N 
ATOM     14  C   LIG d   1      -1.514  89.851 117.740  0.00  0.00     0.210 C 
ATOM     15  C   LIG d   1      -0.092  89.875 117.172  0.00  0.00     0.109 C 
ATOM     16  O   LIG d   1      -1.783  89.143 118.722  0.00  0.00    -0.276 OA
ATOM     17  H   LIG d   1      -2.099  91.119 116.277  0.00  0.00     0.149 HD
ENDBRANCH   6  13
BRANCH   5  18
ATOM     18  N   LIG d   1      -4.752  89.403 115.552  0.00  0.00     0.381 N 
ATOM     19  H   LIG d   1      -5.680  89.036 115.481  0.00  0.00    -0.090 HD
ATOM     20  H   LIG d   1      -4.195  88.751 116.076  0.00  0.00    -0.090 HD
ATOM     21  H   LIG d   1      -4.366  89.526 114.643  0.00  0.00    -0.090 HD
ENDBRANCH   5  18
BRANCH   3  22
ATOM     22  C   LIG d   1      -7.556  92.727 117.559  0.00  0.00     0.382 C 
ATOM     23  O   LIG d   1      -8.091  93.071 118.641  0.00  0.00    -0.241 OA
ATOM     24  O   LIG d   1      -8.144  92.955 116.485  0.00  0.00    -0.241 OA
ENDBRANCH   3  22
TORSDOF 7
ENDMDL
MODEL 4
REMARK VINA RESULT:      -5.2      1.613      4.721
REMARK  7 active torsions:
REMARK  status: ('A' for Active; 'I' for Inactive)
REMARK    1  A    between atoms: C_2  and  C_3 
REMARK    2  A    between atoms: C_3  and  O_6 
REMARK    3  A    between atoms: C_3  and  C_4 
REMARK    4  A    between atoms: C_7  and  O_6 
REMARK    5  A    between atoms: C_9  and  C_10 
REMARK    6  A    between atoms: N_15  and  C_14 
REMARK    7  A    between atoms: N_20  and  C_19 
REMARK       I    between atoms: C_22  and  N_20 
ROOT
ATOM      1  C   LIG d   1      -4.030  91.765 117.379  0.00  0.00     0.161 C 
ATOM      2  C   LIG d   1      -3.378  92.505 118.380  0.00  0.00     0.016 C 
ATOM      3  C   LIG d   1      -4.063  93.211 119.395  0.00  0.00     0.038 C 
ATOM      4  C   LIG d   1      -5.451  93.101 119.568  0.00  0.00     0.028 C 
ATOM      5  C   LIG d   1      -6.198  92.773 118.280  0.00  0.00    -0.047 C 
ATOM      6  C   LIG d   1      -5.538  91.542 117.617  0.00  0.00     0.091 C 
ENDROOT
BRANCH   1   7
ATOM      7  O   LIG d   1      -3.361  90.502 117.191  0.00  0.00    -0.368 OA
BRANCH   7   8
ATOM      8  C   LIG d   1      -2.502  90.069 118.274  0.00  0.00     0.119 C 
BRANCH   8   9
ATOM      9  C   LIG d   1      -1.203  89.526 117.647  0.00  0.00     0.028 C 
ATOM     10  C   LIG d   1      -0.176  90.637 117.370  0.00  0.00     0.006 C 
ENDBRANCH   8   9
BRANCH   8  11
ATOM     11  C   LIG d   1      -3.112  88.885 119.030  0.00  0.00     0.028 C 
ATOM     12  C   LIG d   1      -3.846  89.310 120.312  0.00  0.00     0.006 C 
ENDBRANCH   8  11
ENDBRANCH   7   8
ENDBRANCH   1   7
BRANCH   6  13
ATOM     13  N   LIG d   1      -6.155  91.205 116.308  0.00  0.00    -0.311 N 
ATOM     14  C   LIG d   1      -7.104  90.282 116.161  0.00  0.00     0.210 C 
ATOM     15  C   LIG d   1      -7.589  90.076 114.723  0.00  0.00     0.109 C 
ATOM     16  O   LIG d   1      -7.613  89.637 117.090  0.00  0.00    -0.276 OA
ATOM     17  H   LIG d   1      -5.823  91.702 115.505  0.00  0.00     0.149 HD
ENDBRANCH   6  13
BRANCH   5  18
ATOM     18  N   LIG d   1      -7.614  92.552 118.630  0.00  0.00     0.381 N 
ATOM     19  H   LIG d   1      -7.875  93.156 119.383  0.00  0.00    -0.090 HD
ATOM     20  H   LIG d   1      -7.729  91.601 118.934  0.00  0.00    -0.090 HD
ATOM     21  H   LIG d   1      -8.192  92.727 117.838  0.00  0.00    -0.090 HD
ENDBRANCH   5  18
BRANCH   3  22
ATOM     22  C   LIG d   1      -3.362  94.071 120.227  0.00  0.00     0.382 C 
ATOM     23  O   LIG d   1      -2.186  94.402 119.939  0.00  0.00    -0.241 OA
ATOM     24  O   LIG d   1      -3.874  94.485 121.284  0.00  0.00    -0.241 OA
ENDBRANCH   3  22
TORSDOF 7
ENDMDL
MODEL 5
REMARK VINA RESULT:      -5.1      1.891      2.735
REMARK  7 active torsions:
REMARK  status: ('A' for Active; 'I' for Inactive)
REMARK    1  A    between atoms: C_2  and  C_3 
REMARK    2  A    between atoms: C_3  and  O_6 
REMARK    3  A    between atoms: C_3  and  C_4 
REMARK    4  A    between atoms: C_7  and  O_6 
REMARK    5  A    between atoms: C_9  and  C_10 
REMARK    6  A    between atoms: N_15  and  C_14 
REMARK    7  A    between atoms: N_20  and  C_19 
REMARK       I    between atoms: C_22  and  N_20 
ROOT
ATOM      1  C   LIG d   1      -4.077  91.546 117.947  0.00  0.00     0.161 C 
ATOM      2  C   LIG d   1      -4.459  90.836 116.797  0.00  0.00     0.016 C 
ATOM      3  C   LIG d   1      -5.792  90.771 116.330  0.00  0.00     0.038 C 
ATOM      4  C   LIG d   1      -6.816  91.544 116.899  0.00  0.00     0.028 C 
ATOM      5  C   LIG d   1      -6.575  91.880 118.367  0.00  0.00    -0.047 C 
ATOM      6  C   LIG d   1      -5.160  92.485 118.517  0.00  0.00     0.091 C 
ENDROOT
BRANCH   1   7
ATOM      7  O   LIG d   1      -2.864  92.281 117.686  0.00  0.00    -0.368 OA
BRANCH   7   8
ATOM      8  C   LIG d   1      -1.698  91.875 118.443  0.00  0.00     0.119 C 
BRANCH   8   9
ATOM      9  C   LIG d   1      -0.794  93.113 118.601  0.00  0.00     0.028 C 
ATOM     10  C   LIG d   1      -1.470  94.400 118.101  0.00  0.00     0.006 C 
ENDBRANCH   8   9
BRANCH   8  11
ATOM     11  C   LIG d   1      -0.857  90.855 117.669  0.00  0.00     0.028 C 
ATOM     12  C   LIG d   1       0.503  91.417 117.226  0.00  0.00     0.006 C 
ENDBRANCH   8  11
ENDBRANCH   7   8
ENDBRANCH   1   7
BRANCH   6  13
ATOM     13  N   LIG d   1      -4.811  92.765 119.935  0.00  0.00    -0.311 N 
ATOM     14  C   LIG d   1      -4.542  93.985 120.396  0.00  0.00     0.210 C 
ATOM     15  C   LIG d   1      -4.186  94.050 121.884  0.00  0.00     0.109 C 
ATOM     16  O   LIG d   1      -4.595  95.024 119.721  0.00  0.00    -0.276 OA
ATOM     17  H   LIG d   1      -4.776  91.983 120.559  0.00  0.00     0.149 HD
ENDBRANCH   6  13
BRANCH   5  18
ATOM     18  N   LIG d   1      -7.645  92.801 118.794  0.00  0.00     0.381 N 
ATOM     19  H   LIG d   1      -8.383  92.283 119.229  0.00  0.00    -0.090 HD
ATOM     20  H   LIG d   1      -8.019  93.264 117.984  0.00  0.00    -0.090 HD
ATOM     21  H   LIG d   1      -7.282  93.474 119.433  0.00  0.00    -0.090 HD
ENDBRANCH   5  18
BRANCH   3  22
ATOM     22  C   LIG d   1      -6.120  89.897 115.305  0.00  0.00     0.382 C 
ATOM     23  O   LIG d   1      -7.303  89.829 114.893  0.00  0.00    -0.241 OA
ATOM     24  O   LIG d   1      -5.256  89.143 114.818  0.00  0.00    -0.241 OA
ENDBRANCH   3  22
TORSDOF 7
ENDMDL
MODEL 6
REMARK VINA RESULT:      -5.0      2.451      4.030
REMARK  7 active torsions:
REMARK  status: ('A' for Active; 'I' for Inactive)
REMARK    1  A    between atoms: C_2  and  C_3 
REMARK    2  A    between atoms: C_3  and  O_6 
REMARK    3  A    between atoms: C_3  and  C_4 
REMARK    4  A    between atoms: C_7  and  O_6 
REMARK    5  A    between atoms: C_9  and  C_10 
REMARK    6  A    between atoms: N_15  and  C_14 
REMARK    7  A    between atoms: N_20  and  C_19 
REMARK       I    between atoms: C_22  and  N_20 
ROOT
ATOM      1  C   LIG d   1      -4.010  92.027 118.199  0.00  0.00     0.161 C 
ATOM      2  C   LIG d   1      -5.305  92.566 118.128  0.00  0.00     0.016 C 
ATOM      3  C   LIG d   1      -6.315  92.056 117.280  0.00  0.00     0.038 C 
ATOM      4  C   LIG d   1      -6.141  90.871 116.550  0.00  0.00     0.028 C 
ATOM      5  C   LIG d   1      -4.685  90.581 116.204  0.00  0.00    -0.047 C 
ATOM      6  C   LIG d   1      -3.836  90.666 117.493  0.00  0.00     0.091 C 
ENDROOT
BRANCH   1   7
ATOM      7  O   LIG d   1      -3.594  91.934 119.576  0.00  0.00    -0.368 OA
BRANCH   7   8
ATOM      8  C   LIG d   1      -3.980  90.727 120.278  0.00  0.00     0.119 C 
BRANCH   8   9
ATOM      9  C   LIG d   1      -5.132  91.096 121.233  0.00  0.00     0.028 C 
ATOM     10  C   LIG d   1      -4.907  92.449 121.928  0.00  0.00     0.006 C 
ENDBRANCH   8   9
BRANCH   8  11
ATOM     11  C   LIG d   1      -2.851  90.222 121.181  0.00  0.00     0.028 C 
ATOM     12  C   LIG d   1      -1.527  90.969 120.954  0.00  0.00     0.006 C 
ENDBRANCH   8  11
ENDBRANCH   7   8
ENDBRANCH   1   7
BRANCH   6  13
ATOM     13  N   LIG d   1      -2.385  90.478 117.230  0.00  0.00    -0.311 N 
ATOM     14  C   LIG d   1      -1.707  89.395 117.603  0.00  0.00     0.210 C 
ATOM     15  C   LIG d   1      -0.216  89.412 117.251  0.00  0.00     0.109 C 
ATOM     16  O   LIG d   1      -2.205  88.407 118.164  0.00  0.00    -0.276 OA
ATOM     17  H   LIG d   1      -1.909  91.218 116.752  0.00  0.00     0.149 HD
ENDBRANCH   6  13
BRANCH   5  18
ATOM     18  N   LIG d   1      -4.634  89.252 115.566  0.00  0.00     0.381 N 
ATOM     19  H   LIG d   1      -4.075  89.294 114.737  0.00  0.00    -0.090 HD
ATOM     20  H   LIG d   1      -5.566  88.981 115.304  0.00  0.00    -0.090 HD
ATOM     21  H   LIG d   1      -4.253  88.584 116.199  0.00  0.00    -0.090 HD
ENDBRANCH   5  18
BRANCH   3  22
ATOM     22  C   LIG d   1      -7.501  92.757 117.125  0.00  0.00     0.382 C 
ATOM     23  O   LIG d   1      -7.837  93.178 115.991  0.00  0.00    -0.241 OA
ATOM     24  O   LIG d   1      -8.217  93.013 118.111  0.00  0.00    -0.241 OA
ENDBRANCH   3  22
TORSDOF 7
ENDMDL
MODEL 7
REMARK VINA RESULT:      -4.9      1.245      1.968
REMARK  7 active torsions:
REMARK  status: ('A' for Active; 'I' for Inactive)
REMARK    1  A    between atoms: C_2  and  C_3 
REMARK    2  A    between atoms: C_3  and  O_6 
REMARK    3  A    between atoms: C_3  and  C_4 
REMARK    4  A    between atoms: C_7  and  O_6 
REMARK    5  A    between atoms: C_9  and  C_10 
REMARK    6  A    between atoms: N_15  and  C_14 
REMARK    7  A    between atoms: N_20  and  C_19 
REMARK       I    between atoms: C_22  and  N_20 
ROOT
ATOM      1  C   LIG d   1      -3.995  90.875 117.875  0.00  0.00     0.161 C 
ATOM      2  C   LIG d   1      -4.443  90.172 116.744  0.00  0.00     0.016 C 
ATOM      3  C   LIG d   1      -5.547  90.581 115.961  0.00  0.00     0.038 C 
ATOM      4  C   LIG d   1      -6.189  91.811 116.169  0.00  0.00     0.028 C 
ATOM      5  C   LIG d   1      -6.093  92.308 117.607  0.00  0.00    -0.047 C 
ATOM      6  C   LIG d   1      -4.613  92.277 118.052  0.00  0.00     0.091 C 
ENDROOT
BRANCH   1   7
ATOM      7  O   LIG d   1      -2.556  90.959 117.859  0.00  0.00    -0.368 OA
BRANCH   7   8
ATOM      8  C   LIG d   1      -1.862  90.192 118.873  0.00  0.00     0.119 C 
BRANCH   8   9
ATOM      9  C   LIG d   1      -0.637  91.014 119.318  0.00  0.00     0.028 C 
ATOM     10  C   LIG d   1      -0.636  91.293 120.831  0.00  0.00     0.006 C 
ENDBRANCH   8   9
BRANCH   8  11
ATOM     11  C   LIG d   1      -1.290  88.894 118.294  0.00  0.00     0.028 C 
ATOM     12  C   LIG d   1      -0.049  89.128 117.419  0.00  0.00     0.006 C 
ENDBRANCH   8  11
ENDBRANCH   7   8
ENDBRANCH   1   7
BRANCH   6  13
ATOM     13  N   LIG d   1      -4.440  92.669 119.475  0.00  0.00    -0.311 N 
ATOM     14  C   LIG d   1      -3.508  93.523 119.892  0.00  0.00     0.210 C 
ATOM     15  C   LIG d   1      -3.490  93.773 121.404  0.00  0.00     0.109 C 
ATOM     16  O   LIG d   1      -2.715  94.123 119.151  0.00  0.00    -0.276 OA
ATOM     17  H   LIG d   1      -5.062  92.253 120.141  0.00  0.00     0.149 HD
ENDBRANCH   6  13
BRANCH   5  18
ATOM     18  N   LIG d   1      -6.682  93.660 117.652  0.00  0.00     0.381 N 
ATOM     19  H   LIG d   1      -6.067  94.282 118.137  0.00  0.00    -0.090 HD
ATOM     20  H   LIG d   1      -7.551  93.620 118.155  0.00  0.00    -0.090 HD
ATOM     21  H   LIG d   1      -6.841  93.993 116.726  0.00  0.00    -0.090 HD
ENDBRANCH   5  18
BRANCH   3  22
ATOM     22  C   LIG d   1      -6.045  89.736 114.981  0.00  0.00     0.382 C 
ATOM     23  O   LIG d   1      -5.308  88.853 114.481  0.00  0.00    -0.241 OA
ATOM     24  O   LIG d   1      -7.209  89.875 114.558  0.00  0.00    -0.241 OA
ENDBRANCH   3  22
TORSDOF 7
ENDMDL
MODEL 8
REMARK VINA RESULT:      -4.8      2.787      4.730
REMARK  7 active torsions:
REMARK  status: ('A' for Active; 'I' for Inactive)
REMARK    1  A    between atoms: C_2  and  C_3 
REMARK    2  A    between atoms: C_3  and  O_6 
REMARK    3  A    between atoms: C_3  and  C_4 
REMARK    4  A    between atoms: C_7  and  O_6 
REMARK    5  A    between atoms: C_9  and  C_10 
REMARK    6  A    between atoms: N_15  and  C_14 
REMARK    7  A    between atoms: N_20  and  C_19 
REMARK       I    between atoms: C_22  and  N_20 
ROOT
ATOM      1  C   LIG d   1      -5.205  92.818 119.165  0.00  0.00     0.161 C 
ATOM      2  C   LIG d   1      -6.234  92.953 118.219  0.00  0.00     0.016 C 
ATOM      3  C   LIG d   1      -6.211  92.331 116.950  0.00  0.00     0.038 C 
ATOM      4  C   LIG d   1      -5.221  91.403 116.597  0.00  0.00     0.028 C 
ATOM      5  C   LIG d   1      -3.898  91.624 117.323  0.00  0.00    -0.047 C 
ATOM      6  C   LIG d   1      -4.169  91.721 118.841  0.00  0.00     0.091 C 
ENDROOT
BRANCH   1   7
ATOM      7  O   LIG d   1      -5.769  92.604 120.474  0.00  0.00    -0.368 OA
BRANCH   7   8
ATOM      8  C   LIG d   1      -5.734  93.737 121.376  0.00  0.00     0.119 C 
BRANCH   8   9
ATOM      9  C   LIG d   1      -7.072  94.488 121.228  0.00  0.00     0.028 C 
ATOM     10  C   LIG d   1      -8.235  93.757 121.920  0.00  0.00     0.006 C 
ENDBRANCH   8   9
BRANCH   8  11
ATOM     11  C   LIG d   1      -4.657  94.745 120.964  0.00  0.00     0.028 C 
ATOM     12  C   LIG d   1      -3.461  94.766 121.930  0.00  0.00     0.006 C 
ENDBRANCH   8  11
ENDBRANCH   7   8
ENDBRANCH   1   7
BRANCH   6  13
ATOM     13  N   LIG d   1      -2.938  92.021 119.619  0.00  0.00    -0.311 N 
ATOM     14  C   LIG d   1      -2.527  91.287 120.651  0.00  0.00     0.210 C 
ATOM     15  C   LIG d   1      -1.243  91.782 121.326  0.00  0.00     0.109 C 
ATOM     16  O   LIG d   1      -3.085  90.255 121.053  0.00  0.00    -0.276 OA
ATOM     17  H   LIG d   1      -2.408  92.823 119.341  0.00  0.00     0.149 HD
ENDBRANCH   6  13
BRANCH   5  18
ATOM     18  N   LIG d   1      -3.002  90.508 116.966  0.00  0.00     0.381 N 
ATOM     19  H   LIG d   1      -3.147  89.743 117.594  0.00  0.00    -0.090 HD
ATOM     20  H   LIG d   1      -2.049  90.814 117.056  0.00  0.00    -0.090 HD
ATOM     21  H   LIG d   1      -3.177  90.215 116.030  0.00  0.00    -0.090 HD
ENDBRANCH   5  18
BRANCH   3  22
ATOM     22  C   LIG d   1      -7.167  92.667 116.002  0.00  0.00     0.382 C 
ATOM     23  O   LIG d   1      -6.860  92.700 114.786  0.00  0.00    -0.241 OA
ATOM     24  O   LIG d   1      -8.321  92.980 116.352  0.00  0.00    -0.241 OA
ENDBRANCH   3  22
TORSDOF 7
ENDMDL
MODEL 9
REMARK VINA RESULT:      -4.7      2.045      4.918
REMARK  7 active torsions:
REMARK  status: ('A' for Active; 'I' for Inactive)
REMARK    1  A    between atoms: C_2  and  C_3 
REMARK    2  A    between atoms: C_3  and  O_6 
REMARK    3  A    between atoms: C_3  and  C_4 
REMARK    4  A    between atoms: C_7  and  O_6 
REMARK    5  A    between atoms: C_9  and  C_10 
REMARK    6  A    between atoms: N_15  and  C_14 
REMARK    7  A    between atoms: N_20  and  C_19 
REMARK       I    between atoms: C_22  and  N_20 
ROOT
ATOM      1  C   LIG d   1      -4.161  92.295 118.506  0.00  0.00     0.161 C 
ATOM      2  C   LIG d   1      -3.967  93.231 119.535  0.00  0.00     0.016 C 
ATOM      3  C   LIG d   1      -5.001  94.042 120.056  0.00  0.00     0.038 C 
ATOM      4  C   LIG d   1      -6.342  93.864 119.682  0.00  0.00     0.028 C 
ATOM      5  C   LIG d   1      -6.509  93.280 118.284  0.00  0.00    -0.047 C 
ATOM      6  C   LIG d   1      -5.638  92.008 118.163  0.00  0.00     0.091 C 
ENDROOT
BRANCH   1   7
ATOM      7  O   LIG d   1      -3.473  91.069 118.823  0.00  0.00    -0.368 OA
BRANCH   7   8
ATOM      8  C   LIG d   1      -2.608  90.538 117.790  0.00  0.00     0.119 C 
BRANCH   8   9
ATOM      9  C   LIG d   1      -2.938  89.041 117.634  0.00  0.00     0.028 C 
ATOM     10  C   LIG d   1      -2.751  88.259 118.945  0.00  0.00     0.006 C 
ENDBRANCH   8   9
BRANCH   8  11
ATOM     11  C   LIG d   1      -1.137  90.587 118.216  0.00  0.00     0.028 C 
ATOM     12  C   LIG d   1      -0.489  91.957 117.962  0.00  0.00     0.006 C 
ENDBRANCH   8  11
ENDBRANCH   7   8
ENDBRANCH   1   7
BRANCH   6  13
ATOM     13  N   LIG d   1      -5.678  91.421 116.799  0.00  0.00    -0.311 N 
ATOM     14  C   LIG d   1      -6.512  90.445 116.445  0.00  0.00     0.210 C 
ATOM     15  C   LIG d   1      -6.374  89.971 114.994  0.00  0.00     0.109 C 
ATOM     16  O   LIG d   1      -7.375  89.948 117.184  0.00  0.00    -0.276 OA
ATOM     17  H   LIG d   1      -5.033  91.786 116.126  0.00  0.00     0.149 HD
ENDBRANCH   6  13
BRANCH   5  18
ATOM     18  N   LIG d   1      -7.946  93.018 118.078  0.00  0.00     0.381 N 
ATOM     19  H   LIG d   1      -8.211  93.292 117.153  0.00  0.00    -0.090 HD
ATOM     20  H   LIG d   1      -8.473  93.569 118.733  0.00  0.00    -0.090 HD
ATOM     21  H   LIG d   1      -8.139  92.051 118.215  0.00  0.00    -0.090 HD
ENDBRANCH   5  18
BRANCH   3  22
ATOM     22  C   LIG d   1      -4.693  95.072 120.931  0.00  0.00     0.382 C 
ATOM     23  O   LIG d   1      -5.113  96.232 120.707  0.00  0.00    -0.241 OA
ATOM     24  O   LIG d   1      -3.962  94.864 121.918  0.00  0.00    -0.241 OA
ENDBRANCH   3  22
TORSDOF 7
ENDMDL
