MODEL 1
REMARK VINA RESULT:      -5.5      0.000      0.000
REMARK  7 active torsions:
REMARK  status: ('A' for Active; 'I' for Inactive)
REMARK    1  A    between atoms: C_2  and  C_3 
REMARK    2  A    between atoms: C_3  and  O_6 
REMARK    3  A    between atoms: C_3  and  C_4 
REMARK    4  A    between atoms: C_7  and  O_6 
REMARK    5  A    between atoms: C_9  and  C_10 
REMARK    6  A    between atoms: N_15  and  C_14 
REMARK    7  A    between atoms: N_20  and  C_19 
REMARK       I    between atoms: C_22  and  N_20 
ROOT
ATOM      1  C   LIG d   1      -5.830  92.811 116.830  0.00  0.00     0.161 C 
ATOM      2  C   LIG d   1      -6.766  91.869 116.373  0.00  0.00     0.016 C 
ATOM      3  C   LIG d   1      -6.577  90.472 116.474  0.00  0.00     0.038 C 
ATOM      4  C   LIG d   1      -5.499  89.919 117.182  0.00  0.00     0.028 C 
ATOM      5  C   LIG d   1      -4.272  90.823 117.220  0.00  0.00    -0.047 C 
ATOM      6  C   LIG d   1      -4.700  92.228 117.704  0.00  0.00     0.091 C 
ENDROOT
BRANCH   1   7
ATOM      7  O   LIG d   1      -6.507  93.873 117.531  0.00  0.00    -0.368 OA
BRANCH   7   8
ATOM      8  C   LIG d   1      -7.227  93.489 118.728  0.00  0.00     0.119 C 
BRANCH   8   9
ATOM      9  C   LIG d   1      -8.637  94.104 118.637  0.00  0.00     0.028 C 
ATOM     10  C   LIG d   1      -9.438  93.931 119.939  0.00  0.00     0.006 C 
ENDBRANCH   8   9
BRANCH   8  11
ATOM     11  C   LIG d   1      -6.596  94.106 119.979  0.00  0.00     0.028 C 
ATOM     12  C   LIG d   1      -5.876  95.433 119.692  0.00  0.00     0.006 C 
ENDBRANCH   8  11
ENDBRANCH   7   8
ENDBRANCH   1   7
BRANCH   6  13
ATOM     13  N   LIG d   1      -3.574  93.199 117.691  0.00  0.00    -0.311 N 
ATOM     14  C   LIG d   1      -2.841  93.486 118.765  0.00  0.00     0.210 C 
ATOM     15  C   LIG d   1      -1.743  94.529 118.538  0.00  0.00     0.109 C 
ATOM     16  O   LIG d   1      -2.975  92.952 119.876  0.00  0.00    -0.276 OA
ATOM     17  H   LIG d   1      -3.376  93.655 116.822  0.00  0.00     0.149 HD
ENDBRANCH   6  13
BRANCH   5  18
ATOM     18  N   LIG d   1      -3.276  90.186 118.102  0.00  0.00     0.381 N 
ATOM     19  H   LIG d   1      -3.380  90.532 119.036  0.00  0.00    -0.090 HD
ATOM     20  H   LIG d   1      -2.356  90.424 117.778  0.00  0.00    -0.090 HD
ATOM     21  H   LIG d   1      -3.395  89.197 118.092  0.00  0.00    -0.090 HD
ENDBRANCH   5  18
BRANCH   3  22
ATOM     22  C   LIG d   1      -7.453  89.611 115.829  0.00  0.00     0.382 C 
ATOM     23  O   LIG d   1      -8.138  88.799 116.496  0.00  0.00    -0.241 OA
ATOM     24  O   LIG d   1      -7.532  89.606 114.586  0.00  0.00    -0.241 OA
ENDBRANCH   3  22
TORSDOF 7
ENDMDL
MODEL 2
REMARK VINA RESULT:      -5.4      1.185      1.808
REMARK  7 active torsions:
REMARK  status: ('A' for Active; 'I' for Inactive)
REMARK    1  A    between atoms: C_2  and  C_3 
REMARK    2  A    between atoms: C_3  and  O_6 
REMARK    3  A    between atoms: C_3  and  C_4 
REMARK    4  A    between atoms: C_7  and  O_6 
REMARK    5  A    between atoms: C_9  and  C_10 
REMARK    6  A    between atoms: N_15  and  C_14 
REMARK    7  A    between atoms: N_20  and  C_19 
REMARK       I    between atoms: C_22  and  N_20 
ROOT
ATOM      1  C   LIG d   1      -6.294  92.884 117.960  0.00  0.00     0.161 C 
ATOM      2  C   LIG d   1      -6.896  91.784 117.327  0.00  0.00     0.016 C 
ATOM      3  C   LIG d   1      -6.185  90.627 116.934  0.00  0.00     0.038 C 
ATOM      4  C   LIG d   1      -4.842  90.427 117.287  0.00  0.00     0.028 C 
ATOM      5  C   LIG d   1      -4.067  91.726 117.482  0.00  0.00    -0.047 C 
ATOM      6  C   LIG d   1      -4.852  92.638 118.452  0.00  0.00     0.091 C 
ENDROOT
BRANCH   1   7
ATOM      7  O   LIG d   1      -7.124  93.336 119.047  0.00  0.00    -0.368 OA
BRANCH   7   8
ATOM      8  C   LIG d   1      -8.125  94.329 118.715  0.00  0.00     0.119 C 
BRANCH   8   9
ATOM      9  C   LIG d   1      -7.388  95.556 118.144  0.00  0.00     0.028 C 
ATOM     10  C   LIG d   1      -6.743  96.417 119.242  0.00  0.00     0.006 C 
ENDBRANCH   8   9
BRANCH   8  11
ATOM     11  C   LIG d   1      -8.846  94.836 119.967  0.00  0.00     0.028 C 
ATOM     12  C   LIG d   1     -10.078  93.991 120.329  0.00  0.00     0.006 C 
ENDBRANCH   8  11
ENDBRANCH   7   8
ENDBRANCH   1   7
BRANCH   6  13
ATOM     13  N   LIG d   1      -4.206  93.964 118.633  0.00  0.00    -0.311 N 
ATOM     14  C   LIG d   1      -3.361  94.238 119.625  0.00  0.00     0.210 C 
ATOM     15  C   LIG d   1      -2.824  95.673 119.638  0.00  0.00     0.109 C 
ATOM     16  O   LIG d   1      -2.981  93.421 120.477  0.00  0.00    -0.276 OA
ATOM     17  H   LIG d   1      -4.434  94.677 117.968  0.00  0.00     0.149 HD
ENDBRANCH   6  13
BRANCH   5  18
ATOM     18  N   LIG d   1      -2.724  91.373 117.980  0.00  0.00     0.381 N 
ATOM     19  H   LIG d   1      -2.804  90.750 118.758  0.00  0.00    -0.090 HD
ATOM     20  H   LIG d   1      -2.263  92.210 118.292  0.00  0.00    -0.090 HD
ATOM     21  H   LIG d   1      -2.193  90.943 117.254  0.00  0.00    -0.090 HD
ENDBRANCH   5  18
BRANCH   3  22
ATOM     22  C   LIG d   1      -6.808  89.672 116.145  0.00  0.00     0.382 C 
ATOM     23  O   LIG d   1      -7.897  89.169 116.513  0.00  0.00    -0.241 OA
ATOM     24  O   LIG d   1      -6.272  89.274 115.093  0.00  0.00    -0.241 OA
ENDBRANCH   3  22
TORSDOF 7
ENDMDL
MODEL 3
REMARK VINA RESULT:      -5.2      2.116      4.351
REMARK  7 active torsions:
REMARK  status: ('A' for Active; 'I' for Inactive)
REMARK    1  A    between atoms: C_2  and  C_3 
REMARK    2  A    between atoms: C_3  and  O_6 
REMARK    3  A    between atoms: C_3  and  C_4 
REMARK    4  A    between atoms: C_7  and  O_6 
REMARK    5  A    between atoms: C_9  and  C_10 
REMARK    6  A    between atoms: N_15  and  C_14 
REMARK    7  A    between atoms: N_20  and  C_19 
REMARK       I    between atoms: C_22  and  N_20 
ROOT
ATOM      1  C   LIG d   1      -4.332  91.013 117.826  0.00  0.00     0.161 C 
ATOM      2  C   LIG d   1      -5.181  90.257 117.001  0.00  0.00     0.016 C 
ATOM      3  C   LIG d   1      -6.373  90.766 116.437  0.00  0.00     0.038 C 
ATOM      4  C   LIG d   1      -6.721  92.121 116.537  0.00  0.00     0.028 C 
ATOM      5  C   LIG d   1      -6.156  92.801 117.779  0.00  0.00    -0.047 C 
ATOM      6  C   LIG d   1      -4.637  92.525 117.856  0.00  0.00     0.091 C 
ENDROOT
BRANCH   1   7
ATOM      7  O   LIG d   1      -2.958  90.787 117.451  0.00  0.00    -0.368 OA
BRANCH   7   8
ATOM      8  C   LIG d   1      -2.096  90.249 118.484  0.00  0.00     0.119 C 
BRANCH   8   9
ATOM      9  C   LIG d   1      -1.367  89.029 117.889  0.00  0.00     0.028 C 
ATOM     10  C   LIG d   1      -2.317  87.849 117.624  0.00  0.00     0.006 C 
ENDBRANCH   8   9
BRANCH   8  11
ATOM     11  C   LIG d   1      -2.911  89.701 119.660  0.00  0.00     0.028 C 
ATOM     12  C   LIG d   1      -2.506  90.321 121.006  0.00  0.00     0.006 C 
ENDBRANCH   8  11
ENDBRANCH   7   8
ENDBRANCH   1   7
BRANCH   6  13
ATOM     13  N   LIG d   1      -4.021  93.085 119.087  0.00  0.00    -0.311 N 
ATOM     14  C   LIG d   1      -2.896  93.798 119.084  0.00  0.00     0.210 C 
ATOM     15  C   LIG d   1      -2.422  94.263 120.465  0.00  0.00     0.109 C 
ATOM     16  O   LIG d   1      -2.264  94.118 118.067  0.00  0.00    -0.276 OA
ATOM     17  H   LIG d   1      -4.486  92.900 119.954  0.00  0.00     0.149 HD
ENDBRANCH   6  13
BRANCH   5  18
ATOM     18  N   LIG d   1      -6.479  94.237 117.687  0.00  0.00     0.381 N 
ATOM     19  H   LIG d   1      -7.338  94.423 118.166  0.00  0.00    -0.090 HD
ATOM     20  H   LIG d   1      -6.599  94.482 116.719  0.00  0.00    -0.090 HD
ATOM     21  H   LIG d   1      -5.744  94.779 118.085  0.00  0.00    -0.090 HD
ENDBRANCH   5  18
BRANCH   3  22
ATOM     22  C   LIG d   1      -7.252  89.905 115.796  0.00  0.00     0.382 C 
ATOM     23  O   LIG d   1      -7.519  90.073 114.582  0.00  0.00    -0.241 OA
ATOM     24  O   LIG d   1      -7.814  88.991 116.428  0.00  0.00    -0.241 OA
ENDBRANCH   3  22
TORSDOF 7
ENDMDL
MODEL 4
REMARK VINA RESULT:      -5.2      2.076      4.250
REMARK  7 active torsions:
REMARK  status: ('A' for Active; 'I' for Inactive)
REMARK    1  A    between atoms: C_2  and  C_3 
REMARK    2  A    between atoms: C_3  and  O_6 
REMARK    3  A    between atoms: C_3  and  C_4 
REMARK    4  A    between atoms: C_7  and  O_6 
REMARK    5  A    between atoms: C_9  and  C_10 
REMARK    6  A    between atoms: N_15  and  C_14 
REMARK    7  A    between atoms: N_20  and  C_19 
REMARK       I    between atoms: C_22  and  N_20 
ROOT
ATOM      1  C   LIG d   1      -5.317  91.434 118.982  0.00  0.00     0.161 C 
ATOM      2  C   LIG d   1      -5.510  90.648 117.834  0.00  0.00     0.016 C 
ATOM      3  C   LIG d   1      -6.148  91.122 116.664  0.00  0.00     0.038 C 
ATOM      4  C   LIG d   1      -6.504  92.470 116.508  0.00  0.00     0.028 C 
ATOM      5  C   LIG d   1      -6.786  93.178 117.829  0.00  0.00    -0.047 C 
ATOM      6  C   LIG d   1      -5.599  92.939 118.790  0.00  0.00     0.091 C 
ENDROOT
BRANCH   1   7
ATOM      7  O   LIG d   1      -3.984  91.235 119.492  0.00  0.00    -0.368 OA
BRANCH   7   8
ATOM      8  C   LIG d   1      -2.900  91.577 118.594  0.00  0.00     0.119 C 
BRANCH   8   9
ATOM      9  C   LIG d   1      -1.895  90.409 118.614  0.00  0.00     0.028 C 
ATOM     10  C   LIG d   1      -2.103  89.437 117.441  0.00  0.00     0.006 C 
ENDBRANCH   8   9
BRANCH   8  11
ATOM     11  C   LIG d   1      -2.119  92.793 119.102  0.00  0.00     0.028 C 
ATOM     12  C   LIG d   1      -2.050  93.930 118.070  0.00  0.00     0.006 C 
ENDBRANCH   8  11
ENDBRANCH   7   8
ENDBRANCH   1   7
BRANCH   6  13
ATOM     13  N   LIG d   1      -5.831  93.528 120.135  0.00  0.00    -0.311 N 
ATOM     14  C   LIG d   1      -5.399  94.736 120.490  0.00  0.00     0.210 C 
ATOM     15  C   LIG d   1      -5.728  95.143 121.930  0.00  0.00     0.109 C 
ATOM     16  O   LIG d   1      -4.802  95.523 119.740  0.00  0.00    -0.276 OA
ATOM     17  H   LIG d   1      -6.334  92.970 120.797  0.00  0.00     0.149 HD
ENDBRANCH   6  13
BRANCH   5  18
ATOM     18  N   LIG d   1      -7.008  94.606 117.530  0.00  0.00     0.381 N 
ATOM     19  H   LIG d   1      -7.345  95.074 118.347  0.00  0.00    -0.090 HD
ATOM     20  H   LIG d   1      -7.707  94.682 116.812  0.00  0.00    -0.090 HD
ATOM     21  H   LIG d   1      -6.159  95.026 117.223  0.00  0.00    -0.090 HD
ENDBRANCH   5  18
BRANCH   3  22
ATOM     22  C   LIG d   1      -6.472  90.233 115.650  0.00  0.00     0.382 C 
ATOM     23  O   LIG d   1      -7.446  90.472 114.895  0.00  0.00    -0.241 OA
ATOM     24  O   LIG d   1      -5.831  89.175 115.508  0.00  0.00    -0.241 OA
ENDBRANCH   3  22
TORSDOF 7
ENDMDL
MODEL 5
REMARK VINA RESULT:      -5.0      1.935      4.278
REMARK  7 active torsions:
REMARK  status: ('A' for Active; 'I' for Inactive)
REMARK    1  A    between atoms: C_2  and  C_3 
REMARK    2  A    between atoms: C_3  and  O_6 
REMARK    3  A    between atoms: C_3  and  C_4 
REMARK    4  A    between atoms: C_7  and  O_6 
REMARK    5  A    between atoms: C_9  and  C_10 
REMARK    6  A    between atoms: N_15  and  C_14 
REMARK    7  A    between atoms: N_20  and  C_19 
REMARK       I    between atoms: C_22  and  N_20 
ROOT
ATOM      1  C   LIG d   1      -4.833  92.458 118.063  0.00  0.00     0.161 C 
ATOM      2  C   LIG d   1      -4.984  91.303 117.277  0.00  0.00     0.016 C 
ATOM      3  C   LIG d   1      -6.185  90.966 116.611  0.00  0.00     0.038 C 
ATOM      4  C   LIG d   1      -7.278  91.844 116.565  0.00  0.00     0.028 C 
ATOM      5  C   LIG d   1      -7.349  92.788 117.760  0.00  0.00    -0.047 C 
ATOM      6  C   LIG d   1      -5.979  93.483 117.933  0.00  0.00     0.091 C 
ENDROOT
BRANCH   1   7
ATOM      7  O   LIG d   1      -3.567  93.083 117.776  0.00  0.00    -0.368 OA
BRANCH   7   8
ATOM      8  C   LIG d   1      -2.583  93.049 118.839  0.00  0.00     0.119 C 
BRANCH   8   9
ATOM      9  C   LIG d   1      -1.740  94.335 118.731  0.00  0.00     0.028 C 
ATOM     10  C   LIG d   1      -2.514  95.584 119.185  0.00  0.00     0.006 C 
ENDBRANCH   8   9
BRANCH   8  11
ATOM     11  C   LIG d   1      -1.593  91.897 118.646  0.00  0.00     0.028 C 
ATOM     12  C   LIG d   1      -0.135  92.319 118.887  0.00  0.00     0.006 C 
ENDBRANCH   8  11
ENDBRANCH   7   8
ENDBRANCH   1   7
BRANCH   6  13
ATOM     13  N   LIG d   1      -5.936  94.361 119.131  0.00  0.00    -0.311 N 
ATOM     14  C   LIG d   1      -6.351  95.626 119.129  0.00  0.00     0.210 C 
ATOM     15  C   LIG d   1      -6.200  96.359 120.466  0.00  0.00     0.109 C 
ATOM     16  O   LIG d   1      -6.861  96.201 118.155  0.00  0.00    -0.276 OA
ATOM     17  H   LIG d   1      -5.566  93.965 119.973  0.00  0.00     0.149 HD
ENDBRANCH   6  13
BRANCH   5  18
ATOM     18  N   LIG d   1      -8.452  93.736 117.515  0.00  0.00     0.381 N 
ATOM     19  H   LIG d   1      -9.085  93.727 118.290  0.00  0.00    -0.090 HD
ATOM     20  H   LIG d   1      -8.954  93.446 116.694  0.00  0.00    -0.090 HD
ATOM     21  H   LIG d   1      -8.089  94.655 117.384  0.00  0.00    -0.090 HD
ENDBRANCH   5  18
BRANCH   3  22
ATOM     22  C   LIG d   1      -6.315  89.720 116.017  0.00  0.00     0.382 C 
ATOM     23  O   LIG d   1      -7.437  89.161 115.972  0.00  0.00    -0.241 OA
ATOM     24  O   LIG d   1      -5.316  89.129 115.564  0.00  0.00    -0.241 OA
ENDBRANCH   3  22
TORSDOF 7
ENDMDL
MODEL 6
REMARK VINA RESULT:      -5.0      2.750      5.228
REMARK  7 active torsions:
REMARK  status: ('A' for Active; 'I' for Inactive)
REMARK    1  A    between atoms: C_2  and  C_3 
REMARK    2  A    between atoms: C_3  and  O_6 
REMARK    3  A    between atoms: C_3  and  C_4 
REMARK    4  A    between atoms: C_7  and  O_6 
REMARK    5  A    between atoms: C_9  and  C_10 
REMARK    6  A    between atoms: N_15  and  C_14 
REMARK    7  A    between atoms: N_20  and  C_19 
REMARK       I    between atoms: C_22  and  N_20 
ROOT
ATOM      1  C   LIG d   1      -3.421  90.346 117.932  0.00  0.00     0.161 C 
ATOM      2  C   LIG d   1      -4.411  89.986 117.001  0.00  0.00     0.016 C 
ATOM      3  C   LIG d   1      -5.421  90.871 116.559  0.00  0.00     0.038 C 
ATOM      4  C   LIG d   1      -5.420  92.230 116.905  0.00  0.00     0.028 C 
ATOM      5  C   LIG d   1      -4.737  92.515 118.238  0.00  0.00    -0.047 C 
ATOM      6  C   LIG d   1      -3.338  91.857 118.236  0.00  0.00     0.091 C 
ENDROOT
BRANCH   1   7
ATOM      7  O   LIG d   1      -2.139  89.851 117.497  0.00  0.00    -0.368 OA
BRANCH   7   8
ATOM      8  C   LIG d   1      -1.543  88.818 118.320  0.00  0.00     0.119 C 
BRANCH   8   9
ATOM      9  C   LIG d   1      -1.453  87.540 117.464  0.00  0.00     0.028 C 
ATOM     10  C   LIG d   1      -0.003  87.174 117.106  0.00  0.00     0.006 C 
ENDBRANCH   8   9
BRANCH   8  11
ATOM     11  C   LIG d   1      -2.449  88.453 119.500  0.00  0.00     0.028 C 
ATOM     12  C   LIG d   1      -2.726  86.944 119.593  0.00  0.00     0.006 C 
ENDBRANCH   8  11
ENDBRANCH   7   8
ENDBRANCH   1   7
BRANCH   6  13
ATOM     13  N   LIG d   1      -2.634  92.016 119.535  0.00  0.00    -0.311 N 
ATOM     14  C   LIG d   1      -1.752  92.984 119.777  0.00  0.00     0.210 C 
ATOM     15  C   LIG d   1      -1.128  92.955 121.176  0.00  0.00     0.109 C 
ATOM     16  O   LIG d   1      -1.451  93.883 118.977  0.00  0.00    -0.276 OA
ATOM     17  H   LIG d   1      -2.842  91.348 120.251  0.00  0.00     0.149 HD
ENDBRANCH   6  13
BRANCH   5  18
ATOM     18  N   LIG d   1      -4.686  93.980 118.408  0.00  0.00     0.381 N 
ATOM     19  H   LIG d   1      -3.976  94.219 119.072  0.00  0.00    -0.090 HD
ATOM     20  H   LIG d   1      -5.570  94.296 118.765  0.00  0.00    -0.090 HD
ATOM     21  H   LIG d   1      -4.496  94.418 117.534  0.00  0.00    -0.090 HD
ENDBRANCH   5  18
BRANCH   3  22
ATOM     22  C   LIG d   1      -6.470  90.387 115.792  0.00  0.00     0.382 C 
ATOM     23  O   LIG d   1      -7.106  91.163 115.039  0.00  0.00    -0.241 OA
ATOM     24  O   LIG d   1      -6.817  89.194 115.877  0.00  0.00    -0.241 OA
ENDBRANCH   3  22
TORSDOF 7
ENDMDL
MODEL 7
REMARK VINA RESULT:      -4.9      2.296      4.392
REMARK  7 active torsions:
REMARK  status: ('A' for Active; 'I' for Inactive)
REMARK    1  A    between atoms: C_2  and  C_3 
REMARK    2  A    between atoms: C_3  and  O_6 
REMARK    3  A    between atoms: C_3  and  C_4 
REMARK    4  A    between atoms: C_7  and  O_6 
REMARK    5  A    between atoms: C_9  and  C_10 
REMARK    6  A    between atoms: N_15  and  C_14 
REMARK    7  A    between atoms: N_20  and  C_19 
REMARK       I    between atoms: C_22  and  N_20 
ROOT
ATOM      1  C   LIG d   1      -5.405  92.094 119.473  0.00  0.00     0.161 C 
ATOM      2  C   LIG d   1      -4.571  91.202 118.778  0.00  0.00     0.016 C 
ATOM      3  C   LIG d   1      -4.767  90.849 117.423  0.00  0.00     0.038 C 
ATOM      4  C   LIG d   1      -5.729  91.483 116.623  0.00  0.00     0.028 C 
ATOM      5  C   LIG d   1      -6.918  92.019 117.415  0.00  0.00    -0.047 C 
ATOM      6  C   LIG d   1      -6.393  92.880 118.586  0.00  0.00     0.091 C 
ENDROOT
BRANCH   1   7
ATOM      7  O   LIG d   1      -4.605  93.000 120.258  0.00  0.00    -0.368 OA
BRANCH   7   8
ATOM      8  C   LIG d   1      -4.207  94.230 119.603  0.00  0.00     0.119 C 
BRANCH   8   9
ATOM      9  C   LIG d   1      -2.667  94.250 119.553  0.00  0.00     0.028 C 
ATOM     10  C   LIG d   1      -2.122  93.945 118.148  0.00  0.00     0.006 C 
ENDBRANCH   8   9
BRANCH   8  11
ATOM     11  C   LIG d   1      -4.603  95.455 120.432  0.00  0.00     0.028 C 
ATOM     12  C   LIG d   1      -4.778  96.721 119.578  0.00  0.00     0.006 C 
ENDBRANCH   8  11
ENDBRANCH   7   8
ENDBRANCH   1   7
BRANCH   6  13
ATOM     13  N   LIG d   1      -7.488  93.375 119.461  0.00  0.00    -0.311 N 
ATOM     14  C   LIG d   1      -8.107  94.539 119.274  0.00  0.00     0.210 C 
ATOM     15  C   LIG d   1      -9.193  94.866 120.303  0.00  0.00     0.109 C 
ATOM     16  O   LIG d   1      -7.881  95.317 118.335  0.00  0.00    -0.276 OA
ATOM     17  H   LIG d   1      -7.756  92.792 120.230  0.00  0.00     0.149 HD
ENDBRANCH   6  13
BRANCH   5  18
ATOM     18  N   LIG d   1      -7.772  92.774 116.479  0.00  0.00     0.381 N 
ATOM     19  H   LIG d   1      -8.695  92.387 116.476  0.00  0.00    -0.090 HD
ATOM     20  H   LIG d   1      -7.392  92.692 115.553  0.00  0.00    -0.090 HD
ATOM     21  H   LIG d   1      -7.807  93.733 116.748  0.00  0.00    -0.090 HD
ENDBRANCH   5  18
BRANCH   3  22
ATOM     22  C   LIG d   1      -4.022  89.821 116.866  0.00  0.00     0.382 C 
ATOM     23  O   LIG d   1      -4.541  89.060 116.015  0.00  0.00    -0.241 OA
ATOM     24  O   LIG d   1      -2.850  89.618 117.237  0.00  0.00    -0.241 OA
ENDBRANCH   3  22
TORSDOF 7
ENDMDL
MODEL 8
REMARK VINA RESULT:      -4.9      1.835      2.168
REMARK  7 active torsions:
REMARK  status: ('A' for Active; 'I' for Inactive)
REMARK    1  A    between atoms: C_2  and  C_3 
REMARK    2  A    between atoms: C_3  and  O_6 
REMARK    3  A    between atoms: C_3  and  C_4 
REMARK    4  A    between atoms: C_7  and  O_6 
REMARK    5  A    between atoms: C_9  and  C_10 
REMARK    6  A    between atoms: N_15  and  C_14 
REMARK    7  A    between atoms: N_20  and  C_19 
REMARK       I    between atoms: C_22  and  N_20 
ROOT
ATOM      1  C   LIG d   1      -4.413  92.343 117.482  0.00  0.00     0.161 C 
ATOM      2  C   LIG d   1      -5.553  92.078 116.704  0.00  0.00     0.016 C 
ATOM      3  C   LIG d   1      -5.829  90.815 116.133  0.00  0.00     0.038 C 
ATOM      4  C   LIG d   1      -5.054  89.683 116.428  0.00  0.00     0.028 C 
ATOM      5  C   LIG d   1      -3.613  90.015 116.799  0.00  0.00    -0.047 C 
ATOM      6  C   LIG d   1      -3.615  91.093 117.907  0.00  0.00     0.091 C 
ENDROOT
BRANCH   1   7
ATOM      7  O   LIG d   1      -4.781  93.120 118.639  0.00  0.00    -0.368 OA
BRANCH   7   8
ATOM      8  C   LIG d   1      -5.955  92.672 119.360  0.00  0.00     0.119 C 
BRANCH   8   9
ATOM      9  C   LIG d   1      -6.872  93.895 119.557  0.00  0.00     0.028 C 
ATOM     10  C   LIG d   1      -8.111  93.852 118.646  0.00  0.00     0.006 C 
ENDBRANCH   8   9
BRANCH   8  11
ATOM     11  C   LIG d   1      -5.595  92.204 120.773  0.00  0.00     0.028 C 
ATOM     12  C   LIG d   1      -4.229  92.729 121.245  0.00  0.00     0.006 C 
ENDBRANCH   8  11
ENDBRANCH   7   8
ENDBRANCH   1   7
BRANCH   6  13
ATOM     13  N   LIG d   1      -2.244  91.537 118.269  0.00  0.00    -0.311 N 
ATOM     14  C   LIG d   1      -1.548  91.016 119.278  0.00  0.00     0.210 C 
ATOM     15  C   LIG d   1      -0.161  91.631 119.492  0.00  0.00     0.109 C 
ATOM     16  O   LIG d   1      -1.934  90.081 119.996  0.00  0.00    -0.276 OA
ATOM     17  H   LIG d   1      -1.841  92.270 117.719  0.00  0.00     0.149 HD
ENDBRANCH   6  13
BRANCH   5  18
ATOM     18  N   LIG d   1      -2.959  88.759 117.216  0.00  0.00     0.381 N 
ATOM     19  H   LIG d   1      -2.106  88.965 117.695  0.00  0.00    -0.090 HD
ATOM     20  H   LIG d   1      -2.740  88.220 116.397  0.00  0.00    -0.090 HD
ATOM     21  H   LIG d   1      -3.566  88.240 117.811  0.00  0.00    -0.090 HD
ENDBRANCH   5  18
BRANCH   3  22
ATOM     22  C   LIG d   1      -6.867  90.683 115.223  0.00  0.00     0.382 C 
ATOM     23  O   LIG d   1      -7.288  91.689 114.603  0.00  0.00    -0.241 OA
ATOM     24  O   LIG d   1      -7.417  89.580 115.048  0.00  0.00    -0.241 OA
ENDBRANCH   3  22
TORSDOF 7
ENDMDL
MODEL 9
REMARK VINA RESULT:      -4.7      2.497      4.816
REMARK  7 active torsions:
REMARK  status: ('A' for Active; 'I' for Inactive)
REMARK    1  A    between atoms: C_2  and  C_3 
REMARK    2  A    between atoms: C_3  and  O_6 
REMARK    3  A    between atoms: C_3  and  C_4 
REMARK    4  A    between atoms: C_7  and  O_6 
REMARK    5  A    between atoms: C_9  and  C_10 
REMARK    6  A    between atoms: N_15  and  C_14 
REMARK    7  A    between atoms: N_20  and  C_19 
REMARK       I    between atoms: C_22  and  N_20 
ROOT
ATOM      1  C   LIG d   1      -4.312  91.488 118.565  0.00  0.00     0.161 C 
ATOM      2  C   LIG d   1      -5.384  92.393 118.632  0.00  0.00     0.016 C 
ATOM      3  C   LIG d   1      -6.455  92.399 117.708  0.00  0.00     0.038 C 
ATOM      4  C   LIG d   1      -6.603  91.398 116.738  0.00  0.00     0.028 C 
ATOM      5  C   LIG d   1      -5.282  90.763 116.315  0.00  0.00    -0.047 C 
ATOM      6  C   LIG d   1      -4.513  90.318 117.579  0.00  0.00     0.091 C 
ENDROOT
BRANCH   1   7
ATOM      7  O   LIG d   1      -4.012  90.988 119.883  0.00  0.00    -0.368 OA
BRANCH   7   8
ATOM      8  C   LIG d   1      -2.860  91.572 120.540  0.00  0.00     0.119 C 
BRANCH   8   9
ATOM      9  C   LIG d   1      -2.040  92.311 119.465  0.00  0.00     0.028 C 
ATOM     10  C   LIG d   1      -1.854  93.802 119.791  0.00  0.00     0.006 C 
ENDBRANCH   8   9
BRANCH   8  11
ATOM     11  C   LIG d   1      -1.926  90.491 121.092  0.00  0.00     0.028 C 
ATOM     12  C   LIG d   1      -0.568  90.454 120.373  0.00  0.00     0.006 C 
ENDBRANCH   8  11
ENDBRANCH   7   8
ENDBRANCH   1   7
BRANCH   6  13
ATOM     13  N   LIG d   1      -3.171  89.763 117.260  0.00  0.00    -0.311 N 
ATOM     14  C   LIG d   1      -2.664  88.685 117.855  0.00  0.00     0.210 C 
ATOM     15  C   LIG d   1      -1.257  88.293 117.392  0.00  0.00     0.109 C 
ATOM     16  O   LIG d   1      -3.258  87.996 118.698  0.00  0.00    -0.276 OA
ATOM     17  H   LIG d   1      -2.633  90.242 116.565  0.00  0.00     0.149 HD
ENDBRANCH   6  13
BRANCH   5  18
ATOM     18  N   LIG d   1      -5.596  89.646 115.405  0.00  0.00     0.381 N 
ATOM     19  H   LIG d   1      -5.133  88.815 115.717  0.00  0.00    -0.090 HD
ATOM     20  H   LIG d   1      -5.256  89.870 114.486  0.00  0.00    -0.090 HD
ATOM     21  H   LIG d   1      -6.580  89.495 115.376  0.00  0.00    -0.090 HD
ENDBRANCH   5  18
BRANCH   3  22
ATOM     22  C   LIG d   1      -7.371  93.440 117.726  0.00  0.00     0.382 C 
ATOM     23  O   LIG d   1      -6.973  94.624 117.851  0.00  0.00    -0.241 OA
ATOM     24  O   LIG d   1      -8.593  93.208 117.662  0.00  0.00    -0.241 OA
ENDBRANCH   3  22
TORSDOF 7
ENDMDL
