MODEL 1
REMARK VINA RESULT:      -5.5      0.000      0.000
REMARK  7 active torsions:
REMARK  status: ('A' for Active; 'I' for Inactive)
REMARK    1  A    between atoms: C_2  and  C_3 
REMARK    2  A    between atoms: C_3  and  O_6 
REMARK    3  A    between atoms: C_3  and  C_4 
REMARK    4  A    between atoms: C_7  and  O_6 
REMARK    5  A    between atoms: C_9  and  C_10 
REMARK    6  A    between atoms: N_15  and  C_14 
REMARK    7  A    between atoms: N_20  and  C_19 
REMARK       I    between atoms: C_22  and  N_20 
ROOT
ATOM      1  C   LIG d   1      -4.759  92.436 117.102  0.00  0.00     0.161 C 
ATOM      2  C   LIG d   1      -4.373  91.152 116.682  0.00  0.00     0.016 C 
ATOM      3  C   LIG d   1      -5.120  90.374 115.769  0.00  0.00     0.038 C 
ATOM      4  C   LIG d   1      -6.235  90.892 115.093  0.00  0.00     0.028 C 
ATOM      5  C   LIG d   1      -6.950  91.998 115.862  0.00  0.00    -0.047 C 
ATOM      6  C   LIG d   1      -5.913  93.061 116.291  0.00  0.00     0.091 C 
ENDROOT
BRANCH   1   7
ATOM      7  O   LIG d   1      -3.616  93.314 117.106  0.00  0.00    -0.368 OA
BRANCH   7   8
ATOM      8  C   LIG d   1      -2.982  93.529 118.391  0.00  0.00     0.119 C 
BRANCH   8   9
ATOM      9  C   LIG d   1      -3.229  94.997 118.789  0.00  0.00     0.028 C 
ATOM     10  C   LIG d   1      -3.830  95.130 120.198  0.00  0.00     0.006 C 
ENDBRANCH   8   9
BRANCH   8  11
ATOM     11  C   LIG d   1      -1.460  93.385 118.292  0.00  0.00     0.028 C 
ATOM     12  C   LIG d   1      -1.002  91.919 118.246  0.00  0.00     0.006 C 
ENDBRANCH   8  11
ENDBRANCH   7   8
ENDBRANCH   1   7
BRANCH   6  13
ATOM     13  N   LIG d   1      -6.515  94.137 117.121  0.00  0.00    -0.311 N 
ATOM     14  C   LIG d   1      -6.884  93.964 118.390  0.00  0.00     0.210 C 
ATOM     15  C   LIG d   1      -7.502  95.197 119.057  0.00  0.00     0.109 C 
ATOM     16  O   LIG d   1      -6.728  92.917 119.035  0.00  0.00    -0.276 OA
ATOM     17  H   LIG d   1      -6.649  95.028 116.686  0.00  0.00     0.149 HD
ENDBRANCH   6  13
BRANCH   5  18
ATOM     18  N   LIG d   1      -8.005  92.540 114.985  0.00  0.00     0.381 N 
ATOM     19  H   LIG d   1      -7.758  92.393 114.027  0.00  0.00    -0.090 HD
ATOM     20  H   LIG d   1      -8.083  93.529 115.143  0.00  0.00    -0.090 HD
ATOM     21  H   LIG d   1      -8.875  92.095 115.183  0.00  0.00    -0.090 HD
ENDBRANCH   5  18
BRANCH   3  22
ATOM     22  C   LIG d   1      -4.777  89.048 115.553  0.00  0.00     0.382 C 
ATOM     23  O   LIG d   1      -5.117  88.477 114.489  0.00  0.00    -0.241 OA
ATOM     24  O   LIG d   1      -4.170  88.403 116.429  0.00  0.00    -0.241 OA
ENDBRANCH   3  22
TORSDOF 7
ENDMDL
MODEL 2
REMARK VINA RESULT:      -5.4      2.360      4.089
REMARK  7 active torsions:
REMARK  status: ('A' for Active; 'I' for Inactive)
REMARK    1  A    between atoms: C_2  and  C_3 
REMARK    2  A    between atoms: C_3  and  O_6 
REMARK    3  A    between atoms: C_3  and  C_4 
REMARK    4  A    between atoms: C_7  and  O_6 
REMARK    5  A    between atoms: C_9  and  C_10 
REMARK    6  A    between atoms: N_15  and  C_14 
REMARK    7  A    between atoms: N_20  and  C_19 
REMARK       I    between atoms: C_22  and  N_20 
ROOT
ATOM      1  C   LIG d   1      -4.970  92.857 116.983  0.00  0.00     0.161 C 
ATOM      2  C   LIG d   1      -6.118  92.204 116.505  0.00  0.00     0.016 C 
ATOM      3  C   LIG d   1      -6.201  90.803 116.330  0.00  0.00     0.038 C 
ATOM      4  C   LIG d   1      -5.185  89.940 116.766  0.00  0.00     0.028 C 
ATOM      5  C   LIG d   1      -3.806  90.590 116.787  0.00  0.00    -0.047 C 
ATOM      6  C   LIG d   1      -3.891  91.922 117.568  0.00  0.00     0.091 C 
ENDROOT
BRANCH   1   7
ATOM      7  O   LIG d   1      -5.343  93.858 117.950  0.00  0.00    -0.368 OA
BRANCH   7   8
ATOM      8  C   LIG d   1      -6.578  93.620 118.669  0.00  0.00     0.119 C 
BRANCH   8   9
ATOM      9  C   LIG d   1      -7.271  94.983 118.863  0.00  0.00     0.028 C 
ATOM     10  C   LIG d   1      -7.603  95.668 117.527  0.00  0.00     0.006 C 
ENDBRANCH   8   9
BRANCH   8  11
ATOM     11  C   LIG d   1      -6.308  93.097 120.083  0.00  0.00     0.028 C 
ATOM     12  C   LIG d   1      -6.553  91.586 120.216  0.00  0.00     0.006 C 
ENDBRANCH   8  11
ENDBRANCH   7   8
ENDBRANCH   1   7
BRANCH   6  13
ATOM     13  N   LIG d   1      -2.603  92.664 117.565  0.00  0.00    -0.311 N 
ATOM     14  C   LIG d   1      -2.068  93.208 118.657  0.00  0.00     0.210 C 
ATOM     15  C   LIG d   1      -0.745  93.946 118.429  0.00  0.00     0.109 C 
ATOM     16  O   LIG d   1      -2.547  93.122 119.797  0.00  0.00    -0.276 OA
ATOM     17  H   LIG d   1      -2.131  92.755 116.687  0.00  0.00     0.149 HD
ENDBRANCH   6  13
BRANCH   5  18
ATOM     18  N   LIG d   1      -2.867  89.625 117.390  0.00  0.00     0.381 N 
ATOM     19  H   LIG d   1      -2.489  90.004 118.236  0.00  0.00    -0.090 HD
ATOM     20  H   LIG d   1      -2.110  89.465 116.750  0.00  0.00    -0.090 HD
ATOM     21  H   LIG d   1      -3.337  88.768 117.583  0.00  0.00    -0.090 HD
ENDBRANCH   5  18
BRANCH   3  22
ATOM     22  C   LIG d   1      -7.294  90.256 115.675  0.00  0.00     0.382 C 
ATOM     23  O   LIG d   1      -7.553  89.035 115.800  0.00  0.00    -0.241 OA
ATOM     24  O   LIG d   1      -7.999  90.959 114.927  0.00  0.00    -0.241 OA
ENDBRANCH   3  22
TORSDOF 7
ENDMDL
MODEL 3
REMARK VINA RESULT:      -5.3      2.145      4.229
REMARK  7 active torsions:
REMARK  status: ('A' for Active; 'I' for Inactive)
REMARK    1  A    between atoms: C_2  and  C_3 
REMARK    2  A    between atoms: C_3  and  O_6 
REMARK    3  A    between atoms: C_3  and  C_4 
REMARK    4  A    between atoms: C_7  and  O_6 
REMARK    5  A    between atoms: C_9  and  C_10 
REMARK    6  A    between atoms: N_15  and  C_14 
REMARK    7  A    between atoms: N_20  and  C_19 
REMARK       I    between atoms: C_22  and  N_20 
ROOT
ATOM      1  C   LIG d   1      -6.187  93.379 116.859  0.00  0.00     0.161 C 
ATOM      2  C   LIG d   1      -6.894  92.418 116.117  0.00  0.00     0.016 C 
ATOM      3  C   LIG d   1      -6.386  91.130 115.826  0.00  0.00     0.038 C 
ATOM      4  C   LIG d   1      -5.191  90.660 116.391  0.00  0.00     0.028 C 
ATOM      5  C   LIG d   1      -4.204  91.772 116.733  0.00  0.00    -0.047 C 
ATOM      6  C   LIG d   1      -4.930  92.845 117.576  0.00  0.00     0.091 C 
ENDROOT
BRANCH   1   7
ATOM      7  O   LIG d   1      -7.072  94.014 117.803  0.00  0.00    -0.368 OA
BRANCH   7   8
ATOM      8  C   LIG d   1      -7.327  95.424 117.588  0.00  0.00     0.119 C 
BRANCH   8   9
ATOM      9  C   LIG d   1      -6.800  96.183 118.821  0.00  0.00     0.028 C 
ATOM     10  C   LIG d   1      -7.452  95.703 120.129  0.00  0.00     0.006 C 
ENDBRANCH   8   9
BRANCH   8  11
ATOM     11  C   LIG d   1      -8.829  95.718 117.543  0.00  0.00     0.028 C 
ATOM     12  C   LIG d   1      -9.144  97.132 117.031  0.00  0.00     0.006 C 
ENDBRANCH   8  11
ENDBRANCH   7   8
ENDBRANCH   1   7
BRANCH   6  13
ATOM     13  N   LIG d   1      -4.059  94.009 117.883  0.00  0.00    -0.311 N 
ATOM     14  C   LIG d   1      -3.735  94.377 119.121  0.00  0.00     0.210 C 
ATOM     15  C   LIG d   1      -2.842  95.618 119.215  0.00  0.00     0.109 C 
ATOM     16  O   LIG d   1      -4.076  93.774 120.150  0.00  0.00    -0.276 OA
ATOM     17  H   LIG d   1      -3.712  94.537 117.105  0.00  0.00     0.149 HD
ENDBRANCH   6  13
BRANCH   5  18
ATOM     18  N   LIG d   1      -3.065  91.155 117.438  0.00  0.00     0.381 N 
ATOM     19  H   LIG d   1      -3.052  90.170 117.263  0.00  0.00    -0.090 HD
ATOM     20  H   LIG d   1      -3.178  91.299 118.426  0.00  0.00    -0.090 HD
ATOM     21  H   LIG d   1      -2.211  91.566 117.130  0.00  0.00    -0.090 HD
ENDBRANCH   5  18
BRANCH   3  22
ATOM     22  C   LIG d   1      -7.058  90.313 114.930  0.00  0.00     0.382 C 
ATOM     23  O   LIG d   1      -8.145  90.690 114.430  0.00  0.00    -0.241 OA
ATOM     24  O   LIG d   1      -6.612  89.184 114.649  0.00  0.00    -0.241 OA
ENDBRANCH   3  22
TORSDOF 7
ENDMDL
MODEL 4
REMARK VINA RESULT:      -5.3      1.913      3.141
REMARK  7 active torsions:
REMARK  status: ('A' for Active; 'I' for Inactive)
REMARK    1  A    between atoms: C_2  and  C_3 
REMARK    2  A    between atoms: C_3  and  O_6 
REMARK    3  A    between atoms: C_3  and  C_4 
REMARK    4  A    between atoms: C_7  and  O_6 
REMARK    5  A    between atoms: C_9  and  C_10 
REMARK    6  A    between atoms: N_15  and  C_14 
REMARK    7  A    between atoms: N_20  and  C_19 
REMARK       I    between atoms: C_22  and  N_20 
ROOT
ATOM      1  C   LIG d   1      -4.102  91.271 117.567  0.00  0.00     0.161 C 
ATOM      2  C   LIG d   1      -4.392  90.303 116.592  0.00  0.00     0.016 C 
ATOM      3  C   LIG d   1      -5.364  90.484 115.580  0.00  0.00     0.038 C 
ATOM      4  C   LIG d   1      -6.009  91.714 115.384  0.00  0.00     0.028 C 
ATOM      5  C   LIG d   1      -6.115  92.552 116.653  0.00  0.00    -0.047 C 
ATOM      6  C   LIG d   1      -4.716  92.661 117.301  0.00  0.00     0.091 C 
ENDROOT
BRANCH   1   7
ATOM      7  O   LIG d   1      -2.675  91.378 117.740  0.00  0.00    -0.368 OA
BRANCH   7   8
ATOM      8  C   LIG d   1      -2.136  90.808 118.958  0.00  0.00     0.119 C 
BRANCH   8   9
ATOM      9  C   LIG d   1      -1.493  89.457 118.591  0.00  0.00     0.028 C 
ATOM     10  C   LIG d   1      -2.356  88.259 119.022  0.00  0.00     0.006 C 
ENDBRANCH   8   9
BRANCH   8  11
ATOM     11  C   LIG d   1      -3.248  90.470 119.955  0.00  0.00     0.028 C 
ATOM     12  C   LIG d   1      -3.189  91.331 121.227  0.00  0.00     0.006 C 
ENDBRANCH   8  11
ENDBRANCH   7   8
ENDBRANCH   1   7
BRANCH   6  13
ATOM     13  N   LIG d   1      -4.746  93.395 118.593  0.00  0.00    -0.311 N 
ATOM     14  C   LIG d   1      -3.833  94.299 118.944  0.00  0.00     0.210 C 
ATOM     15  C   LIG d   1      -4.040  94.922 120.328  0.00  0.00     0.109 C 
ATOM     16  O   LIG d   1      -2.891  94.668 118.227  0.00  0.00    -0.276 OA
ATOM     17  H   LIG d   1      -5.495  93.180 119.223  0.00  0.00     0.149 HD
ENDBRANCH   6  13
BRANCH   5  18
ATOM     18  N   LIG d   1      -6.682  93.860 116.277  0.00  0.00     0.381 N 
ATOM     19  H   LIG d   1      -7.570  93.730 115.835  0.00  0.00    -0.090 HD
ATOM     20  H   LIG d   1      -6.065  94.306 115.620  0.00  0.00    -0.090 HD
ATOM     21  H   LIG d   1      -6.787  94.432 117.086  0.00  0.00    -0.090 HD
ENDBRANCH   5  18
BRANCH   3  22
ATOM     22  C   LIG d   1      -5.728  89.413 114.778  0.00  0.00     0.382 C 
ATOM     23  O   LIG d   1      -6.925  89.268 114.431  0.00  0.00    -0.241 OA
ATOM     24  O   LIG d   1      -4.882  88.567 114.432  0.00  0.00    -0.241 OA
ENDBRANCH   3  22
TORSDOF 7
ENDMDL
MODEL 5
REMARK VINA RESULT:      -5.2      2.190      5.000
REMARK  7 active torsions:
REMARK  status: ('A' for Active; 'I' for Inactive)
REMARK    1  A    between atoms: C_2  and  C_3 
REMARK    2  A    between atoms: C_3  and  O_6 
REMARK    3  A    between atoms: C_3  and  C_4 
REMARK    4  A    between atoms: C_7  and  O_6 
REMARK    5  A    between atoms: C_9  and  C_10 
REMARK    6  A    between atoms: N_15  and  C_14 
REMARK    7  A    between atoms: N_20  and  C_19 
REMARK       I    between atoms: C_22  and  N_20 
ROOT
ATOM      1  C   LIG d   1      -4.493  91.952 118.009  0.00  0.00     0.161 C 
ATOM      2  C   LIG d   1      -4.573  93.089 118.830  0.00  0.00     0.016 C 
ATOM      3  C   LIG d   1      -5.506  94.132 118.626  0.00  0.00     0.038 C 
ATOM      4  C   LIG d   1      -6.530  94.034 117.672  0.00  0.00     0.028 C 
ATOM      5  C   LIG d   1      -6.176  93.135 116.493  0.00  0.00    -0.047 C 
ATOM      6  C   LIG d   1      -5.674  91.776 117.032  0.00  0.00     0.091 C 
ENDROOT
BRANCH   1   7
ATOM      7  O   LIG d   1      -4.336  90.773 118.823  0.00  0.00    -0.368 OA
BRANCH   7   8
ATOM      8  C   LIG d   1      -2.994  90.235 118.914  0.00  0.00     0.119 C 
BRANCH   8   9
ATOM      9  C   LIG d   1      -2.248  90.631 117.625  0.00  0.00     0.028 C 
ATOM     10  C   LIG d   1      -0.922  91.354 117.913  0.00  0.00     0.006 C 
ENDBRANCH   8   9
BRANCH   8  11
ATOM     11  C   LIG d   1      -3.006  88.704 118.922  0.00  0.00     0.028 C 
ATOM     12  C   LIG d   1      -2.690  88.099 117.545  0.00  0.00     0.006 C 
ENDBRANCH   8  11
ENDBRANCH   7   8
ENDBRANCH   1   7
BRANCH   6  13
ATOM     13  N   LIG d   1      -5.227  90.866 115.945  0.00  0.00    -0.311 N 
ATOM     14  C   LIG d   1      -5.639  89.605 115.829  0.00  0.00     0.210 C 
ATOM     15  C   LIG d   1      -5.039  88.835 114.648  0.00  0.00     0.109 C 
ATOM     16  O   LIG d   1      -6.469  89.060 116.572  0.00  0.00    -0.276 OA
ATOM     17  H   LIG d   1      -4.577  91.235 115.280  0.00  0.00     0.149 HD
ENDBRANCH   6  13
BRANCH   5  18
ATOM     18  N   LIG d   1      -7.379  93.013 115.648  0.00  0.00     0.381 N 
ATOM     19  H   LIG d   1      -7.110  92.869 114.695  0.00  0.00    -0.090 HD
ATOM     20  H   LIG d   1      -7.902  93.870 115.702  0.00  0.00    -0.090 HD
ATOM     21  H   LIG d   1      -7.940  92.252 115.961  0.00  0.00    -0.090 HD
ENDBRANCH   5  18
BRANCH   3  22
ATOM     22  C   LIG d   1      -5.396  95.305 119.356  0.00  0.00     0.382 C 
ATOM     23  O   LIG d   1      -4.345  95.987 119.292  0.00  0.00    -0.241 OA
ATOM     24  O   LIG d   1      -6.316  95.668 120.113  0.00  0.00    -0.241 OA
ENDBRANCH   3  22
TORSDOF 7
ENDMDL
MODEL 6
REMARK VINA RESULT:      -5.2      2.378      4.611
REMARK  7 active torsions:
REMARK  status: ('A' for Active; 'I' for Inactive)
REMARK    1  A    between atoms: C_2  and  C_3 
REMARK    2  A    between atoms: C_3  and  O_6 
REMARK    3  A    between atoms: C_3  and  C_4 
REMARK    4  A    between atoms: C_7  and  O_6 
REMARK    5  A    between atoms: C_9  and  C_10 
REMARK    6  A    between atoms: N_15  and  C_14 
REMARK    7  A    between atoms: N_20  and  C_19 
REMARK       I    between atoms: C_22  and  N_20 
ROOT
ATOM      1  C   LIG d   1      -4.940  92.877 117.366  0.00  0.00     0.161 C 
ATOM      2  C   LIG d   1      -4.362  91.713 117.900  0.00  0.00     0.016 C 
ATOM      3  C   LIG d   1      -4.639  91.232 119.200  0.00  0.00     0.038 C 
ATOM      4  C   LIG d   1      -5.635  91.803 120.005  0.00  0.00     0.028 C 
ATOM      5  C   LIG d   1      -5.884  93.278 119.707  0.00  0.00    -0.047 C 
ATOM      6  C   LIG d   1      -6.114  93.451 118.188  0.00  0.00     0.091 C 
ENDROOT
BRANCH   1   7
ATOM      7  O   LIG d   1      -5.351  92.639 116.006  0.00  0.00    -0.368 OA
BRANCH   7   8
ATOM      8  C   LIG d   1      -6.338  91.596 115.811  0.00  0.00     0.119 C 
BRANCH   8   9
ATOM      9  C   LIG d   1      -5.741  90.571 114.827  0.00  0.00     0.028 C 
ATOM     10  C   LIG d   1      -5.216  89.312 115.538  0.00  0.00     0.006 C 
ENDBRANCH   8   9
BRANCH   8  11
ATOM     11  C   LIG d   1      -7.593  92.138 115.120  0.00  0.00     0.028 C 
ATOM     12  C   LIG d   1      -8.493  91.025 114.560  0.00  0.00     0.006 C 
ENDBRANCH   8  11
ENDBRANCH   7   8
ENDBRANCH   1   7
BRANCH   6  13
ATOM     13  N   LIG d   1      -6.281  94.875 117.799  0.00  0.00    -0.311 N 
ATOM     14  C   LIG d   1      -7.465  95.479 117.716  0.00  0.00     0.210 C 
ATOM     15  C   LIG d   1      -7.415  96.946 117.278  0.00  0.00     0.109 C 
ATOM     16  O   LIG d   1      -8.551  94.947 117.996  0.00  0.00    -0.276 OA
ATOM     17  H   LIG d   1      -5.449  95.390 117.585  0.00  0.00     0.149 HD
ENDBRANCH   6  13
BRANCH   5  18
ATOM     18  N   LIG d   1      -7.038  93.709 120.519  0.00  0.00     0.381 N 
ATOM     19  H   LIG d   1      -7.778  94.015 119.920  0.00  0.00    -0.090 HD
ATOM     20  H   LIG d   1      -6.758  94.483 121.096  0.00  0.00    -0.090 HD
ATOM     21  H   LIG d   1      -7.352  92.956 121.091  0.00  0.00    -0.090 HD
ENDBRANCH   5  18
BRANCH   3  22
ATOM     22  C   LIG d   1      -3.886  90.192 119.723  0.00  0.00     0.382 C 
ATOM     23  O   LIG d   1      -3.863  89.080 119.141  0.00  0.00    -0.241 OA
ATOM     24  O   LIG d   1      -3.265  90.336 120.793  0.00  0.00    -0.241 OA
ENDBRANCH   3  22
TORSDOF 7
ENDMDL
MODEL 7
REMARK VINA RESULT:      -5.1      2.577      4.714
REMARK  7 active torsions:
REMARK  status: ('A' for Active; 'I' for Inactive)
REMARK    1  A    between atoms: C_2  and  C_3 
REMARK    2  A    between atoms: C_3  and  O_6 
REMARK    3  A    between atoms: C_3  and  C_4 
REMARK    4  A    between atoms: C_7  and  O_6 
REMARK    5  A    between atoms: C_9  and  C_10 
REMARK    6  A    between atoms: N_15  and  C_14 
REMARK    7  A    between atoms: N_20  and  C_19 
REMARK       I    between atoms: C_22  and  N_20 
ROOT
ATOM      1  C   LIG d   1      -5.863  91.035 118.781  0.00  0.00     0.161 C 
ATOM      2  C   LIG d   1      -4.612  91.473 119.247  0.00  0.00     0.016 C 
ATOM      3  C   LIG d   1      -3.402  91.258 118.548  0.00  0.00     0.038 C 
ATOM      4  C   LIG d   1      -3.380  90.720 117.253  0.00  0.00     0.028 C 
ATOM      5  C   LIG d   1      -4.563  89.805 116.957  0.00  0.00    -0.047 C 
ATOM      6  C   LIG d   1      -5.872  90.544 117.318  0.00  0.00     0.091 C 
ENDROOT
BRANCH   1   7
ATOM      7  O   LIG d   1      -6.845  92.073 118.967  0.00  0.00    -0.368 OA
BRANCH   7   8
ATOM      8  C   LIG d   1      -6.328  93.392 119.270  0.00  0.00     0.119 C 
BRANCH   8   9
ATOM      9  C   LIG d   1      -7.165  93.962 120.431  0.00  0.00     0.028 C 
ATOM     10  C   LIG d   1      -7.061  93.106 121.705  0.00  0.00     0.006 C 
ENDBRANCH   8   9
BRANCH   8  11
ATOM     11  C   LIG d   1      -6.546  94.358 118.101  0.00  0.00     0.028 C 
ATOM     12  C   LIG d   1      -6.714  95.816 118.556  0.00  0.00     0.006 C 
ENDBRANCH   8  11
ENDBRANCH   7   8
ENDBRANCH   1   7
BRANCH   6  13
ATOM     13  N   LIG d   1      -7.074  89.689 117.138  0.00  0.00    -0.311 N 
ATOM     14  C   LIG d   1      -7.770  89.632 116.004  0.00  0.00     0.210 C 
ATOM     15  C   LIG d   1      -8.987  88.702 116.038  0.00  0.00     0.109 C 
ATOM     16  O   LIG d   1      -7.477  90.240 114.963  0.00  0.00    -0.276 OA
ATOM     17  H   LIG d   1      -7.364  89.139 117.922  0.00  0.00     0.149 HD
ENDBRANCH   6  13
BRANCH   5  18
ATOM     18  N   LIG d   1      -4.488  89.425 115.533  0.00  0.00     0.381 N 
ATOM     19  H   LIG d   1      -4.717  90.212 114.960  0.00  0.00    -0.090 HD
ATOM     20  H   LIG d   1      -5.159  88.699 115.355  0.00  0.00    -0.090 HD
ATOM     21  H   LIG d   1      -3.571  89.101 115.315  0.00  0.00    -0.090 HD
ENDBRANCH   5  18
BRANCH   3  22
ATOM     22  C   LIG d   1      -2.193  91.548 119.162  0.00  0.00     0.382 C 
ATOM     23  O   LIG d   1      -2.019  91.261 120.371  0.00  0.00    -0.241 OA
ATOM     24  O   LIG d   1      -1.290  92.133 118.534  0.00  0.00    -0.241 OA
ENDBRANCH   3  22
TORSDOF 7
ENDMDL
MODEL 8
REMARK VINA RESULT:      -5.1      2.884      4.658
REMARK  7 active torsions:
REMARK  status: ('A' for Active; 'I' for Inactive)
REMARK    1  A    between atoms: C_2  and  C_3 
REMARK    2  A    between atoms: C_3  and  O_6 
REMARK    3  A    between atoms: C_3  and  C_4 
REMARK    4  A    between atoms: C_7  and  O_6 
REMARK    5  A    between atoms: C_9  and  C_10 
REMARK    6  A    between atoms: N_15  and  C_14 
REMARK    7  A    between atoms: N_20  and  C_19 
REMARK       I    between atoms: C_22  and  N_20 
ROOT
ATOM      1  C   LIG d   1      -3.463  91.494 117.775  0.00  0.00     0.161 C 
ATOM      2  C   LIG d   1      -4.508  92.304 117.299  0.00  0.00     0.016 C 
ATOM      3  C   LIG d   1      -5.442  91.878 116.326  0.00  0.00     0.038 C 
ATOM      4  C   LIG d   1      -5.485  90.552 115.871  0.00  0.00     0.028 C 
ATOM      5  C   LIG d   1      -4.138  89.841 115.947  0.00  0.00    -0.047 C 
ATOM      6  C   LIG d   1      -3.562  90.008 117.371  0.00  0.00     0.091 C 
ENDROOT
BRANCH   1   7
ATOM      7  O   LIG d   1      -3.362  91.618 119.207  0.00  0.00    -0.368 OA
BRANCH   7   8
ATOM      8  C   LIG d   1      -2.156  92.244 119.709  0.00  0.00     0.119 C 
BRANCH   8   9
ATOM      9  C   LIG d   1      -1.335  92.711 118.491  0.00  0.00     0.028 C 
ATOM     10  C   LIG d   1      -1.040  94.220 118.525  0.00  0.00     0.006 C 
ENDBRANCH   8   9
BRANCH   8  11
ATOM     11  C   LIG d   1      -1.263  91.233 120.435  0.00  0.00     0.028 C 
ATOM     12  C   LIG d   1       0.105  91.053 119.759  0.00  0.00     0.006 C 
ENDBRANCH   8  11
ENDBRANCH   7   8
ENDBRANCH   1   7
BRANCH   6  13
ATOM     13  N   LIG d   1      -2.207  89.414 117.508  0.00  0.00    -0.311 N 
ATOM     14  C   LIG d   1      -1.985  88.203 118.017  0.00  0.00     0.210 C 
ATOM     15  C   LIG d   1      -0.511  87.791 118.086  0.00  0.00     0.109 C 
ATOM     16  O   LIG d   1      -2.871  87.418 118.388  0.00  0.00    -0.276 OA
ATOM     17  H   LIG d   1      -1.432  89.970 117.203  0.00  0.00     0.149 HD
ENDBRANCH   6  13
BRANCH   5  18
ATOM     18  N   LIG d   1      -4.356  88.431 115.573  0.00  0.00     0.381 N 
ATOM     19  H   LIG d   1      -4.270  88.326 114.581  0.00  0.00    -0.090 HD
ATOM     20  H   LIG d   1      -5.288  88.165 115.838  0.00  0.00    -0.090 HD
ATOM     21  H   LIG d   1      -3.693  87.849 116.034  0.00  0.00    -0.090 HD
ENDBRANCH   5  18
BRANCH   3  22
ATOM     22  C   LIG d   1      -6.320  92.795 115.770  0.00  0.00     0.382 C 
ATOM     23  O   LIG d   1      -6.366  92.943 114.525  0.00  0.00    -0.241 OA
ATOM     24  O   LIG d   1      -7.036  93.507 116.499  0.00  0.00    -0.241 OA
ENDBRANCH   3  22
TORSDOF 7
ENDMDL
MODEL 9
REMARK VINA RESULT:      -5.1      1.761      2.388
REMARK  7 active torsions:
REMARK  status: ('A' for Active; 'I' for Inactive)
REMARK    1  A    between atoms: C_2  and  C_3 
REMARK    2  A    between atoms: C_3  and  O_6 
REMARK    3  A    between atoms: C_3  and  C_4 
REMARK    4  A    between atoms: C_7  and  O_6 
REMARK    5  A    between atoms: C_9  and  C_10 
REMARK    6  A    between atoms: N_15  and  C_14 
REMARK    7  A    between atoms: N_20  and  C_19 
REMARK       I    between atoms: C_22  and  N_20 
ROOT
ATOM      1  C   LIG d   1      -5.542  91.023 118.615  0.00  0.00     0.161 C 
ATOM      2  C   LIG d   1      -5.107  90.015 117.737  0.00  0.00     0.016 C 
ATOM      3  C   LIG d   1      -5.278  90.078 116.335  0.00  0.00     0.038 C 
ATOM      4  C   LIG d   1      -5.763  91.230 115.698  0.00  0.00     0.028 C 
ATOM      5  C   LIG d   1      -6.680  92.070 116.581  0.00  0.00    -0.047 C 
ATOM      6  C   LIG d   1      -5.973  92.336 117.929  0.00  0.00     0.091 C 
ENDROOT
BRANCH   1   7
ATOM      7  O   LIG d   1      -4.524  91.283 119.602  0.00  0.00    -0.368 OA
BRANCH   7   8
ATOM      8  C   LIG d   1      -3.187  91.513 119.093  0.00  0.00     0.119 C 
BRANCH   8   9
ATOM      9  C   LIG d   1      -2.206  90.759 120.013  0.00  0.00     0.028 C 
ATOM     10  C   LIG d   1      -2.797  89.444 120.549  0.00  0.00     0.006 C 
ENDBRANCH   8   9
BRANCH   8  11
ATOM     11  C   LIG d   1      -2.794  92.989 119.204  0.00  0.00     0.028 C 
ATOM     12  C   LIG d   1      -2.305  93.577 117.871  0.00  0.00     0.006 C 
ENDBRANCH   8  11
ENDBRANCH   7   8
ENDBRANCH   1   7
BRANCH   6  13
ATOM     13  N   LIG d   1      -6.834  93.080 118.884  0.00  0.00    -0.311 N 
ATOM     14  C   LIG d   1      -6.592  94.332 119.268  0.00  0.00     0.210 C 
ATOM     15  C   LIG d   1      -7.594  94.906 120.275  0.00  0.00     0.109 C 
ATOM     16  O   LIG d   1      -5.660  95.034 118.847  0.00  0.00    -0.276 OA
ATOM     17  H   LIG d   1      -7.631  92.597 119.252  0.00  0.00     0.149 HD
ENDBRANCH   6  13
BRANCH   5  18
ATOM     18  N   LIG d   1      -7.001  93.306 115.842  0.00  0.00     0.381 N 
ATOM     19  H   LIG d   1      -6.157  93.741 115.527  0.00  0.00    -0.090 HD
ATOM     20  H   LIG d   1      -7.472  93.942 116.461  0.00  0.00    -0.090 HD
ATOM     21  H   LIG d   1      -7.585  93.095 115.063  0.00  0.00    -0.090 HD
ENDBRANCH   5  18
BRANCH   3  22
ATOM     22  C   LIG d   1      -4.999  88.964 115.558  0.00  0.00     0.382 C 
ATOM     23  O   LIG d   1      -4.189  88.099 115.971  0.00  0.00    -0.241 OA
ATOM     24  O   LIG d   1      -5.513  88.835 114.431  0.00  0.00    -0.241 OA
ENDBRANCH   3  22
TORSDOF 7
ENDMDL
