MODEL 1
REMARK VINA RESULT:      -5.4      0.000      0.000
REMARK  7 active torsions:
REMARK  status: ('A' for Active; 'I' for Inactive)
REMARK    1  A    between atoms: C_2  and  C_3 
REMARK    2  A    between atoms: C_3  and  O_6 
REMARK    3  A    between atoms: C_3  and  C_4 
REMARK    4  A    between atoms: C_7  and  O_6 
REMARK    5  A    between atoms: C_9  and  C_10 
REMARK    6  A    between atoms: N_15  and  C_14 
REMARK    7  A    between atoms: N_20  and  C_19 
REMARK       I    between atoms: C_22  and  N_20 
ROOT
ATOM      1  C   LIG d   1      -4.958  92.988 117.626  0.00  0.00     0.161 C 
ATOM      2  C   LIG d   1      -5.046  91.852 116.805  0.00  0.00     0.016 C 
ATOM      3  C   LIG d   1      -6.171  91.560 115.999  0.00  0.00     0.038 C 
ATOM      4  C   LIG d   1      -7.228  92.469 115.843  0.00  0.00     0.028 C 
ATOM      5  C   LIG d   1      -7.412  93.395 117.041  0.00  0.00    -0.047 C 
ATOM      6  C   LIG d   1      -6.053  94.048 117.384  0.00  0.00     0.091 C 
ENDROOT
BRANCH   1   7
ATOM      7  O   LIG d   1      -3.650  93.582 117.499  0.00  0.00    -0.368 OA
BRANCH   7   8
ATOM      8  C   LIG d   1      -2.623  93.054 118.375  0.00  0.00     0.119 C 
BRANCH   8   9
ATOM      9  C   LIG d   1      -3.200  93.034 119.804  0.00  0.00     0.028 C 
ATOM     10  C   LIG d   1      -2.997  91.677 120.499  0.00  0.00     0.006 C 
ENDBRANCH   8   9
BRANCH   8  11
ATOM     11  C   LIG d   1      -1.412  93.990 118.440  0.00  0.00     0.028 C 
ATOM     12  C   LIG d   1      -0.658  94.082 117.104  0.00  0.00     0.006 C 
ENDBRANCH   8  11
ENDBRANCH   7   8
ENDBRANCH   1   7
BRANCH   6  13
ATOM     13  N   LIG d   1      -6.126  94.904 118.597  0.00  0.00    -0.311 N 
ATOM     14  C   LIG d   1      -6.469  96.191 118.566  0.00  0.00     0.210 C 
ATOM     15  C   LIG d   1      -6.461  96.895 119.927  0.00  0.00     0.109 C 
ATOM     16  O   LIG d   1      -6.809  96.808 117.545  0.00  0.00    -0.276 OA
ATOM     17  H   LIG d   1      -5.896  94.476 119.472  0.00  0.00     0.149 HD
ENDBRANCH   6  13
BRANCH   5  18
ATOM     18  N   LIG d   1      -8.453  94.378 116.689  0.00  0.00     0.381 N 
ATOM     19  H   LIG d   1      -9.357  94.000 116.889  0.00  0.00    -0.090 HD
ATOM     20  H   LIG d   1      -8.401  94.567 115.703  0.00  0.00    -0.090 HD
ATOM     21  H   LIG d   1      -8.316  95.220 117.204  0.00  0.00    -0.090 HD
ENDBRANCH   5  18
BRANCH   3  22
ATOM     22  C   LIG d   1      -6.264  90.328 115.369  0.00  0.00     0.382 C 
ATOM     23  O   LIG d   1      -7.371  89.742 115.299  0.00  0.00    -0.241 OA
ATOM     24  O   LIG d   1      -5.247  89.775 114.910  0.00  0.00    -0.241 OA
ENDBRANCH   3  22
TORSDOF 7
ENDMDL
MODEL 2
REMARK VINA RESULT:      -5.4      1.753      2.401
REMARK  7 active torsions:
REMARK  status: ('A' for Active; 'I' for Inactive)
REMARK    1  A    between atoms: C_2  and  C_3 
REMARK    2  A    between atoms: C_3  and  O_6 
REMARK    3  A    between atoms: C_3  and  C_4 
REMARK    4  A    between atoms: C_7  and  O_6 
REMARK    5  A    between atoms: C_9  and  C_10 
REMARK    6  A    between atoms: N_15  and  C_14 
REMARK    7  A    between atoms: N_20  and  C_19 
REMARK       I    between atoms: C_22  and  N_20 
ROOT
ATOM      1  C   LIG d   1      -4.897  92.207 117.886  0.00  0.00     0.161 C 
ATOM      2  C   LIG d   1      -5.496  91.407 116.899  0.00  0.00     0.016 C 
ATOM      3  C   LIG d   1      -6.497  91.877 116.018  0.00  0.00     0.038 C 
ATOM      4  C   LIG d   1      -6.861  93.230 115.964  0.00  0.00     0.028 C 
ATOM      5  C   LIG d   1      -6.647  93.968 117.282  0.00  0.00    -0.047 C 
ATOM      6  C   LIG d   1      -5.202  93.715 117.769  0.00  0.00     0.091 C 
ENDROOT
BRANCH   1   7
ATOM      7  O   LIG d   1      -3.473  91.983 117.899  0.00  0.00    -0.368 OA
BRANCH   7   8
ATOM      8  C   LIG d   1      -2.933  91.385 119.103  0.00  0.00     0.119 C 
BRANCH   8   9
ATOM      9  C   LIG d   1      -1.483  91.883 119.257  0.00  0.00     0.028 C 
ATOM     10  C   LIG d   1      -1.081  92.870 118.147  0.00  0.00     0.006 C 
ENDBRANCH   8   9
BRANCH   8  11
ATOM     11  C   LIG d   1      -2.826  89.863 118.969  0.00  0.00     0.028 C 
ATOM     12  C   LIG d   1      -2.474  89.413 117.543  0.00  0.00     0.006 C 
ENDBRANCH   8  11
ENDBRANCH   7   8
ENDBRANCH   1   7
BRANCH   6  13
ATOM     13  N   LIG d   1      -4.935  94.332 119.095  0.00  0.00    -0.311 N 
ATOM     14  C   LIG d   1      -3.952  95.204 119.313  0.00  0.00     0.210 C 
ATOM     15  C   LIG d   1      -3.839  95.703 120.757  0.00  0.00     0.109 C 
ATOM     16  O   LIG d   1      -3.183  95.635 118.441  0.00  0.00    -0.276 OA
ATOM     17  H   LIG d   1      -5.531  94.061 119.852  0.00  0.00     0.149 HD
ENDBRANCH   6  13
BRANCH   5  18
ATOM     18  N   LIG d   1      -6.936  95.395 117.046  0.00  0.00     0.381 N 
ATOM     19  H   LIG d   1      -7.207  95.533 116.092  0.00  0.00    -0.090 HD
ATOM     20  H   LIG d   1      -6.102  95.928 117.217  0.00  0.00    -0.090 HD
ATOM     21  H   LIG d   1      -7.664  95.701 117.653  0.00  0.00    -0.090 HD
ENDBRANCH   5  18
BRANCH   3  22
ATOM     22  C   LIG d   1      -7.173  90.980 115.205  0.00  0.00     0.382 C 
ATOM     23  O   LIG d   1      -8.162  91.364 114.535  0.00  0.00    -0.241 OA
ATOM     24  O   LIG d   1      -6.834  89.782 115.166  0.00  0.00    -0.241 OA
ENDBRANCH   3  22
TORSDOF 7
ENDMDL
MODEL 3
REMARK VINA RESULT:      -5.3      2.211      4.562
REMARK  7 active torsions:
REMARK  status: ('A' for Active; 'I' for Inactive)
REMARK    1  A    between atoms: C_2  and  C_3 
REMARK    2  A    between atoms: C_3  and  O_6 
REMARK    3  A    between atoms: C_3  and  C_4 
REMARK    4  A    between atoms: C_7  and  O_6 
REMARK    5  A    between atoms: C_9  and  C_10 
REMARK    6  A    between atoms: N_15  and  C_14 
REMARK    7  A    between atoms: N_20  and  C_19 
REMARK       I    between atoms: C_22  and  N_20 
ROOT
ATOM      1  C   LIG d   1      -6.726  93.916 117.626  0.00  0.00     0.161 C 
ATOM      2  C   LIG d   1      -7.260  92.752 117.048  0.00  0.00     0.016 C 
ATOM      3  C   LIG d   1      -6.478  91.628 116.698  0.00  0.00     0.038 C 
ATOM      4  C   LIG d   1      -5.122  91.531 117.044  0.00  0.00     0.028 C 
ATOM      5  C   LIG d   1      -4.432  92.885 117.174  0.00  0.00    -0.047 C 
ATOM      6  C   LIG d   1      -5.267  93.786 118.112  0.00  0.00     0.091 C 
ENDROOT
BRANCH   1   7
ATOM      7  O   LIG d   1      -7.575  94.361 118.703  0.00  0.00    -0.368 OA
BRANCH   7   8
ATOM      8  C   LIG d   1      -8.662  95.244 118.334  0.00  0.00     0.119 C 
BRANCH   8   9
ATOM      9  C   LIG d   1      -8.042  96.593 117.918  0.00  0.00     0.028 C 
ATOM     10  C   LIG d   1      -7.431  97.350 119.109  0.00  0.00     0.006 C 
ENDBRANCH   8   9
BRANCH   8  11
ATOM     11  C   LIG d   1      -9.555  95.563 119.537  0.00  0.00     0.028 C 
ATOM     12  C   LIG d   1      -9.284  94.643 120.739  0.00  0.00     0.006 C 
ENDBRANCH   8  11
ENDBRANCH   7   8
ENDBRANCH   1   7
BRANCH   6  13
ATOM     13  N   LIG d   1      -4.707  95.158 118.228  0.00  0.00    -0.311 N 
ATOM     14  C   LIG d   1      -3.867  95.528 119.193  0.00  0.00     0.210 C 
ATOM     15  C   LIG d   1      -3.426  96.994 119.139  0.00  0.00     0.109 C 
ATOM     16  O   LIG d   1      -3.420  94.773 120.069  0.00  0.00    -0.276 OA
ATOM     17  H   LIG d   1      -4.993  95.826 117.539  0.00  0.00     0.149 HD
ENDBRANCH   6  13
BRANCH   5  18
ATOM     18  N   LIG d   1      -3.065  92.643 117.671  0.00  0.00     0.381 N 
ATOM     19  H   LIG d   1      -2.409  93.168 117.128  0.00  0.00    -0.090 HD
ATOM     20  H   LIG d   1      -2.849  91.667 117.567  0.00  0.00    -0.090 HD
ATOM     21  H   LIG d   1      -2.999  92.905 118.630  0.00  0.00    -0.090 HD
ENDBRANCH   5  18
BRANCH   3  22
ATOM     22  C   LIG d   1      -7.044  90.600 115.959  0.00  0.00     0.382 C 
ATOM     23  O   LIG d   1      -8.250  90.297 116.127  0.00  0.00    -0.241 OA
ATOM     24  O   LIG d   1      -6.352  89.944 115.158  0.00  0.00    -0.241 OA
ENDBRANCH   3  22
TORSDOF 7
ENDMDL
MODEL 4
REMARK VINA RESULT:      -5.0      1.881      4.826
REMARK  7 active torsions:
REMARK  status: ('A' for Active; 'I' for Inactive)
REMARK    1  A    between atoms: C_2  and  C_3 
REMARK    2  A    between atoms: C_3  and  O_6 
REMARK    3  A    between atoms: C_3  and  C_4 
REMARK    4  A    between atoms: C_7  and  O_6 
REMARK    5  A    between atoms: C_9  and  C_10 
REMARK    6  A    between atoms: N_15  and  C_14 
REMARK    7  A    between atoms: N_20  and  C_19 
REMARK       I    between atoms: C_22  and  N_20 
ROOT
ATOM      1  C   LIG d   1      -4.761  93.422 117.871  0.00  0.00     0.161 C 
ATOM      2  C   LIG d   1      -4.719  94.603 118.631  0.00  0.00     0.016 C 
ATOM      3  C   LIG d   1      -5.770  95.548 118.660  0.00  0.00     0.038 C 
ATOM      4  C   LIG d   1      -7.006  95.301 118.043  0.00  0.00     0.028 C 
ATOM      5  C   LIG d   1      -6.909  94.356 116.850  0.00  0.00    -0.047 C 
ATOM      6  C   LIG d   1      -6.145  93.083 117.279  0.00  0.00     0.091 C 
ENDROOT
BRANCH   1   7
ATOM      7  O   LIG d   1      -4.266  92.318 118.654  0.00  0.00    -0.368 OA
BRANCH   7   8
ATOM      8  C   LIG d   1      -3.062  91.678 118.165  0.00  0.00     0.119 C 
BRANCH   8   9
ATOM      9  C   LIG d   1      -3.240  90.158 118.342  0.00  0.00     0.028 C 
ATOM     10  C   LIG d   1      -2.281  89.347 117.455  0.00  0.00     0.006 C 
ENDBRANCH   8   9
BRANCH   8  11
ATOM     11  C   LIG d   1      -1.847  92.047 119.022  0.00  0.00     0.028 C 
ATOM     12  C   LIG d   1      -0.744  92.756 118.219  0.00  0.00     0.006 C 
ENDBRANCH   8  11
ENDBRANCH   7   8
ENDBRANCH   1   7
BRANCH   6  13
ATOM     13  N   LIG d   1      -5.932  92.141 116.149  0.00  0.00    -0.311 N 
ATOM     14  C   LIG d   1      -6.743  91.118 115.885  0.00  0.00     0.210 C 
ATOM     15  C   LIG d   1      -6.331  90.259 114.685  0.00  0.00     0.109 C 
ATOM     16  O   LIG d   1      -7.783  90.860 116.510  0.00  0.00    -0.276 OA
ATOM     17  H   LIG d   1      -5.129  92.296 115.572  0.00  0.00     0.149 HD
ENDBRANCH   6  13
BRANCH   5  18
ATOM     18  N   LIG d   1      -8.283  94.078 116.389  0.00  0.00     0.381 N 
ATOM     19  H   LIG d   1      -8.280  93.292 115.771  0.00  0.00    -0.090 HD
ATOM     20  H   LIG d   1      -8.624  94.876 115.883  0.00  0.00    -0.090 HD
ATOM     21  H   LIG d   1      -8.873  93.893 117.170  0.00  0.00    -0.090 HD
ENDBRANCH   5  18
BRANCH   3  22
ATOM     22  C   LIG d   1      -5.576  96.773 119.278  0.00  0.00     0.382 C 
ATOM     23  O   LIG d   1      -4.529  97.429 119.056  0.00  0.00    -0.241 OA
ATOM     24  O   LIG d   1      -6.413  97.211 120.090  0.00  0.00    -0.241 OA
ENDBRANCH   3  22
TORSDOF 7
ENDMDL
MODEL 5
REMARK VINA RESULT:      -4.8      2.148      3.354
REMARK  7 active torsions:
REMARK  status: ('A' for Active; 'I' for Inactive)
REMARK    1  A    between atoms: C_2  and  C_3 
REMARK    2  A    between atoms: C_3  and  O_6 
REMARK    3  A    between atoms: C_3  and  C_4 
REMARK    4  A    between atoms: C_7  and  O_6 
REMARK    5  A    between atoms: C_9  and  C_10 
REMARK    6  A    between atoms: N_15  and  C_14 
REMARK    7  A    between atoms: N_20  and  C_19 
REMARK       I    between atoms: C_22  and  N_20 
ROOT
ATOM      1  C   LIG d   1      -5.225  93.031 119.477  0.00  0.00     0.161 C 
ATOM      2  C   LIG d   1      -4.161  92.191 119.111  0.00  0.00     0.016 C 
ATOM      3  C   LIG d   1      -4.162  91.397 117.941  0.00  0.00     0.038 C 
ATOM      4  C   LIG d   1      -5.171  91.506 116.973  0.00  0.00     0.028 C 
ATOM      5  C   LIG d   1      -6.509  91.966 117.541  0.00  0.00    -0.047 C 
ATOM      6  C   LIG d   1      -6.286  93.247 118.377  0.00  0.00     0.091 C 
ENDROOT
BRANCH   1   7
ATOM      7  O   LIG d   1      -4.713  94.299 119.934  0.00  0.00    -0.368 OA
BRANCH   7   8
ATOM      8  C   LIG d   1      -4.362  95.254 118.903  0.00  0.00     0.119 C 
BRANCH   8   9
ATOM      9  C   LIG d   1      -2.848  95.519 119.013  0.00  0.00     0.028 C 
ATOM     10  C   LIG d   1      -2.048  94.823 117.899  0.00  0.00     0.006 C 
ENDBRANCH   8   9
BRANCH   8  11
ATOM     11  C   LIG d   1      -5.031  96.610 119.149  0.00  0.00     0.028 C 
ATOM     12  C   LIG d   1      -5.852  96.642 120.447  0.00  0.00     0.006 C 
ENDBRANCH   8  11
ENDBRANCH   7   8
ENDBRANCH   1   7
BRANCH   6  13
ATOM     13  N   LIG d   1      -7.531  93.716 119.038  0.00  0.00    -0.311 N 
ATOM     14  C   LIG d   1      -8.346  94.625 118.506  0.00  0.00     0.210 C 
ATOM     15  C   LIG d   1      -9.565  94.982 119.363  0.00  0.00     0.109 C 
ATOM     16  O   LIG d   1      -8.193  95.146 117.391  0.00  0.00    -0.276 OA
ATOM     17  H   LIG d   1      -7.749  93.323 119.933  0.00  0.00     0.149 HD
ENDBRANCH   6  13
BRANCH   5  18
ATOM     18  N   LIG d   1      -7.429  92.168 116.407  0.00  0.00     0.381 N 
ATOM     19  H   LIG d   1      -7.749  93.116 116.395  0.00  0.00    -0.090 HD
ATOM     20  H   LIG d   1      -8.227  91.568 116.524  0.00  0.00    -0.090 HD
ATOM     21  H   LIG d   1      -6.967  91.955 115.550  0.00  0.00    -0.090 HD
ENDBRANCH   5  18
BRANCH   3  22
ATOM     22  C   LIG d   1      -3.164  90.453 117.750  0.00  0.00     0.382 C 
ATOM     23  O   LIG d   1      -3.326  89.530 116.916  0.00  0.00    -0.241 OA
ATOM     24  O   LIG d   1      -2.123  90.488 118.433  0.00  0.00    -0.241 OA
ENDBRANCH   3  22
TORSDOF 7
ENDMDL
MODEL 6
REMARK VINA RESULT:      -4.7      4.888      7.757
REMARK  7 active torsions:
REMARK  status: ('A' for Active; 'I' for Inactive)
REMARK    1  A    between atoms: C_2  and  C_3 
REMARK    2  A    between atoms: C_3  and  O_6 
REMARK    3  A    between atoms: C_3  and  C_4 
REMARK    4  A    between atoms: C_7  and  O_6 
REMARK    5  A    between atoms: C_9  and  C_10 
REMARK    6  A    between atoms: N_15  and  C_14 
REMARK    7  A    between atoms: N_20  and  C_19 
REMARK       I    between atoms: C_22  and  N_20 
ROOT
ATOM      1  C   LIG d   1       0.672  91.187 118.682  0.00  0.00     0.161 C 
ATOM      2  C   LIG d   1       1.817  91.704 118.055  0.00  0.00     0.016 C 
ATOM      3  C   LIG d   1       2.417  91.113 116.919  0.00  0.00     0.038 C 
ATOM      4  C   LIG d   1       1.819  90.042 116.239  0.00  0.00     0.028 C 
ATOM      5  C   LIG d   1       0.936  89.174 117.130  0.00  0.00    -0.047 C 
ATOM      6  C   LIG d   1      -0.058  90.083 117.888  0.00  0.00     0.091 C 
ENDROOT
BRANCH   1   7
ATOM      7  O   LIG d   1      -0.237  92.259 119.001  0.00  0.00    -0.368 OA
BRANCH   7   8
ATOM      8  C   LIG d   1      -1.165  92.640 117.955  0.00  0.00     0.119 C 
BRANCH   8   9
ATOM      9  C   LIG d   1      -0.749  94.037 117.454  0.00  0.00     0.028 C 
ATOM     10  C   LIG d   1      -1.292  95.166 118.346  0.00  0.00     0.006 C 
ENDBRANCH   8   9
BRANCH   8  11
ATOM     11  C   LIG d   1      -2.584  92.813 118.505  0.00  0.00     0.028 C 
ATOM     12  C   LIG d   1      -2.738  92.277 119.937  0.00  0.00     0.006 C 
ENDBRANCH   8  11
ENDBRANCH   7   8
ENDBRANCH   1   7
BRANCH   6  13
ATOM     13  N   LIG d   1      -0.904  89.324 118.846  0.00  0.00    -0.311 N 
ATOM     14  C   LIG d   1      -2.136  88.906 118.564  0.00  0.00     0.210 C 
ATOM     15  C   LIG d   1      -2.841  88.158 119.700  0.00  0.00     0.109 C 
ATOM     16  O   LIG d   1      -2.701  89.056 117.470  0.00  0.00    -0.276 OA
ATOM     17  H   LIG d   1      -0.512  89.131 119.747  0.00  0.00     0.149 HD
ENDBRANCH   6  13
BRANCH   5  18
ATOM     18  N   LIG d   1       0.269  88.182 116.266  0.00  0.00     0.381 N 
ATOM     19  H   LIG d   1       0.769  88.094 115.404  0.00  0.00    -0.090 HD
ATOM     20  H   LIG d   1      -0.661  88.502 116.061  0.00  0.00    -0.090 HD
ATOM     21  H   LIG d   1       0.231  87.300 116.728  0.00  0.00    -0.090 HD
ENDBRANCH   5  18
BRANCH   3  22
ATOM     22  C   LIG d   1       3.649  91.568 116.477  0.00  0.00     0.382 C 
ATOM     23  O   LIG d   1       4.092  92.671 116.881  0.00  0.00    -0.241 OA
ATOM     24  O   LIG d   1       4.305  90.912 115.646  0.00  0.00    -0.241 OA
ENDBRANCH   3  22
TORSDOF 7
ENDMDL
MODEL 7
REMARK VINA RESULT:      -4.7      2.364      3.397
REMARK  7 active torsions:
REMARK  status: ('A' for Active; 'I' for Inactive)
REMARK    1  A    between atoms: C_2  and  C_3 
REMARK    2  A    between atoms: C_3  and  O_6 
REMARK    3  A    between atoms: C_3  and  C_4 
REMARK    4  A    between atoms: C_7  and  O_6 
REMARK    5  A    between atoms: C_9  and  C_10 
REMARK    6  A    between atoms: N_15  and  C_14 
REMARK    7  A    between atoms: N_20  and  C_19 
REMARK       I    between atoms: C_22  and  N_20 
ROOT
ATOM      1  C   LIG d   1      -3.411  91.898 118.467  0.00  0.00     0.161 C 
ATOM      2  C   LIG d   1      -4.310  91.258 117.597  0.00  0.00     0.016 C 
ATOM      3  C   LIG d   1      -5.378  91.925 116.954  0.00  0.00     0.038 C 
ATOM      4  C   LIG d   1      -5.528  93.318 117.019  0.00  0.00     0.028 C 
ATOM      5  C   LIG d   1      -4.947  93.932 118.288  0.00  0.00    -0.047 C 
ATOM      6  C   LIG d   1      -3.492  93.439 118.463  0.00  0.00     0.091 C 
ENDROOT
BRANCH   1   7
ATOM      7  O   LIG d   1      -2.065  91.467 118.182  0.00  0.00    -0.368 OA
BRANCH   7   8
ATOM      8  C   LIG d   1      -1.874  90.039 118.021  0.00  0.00     0.119 C 
BRANCH   8   9
ATOM      9  C   LIG d   1      -1.800  89.421 119.431  0.00  0.00     0.028 C 
ATOM     10  C   LIG d   1      -2.795  88.263 119.617  0.00  0.00     0.006 C 
ENDBRANCH   8   9
BRANCH   8  11
ATOM     11  C   LIG d   1      -0.523  89.728 117.370  0.00  0.00     0.028 C 
ATOM     12  C   LIG d   1       0.186  90.984 116.841  0.00  0.00     0.006 C 
ENDBRANCH   8  11
ENDBRANCH   7   8
ENDBRANCH   1   7
BRANCH   6  13
ATOM     13  N   LIG d   1      -2.877  93.925 119.725  0.00  0.00    -0.311 N 
ATOM     14  C   LIG d   1      -1.794  94.700 119.762  0.00  0.00     0.210 C 
ATOM     15  C   LIG d   1      -1.312  95.072 121.167  0.00  0.00     0.109 C 
ATOM     16  O   LIG d   1      -1.207  95.142 118.763  0.00  0.00    -0.276 OA
ATOM     17  H   LIG d   1      -3.308  93.640 120.582  0.00  0.00     0.149 HD
ENDBRANCH   6  13
BRANCH   5  18
ATOM     18  N   LIG d   1      -5.049  95.398 118.161  0.00  0.00     0.381 N 
ATOM     19  H   LIG d   1      -5.926  95.642 117.747  0.00  0.00    -0.090 HD
ATOM     20  H   LIG d   1      -4.314  95.724 117.558  0.00  0.00    -0.090 HD
ATOM     21  H   LIG d   1      -4.967  95.825 119.058  0.00  0.00    -0.090 HD
ENDBRANCH   5  18
BRANCH   3  22
ATOM     22  C   LIG d   1      -6.332  91.191 116.267  0.00  0.00     0.382 C 
ATOM     23  O   LIG d   1      -7.552  91.379 116.496  0.00  0.00    -0.241 OA
ATOM     24  O   LIG d   1      -5.989  90.312 115.454  0.00  0.00    -0.241 OA
ENDBRANCH   3  22
TORSDOF 7
ENDMDL
MODEL 8
REMARK VINA RESULT:      -4.7      2.471      5.409
REMARK  7 active torsions:
REMARK  status: ('A' for Active; 'I' for Inactive)
REMARK    1  A    between atoms: C_2  and  C_3 
REMARK    2  A    between atoms: C_3  and  O_6 
REMARK    3  A    between atoms: C_3  and  C_4 
REMARK    4  A    between atoms: C_7  and  O_6 
REMARK    5  A    between atoms: C_9  and  C_10 
REMARK    6  A    between atoms: N_15  and  C_14 
REMARK    7  A    between atoms: N_20  and  C_19 
REMARK       I    between atoms: C_22  and  N_20 
ROOT
ATOM      1  C   LIG d   1      -6.514  94.075 117.946  0.00  0.00     0.161 C 
ATOM      2  C   LIG d   1      -7.813  94.419 118.355  0.00  0.00     0.016 C 
ATOM      3  C   LIG d   1      -8.084  95.292 119.433  0.00  0.00     0.038 C 
ATOM      4  C   LIG d   1      -7.066  96.004 120.084  0.00  0.00     0.028 C 
ATOM      5  C   LIG d   1      -5.712  95.305 120.037  0.00  0.00    -0.047 C 
ATOM      6  C   LIG d   1      -5.392  94.929 118.572  0.00  0.00     0.091 C 
ENDROOT
BRANCH   1   7
ATOM      7  O   LIG d   1      -6.429  94.112 116.508  0.00  0.00    -0.368 OA
BRANCH   7   8
ATOM      8  C   LIG d   1      -6.075  92.867 115.857  0.00  0.00     0.119 C 
BRANCH   8   9
ATOM      9  C   LIG d   1      -7.156  92.574 114.799  0.00  0.00     0.028 C 
ATOM     10  C   LIG d   1      -7.227  91.082 114.430  0.00  0.00     0.006 C 
ENDBRANCH   8   9
BRANCH   8  11
ATOM     11  C   LIG d   1      -6.136  91.691 116.836  0.00  0.00     0.028 C 
ATOM     12  C   LIG d   1      -4.753  91.084 117.125  0.00  0.00     0.006 C 
ENDBRANCH   8  11
ENDBRANCH   7   8
ENDBRANCH   1   7
BRANCH   6  13
ATOM     13  N   LIG d   1      -4.123  94.165 118.447  0.00  0.00    -0.311 N 
ATOM     14  C   LIG d   1      -2.933  94.742 118.285  0.00  0.00     0.210 C 
ATOM     15  C   LIG d   1      -1.756  93.770 118.157  0.00  0.00     0.109 C 
ATOM     16  O   LIG d   1      -2.738  95.966 118.267  0.00  0.00    -0.276 OA
ATOM     17  H   LIG d   1      -4.186  93.167 118.482  0.00  0.00     0.149 HD
ENDBRANCH   6  13
BRANCH   5  18
ATOM     18  N   LIG d   1      -4.717  96.219 120.630  0.00  0.00     0.381 N 
ATOM     19  H   LIG d   1      -3.800  95.973 120.314  0.00  0.00    -0.090 HD
ATOM     20  H   LIG d   1      -4.742  96.122 121.630  0.00  0.00    -0.090 HD
ATOM     21  H   LIG d   1      -4.923  97.159 120.374  0.00  0.00    -0.090 HD
ENDBRANCH   5  18
BRANCH   3  22
ATOM     22  C   LIG d   1      -9.384  95.429 119.897  0.00  0.00     0.382 C 
ATOM     23  O   LIG d   1     -10.314  94.787 119.354  0.00  0.00    -0.241 OA
ATOM     24  O   LIG d   1      -9.644  96.220 120.823  0.00  0.00    -0.241 OA
ENDBRANCH   3  22
TORSDOF 7
ENDMDL
MODEL 9
REMARK VINA RESULT:      -4.3      3.119      5.148
REMARK  7 active torsions:
REMARK  status: ('A' for Active; 'I' for Inactive)
REMARK    1  A    between atoms: C_2  and  C_3 
REMARK    2  A    between atoms: C_3  and  O_6 
REMARK    3  A    between atoms: C_3  and  C_4 
REMARK    4  A    between atoms: C_7  and  O_6 
REMARK    5  A    between atoms: C_9  and  C_10 
REMARK    6  A    between atoms: N_15  and  C_14 
REMARK    7  A    between atoms: N_20  and  C_19 
REMARK       I    between atoms: C_22  and  N_20 
ROOT
ATOM      1  C   LIG d   1      -2.893  92.100 119.468  0.00  0.00     0.161 C 
ATOM      2  C   LIG d   1      -1.600  91.596 119.684  0.00  0.00     0.016 C 
ATOM      3  C   LIG d   1      -0.987  90.637 118.844  0.00  0.00     0.038 C 
ATOM      4  C   LIG d   1      -1.573  90.227 117.637  0.00  0.00     0.028 C 
ATOM      5  C   LIG d   1      -3.095  90.328 117.637  0.00  0.00    -0.047 C 
ATOM      6  C   LIG d   1      -3.503  91.747 118.095  0.00  0.00     0.091 C 
ENDROOT
BRANCH   1   7
ATOM      7  O   LIG d   1      -2.901  93.527 119.668  0.00  0.00    -0.368 OA
BRANCH   7   8
ATOM      8  C   LIG d   1      -2.807  94.339 118.472  0.00  0.00     0.119 C 
BRANCH   8   9
ATOM      9  C   LIG d   1      -1.333  94.759 118.312  0.00  0.00     0.028 C 
ATOM     10  C   LIG d   1      -0.669  94.115 117.083  0.00  0.00     0.006 C 
ENDBRANCH   8   9
BRANCH   8  11
ATOM     11  C   LIG d   1      -3.588  95.648 118.624  0.00  0.00     0.028 C 
ATOM     12  C   LIG d   1      -5.006  95.435 119.178  0.00  0.00     0.006 C 
ENDBRANCH   8  11
ENDBRANCH   7   8
ENDBRANCH   1   7
BRANCH   6  13
ATOM     13  N   LIG d   1      -4.977  91.905 118.204  0.00  0.00    -0.311 N 
ATOM     14  C   LIG d   1      -5.738  92.385 117.222  0.00  0.00     0.210 C 
ATOM     15  C   LIG d   1      -7.231  92.483 117.550  0.00  0.00     0.109 C 
ATOM     16  O   LIG d   1      -5.322  92.708 116.099  0.00  0.00    -0.276 OA
ATOM     17  H   LIG d   1      -5.402  91.637 119.071  0.00  0.00     0.149 HD
ENDBRANCH   6  13
BRANCH   5  18
ATOM     18  N   LIG d   1      -3.563  90.002 116.277  0.00  0.00     0.381 N 
ATOM     19  H   LIG d   1      -3.601  90.835 115.723  0.00  0.00    -0.090 HD
ATOM     20  H   LIG d   1      -4.491  89.620 116.335  0.00  0.00    -0.090 HD
ATOM     21  H   LIG d   1      -2.950  89.341 115.854  0.00  0.00    -0.090 HD
ENDBRANCH   5  18
BRANCH   3  22
ATOM     22  C   LIG d   1       0.208  90.049 119.229  0.00  0.00     0.382 C 
ATOM     23  O   LIG d   1       0.252  88.818 119.467  0.00  0.00    -0.241 OA
ATOM     24  O   LIG d   1       1.231  90.741 119.386  0.00  0.00    -0.241 OA
ENDBRANCH   3  22
TORSDOF 7
ENDMDL
