MODEL 1
REMARK VINA RESULT:      -5.4      0.000      0.000
REMARK  7 active torsions:
REMARK  status: ('A' for Active; 'I' for Inactive)
REMARK    1  A    between atoms: C_2  and  C_3 
REMARK    2  A    between atoms: C_3  and  O_6 
REMARK    3  A    between atoms: C_3  and  C_4 
REMARK    4  A    between atoms: C_7  and  O_6 
REMARK    5  A    between atoms: C_9  and  C_10 
REMARK    6  A    between atoms: N_15  and  C_14 
REMARK    7  A    between atoms: N_20  and  C_19 
REMARK       I    between atoms: C_22  and  N_20 
ROOT
ATOM      1  C   LIG d   1      -5.552  92.067 118.191  0.00  0.00     0.161 C 
ATOM      2  C   LIG d   1      -5.934  91.321 117.064  0.00  0.00     0.016 C 
ATOM      3  C   LIG d   1      -6.943  91.733 116.163  0.00  0.00     0.038 C 
ATOM      4  C   LIG d   1      -7.537  93.002 116.245  0.00  0.00     0.028 C 
ATOM      5  C   LIG d   1      -7.543  93.577 117.657  0.00  0.00    -0.047 C 
ATOM      6  C   LIG d   1      -6.111  93.505 118.235  0.00  0.00     0.091 C 
ENDROOT
BRANCH   1   7
ATOM      7  O   LIG d   1      -4.115  92.084 118.302  0.00  0.00    -0.368 OA
BRANCH   7   8
ATOM      8  C   LIG d   1      -3.532  91.101 119.191  0.00  0.00     0.119 C 
BRANCH   8   9
ATOM      9  C   LIG d   1      -2.914  91.861 120.380  0.00  0.00     0.028 C 
ATOM     10  C   LIG d   1      -2.481  93.288 120.004  0.00  0.00     0.006 C 
ENDBRANCH   8   9
BRANCH   8  11
ATOM     11  C   LIG d   1      -2.363  90.370 118.524  0.00  0.00     0.028 C 
ATOM     12  C   LIG d   1      -2.784  89.047 117.866  0.00  0.00     0.006 C 
ENDBRANCH   8  11
ENDBRANCH   7   8
ENDBRANCH   1   7
BRANCH   6  13
ATOM     13  N   LIG d   1      -6.045  93.970 119.645  0.00  0.00    -0.311 N 
ATOM     14  C   LIG d   1      -5.704  95.210 119.992  0.00  0.00     0.210 C 
ATOM     15  C   LIG d   1      -5.679  95.475 121.500  0.00  0.00     0.109 C 
ATOM     16  O   LIG d   1      -5.451  96.124 119.193  0.00  0.00    -0.276 OA
ATOM     17  H   LIG d   1      -6.265  93.302 120.357  0.00  0.00     0.149 HD
ENDBRANCH   6  13
BRANCH   5  18
ATOM     18  N   LIG d   1      -8.064  94.955 117.574  0.00  0.00     0.381 N 
ATOM     19  H   LIG d   1      -7.689  95.504 118.322  0.00  0.00    -0.090 HD
ATOM     20  H   LIG d   1      -9.064  94.931 117.671  0.00  0.00    -0.090 HD
ATOM     21  H   LIG d   1      -7.817  95.361 116.698  0.00  0.00    -0.090 HD
ENDBRANCH   5  18
BRANCH   3  22
ATOM     22  C   LIG d   1      -7.395  90.856 115.189  0.00  0.00     0.382 C 
ATOM     23  O   LIG d   1      -8.577  90.932 114.777  0.00  0.00    -0.241 OA
ATOM     24  O   LIG d   1      -6.648  89.961 114.749  0.00  0.00    -0.241 OA
ENDBRANCH   3  22
TORSDOF 7
ENDMDL
MODEL 2
REMARK VINA RESULT:      -5.3      2.227      4.649
REMARK  7 active torsions:
REMARK  status: ('A' for Active; 'I' for Inactive)
REMARK    1  A    between atoms: C_2  and  C_3 
REMARK    2  A    between atoms: C_3  and  O_6 
REMARK    3  A    between atoms: C_3  and  C_4 
REMARK    4  A    between atoms: C_7  and  O_6 
REMARK    5  A    between atoms: C_9  and  C_10 
REMARK    6  A    between atoms: N_15  and  C_14 
REMARK    7  A    between atoms: N_20  and  C_19 
REMARK       I    between atoms: C_22  and  N_20 
ROOT
ATOM      1  C   LIG d   1      -7.108  94.017 117.920  0.00  0.00     0.161 C 
ATOM      2  C   LIG d   1      -7.693  93.048 117.088  0.00  0.00     0.016 C 
ATOM      3  C   LIG d   1      -7.040  91.853 116.706  0.00  0.00     0.038 C 
ATOM      4  C   LIG d   1      -5.807  91.473 117.258  0.00  0.00     0.028 C 
ATOM      5  C   LIG d   1      -4.956  92.655 117.709  0.00  0.00    -0.047 C 
ATOM      6  C   LIG d   1      -5.808  93.568 118.620  0.00  0.00     0.091 C 
ENDROOT
BRANCH   1   7
ATOM      7  O   LIG d   1      -8.070  94.471 118.892  0.00  0.00    -0.368 OA
BRANCH   7   8
ATOM      8  C   LIG d   1      -8.941  95.549 118.472  0.00  0.00     0.119 C 
BRANCH   8   9
ATOM      9  C   LIG d   1      -8.056  96.782 118.205  0.00  0.00     0.028 C 
ATOM     10  C   LIG d   1      -7.545  97.429 119.503  0.00  0.00     0.006 C 
ENDBRANCH   8   9
BRANCH   8  11
ATOM     11  C   LIG d   1      -9.892  95.968 119.597  0.00  0.00     0.028 C 
ATOM     12  C   LIG d   1     -10.798  94.820 120.070  0.00  0.00     0.006 C 
ENDBRANCH   8  11
ENDBRANCH   7   8
ENDBRANCH   1   7
BRANCH   6  13
ATOM     13  N   LIG d   1      -5.077  94.793 119.038  0.00  0.00    -0.311 N 
ATOM     14  C   LIG d   1      -4.825  95.098 120.310  0.00  0.00     0.210 C 
ATOM     15  C   LIG d   1      -4.076  96.417 120.522  0.00  0.00     0.109 C 
ATOM     16  O   LIG d   1      -5.123  94.386 121.280  0.00  0.00    -0.276 OA
ATOM     17  H   LIG d   1      -4.771  95.412 118.312  0.00  0.00     0.149 HD
ENDBRANCH   6  13
BRANCH   5  18
ATOM     18  N   LIG d   1      -3.763  92.113 118.387  0.00  0.00     0.381 N 
ATOM     19  H   LIG d   1      -3.088  92.839 118.518  0.00  0.00    -0.090 HD
ATOM     20  H   LIG d   1      -3.354  91.402 117.806  0.00  0.00    -0.090 HD
ATOM     21  H   LIG d   1      -4.019  91.724 119.268  0.00  0.00    -0.090 HD
ENDBRANCH   5  18
BRANCH   3  22
ATOM     22  C   LIG d   1      -7.603  91.042 115.733  0.00  0.00     0.382 C 
ATOM     23  O   LIG d   1      -8.440  91.518 114.928  0.00  0.00    -0.241 OA
ATOM     24  O   LIG d   1      -7.319  89.831 115.677  0.00  0.00    -0.241 OA
ENDBRANCH   3  22
TORSDOF 7
ENDMDL
MODEL 3
REMARK VINA RESULT:      -4.7      2.272      4.541
REMARK  7 active torsions:
REMARK  status: ('A' for Active; 'I' for Inactive)
REMARK    1  A    between atoms: C_2  and  C_3 
REMARK    2  A    between atoms: C_3  and  O_6 
REMARK    3  A    between atoms: C_3  and  C_4 
REMARK    4  A    between atoms: C_7  and  O_6 
REMARK    5  A    between atoms: C_9  and  C_10 
REMARK    6  A    between atoms: N_15  and  C_14 
REMARK    7  A    between atoms: N_20  and  C_19 
REMARK       I    between atoms: C_22  and  N_20 
ROOT
ATOM      1  C   LIG d   1      -6.653  93.822 118.603  0.00  0.00     0.161 C 
ATOM      2  C   LIG d   1      -7.379  93.421 117.469  0.00  0.00     0.016 C 
ATOM      3  C   LIG d   1      -7.006  92.329 116.652  0.00  0.00     0.038 C 
ATOM      4  C   LIG d   1      -5.958  91.465 117.003  0.00  0.00     0.028 C 
ATOM      5  C   LIG d   1      -4.888  92.129 117.864  0.00  0.00    -0.047 C 
ATOM      6  C   LIG d   1      -5.571  92.824 119.064  0.00  0.00     0.091 C 
ENDROOT
BRANCH   1   7
ATOM      7  O   LIG d   1      -7.559  94.114 119.685  0.00  0.00    -0.368 OA
BRANCH   7   8
ATOM      8  C   LIG d   1      -7.680  95.510 120.057  0.00  0.00     0.119 C 
BRANCH   8   9
ATOM      9  C   LIG d   1      -9.071  95.991 119.602  0.00  0.00     0.028 C 
ATOM     10  C   LIG d   1     -10.115  94.862 119.613  0.00  0.00     0.006 C 
ENDBRANCH   8   9
BRANCH   8  11
ATOM     11  C   LIG d   1      -6.679  96.379 119.289  0.00  0.00     0.028 C 
ATOM     12  C   LIG d   1      -5.757  97.185 120.217  0.00  0.00     0.006 C 
ENDBRANCH   8  11
ENDBRANCH   7   8
ENDBRANCH   1   7
BRANCH   6  13
ATOM     13  N   LIG d   1      -4.604  93.570 119.912  0.00  0.00    -0.311 N 
ATOM     14  C   LIG d   1      -4.553  93.457 121.238  0.00  0.00     0.210 C 
ATOM     15  C   LIG d   1      -3.495  94.329 121.921  0.00  0.00     0.109 C 
ATOM     16  O   LIG d   1      -5.262  92.693 121.911  0.00  0.00    -0.276 OA
ATOM     17  H   LIG d   1      -3.970  94.188 119.445  0.00  0.00     0.149 HD
ENDBRANCH   6  13
BRANCH   5  18
ATOM     18  N   LIG d   1      -3.931  91.083 118.270  0.00  0.00     0.381 N 
ATOM     19  H   LIG d   1      -4.366  90.459 118.921  0.00  0.00    -0.090 HD
ATOM     20  H   LIG d   1      -3.148  91.518 118.726  0.00  0.00    -0.090 HD
ATOM     21  H   LIG d   1      -3.620  90.576 117.471  0.00  0.00    -0.090 HD
ENDBRANCH   5  18
BRANCH   3  22
ATOM     22  C   LIG d   1      -7.660  92.116 115.448  0.00  0.00     0.382 C 
ATOM     23  O   LIG d   1      -8.553  91.239 115.367  0.00  0.00    -0.241 OA
ATOM     24  O   LIG d   1      -7.337  92.759 114.432  0.00  0.00    -0.241 OA
ENDBRANCH   3  22
TORSDOF 7
ENDMDL
MODEL 4
REMARK VINA RESULT:      -4.6      2.435      6.368
REMARK  7 active torsions:
REMARK  status: ('A' for Active; 'I' for Inactive)
REMARK    1  A    between atoms: C_2  and  C_3 
REMARK    2  A    between atoms: C_3  and  O_6 
REMARK    3  A    between atoms: C_3  and  C_4 
REMARK    4  A    between atoms: C_7  and  O_6 
REMARK    5  A    between atoms: C_9  and  C_10 
REMARK    6  A    between atoms: N_15  and  C_14 
REMARK    7  A    between atoms: N_20  and  C_19 
REMARK       I    between atoms: C_22  and  N_20 
ROOT
ATOM      1  C   LIG d   1      -6.346  93.432 118.772  0.00  0.00     0.161 C 
ATOM      2  C   LIG d   1      -5.514  94.123 119.669  0.00  0.00     0.016 C 
ATOM      3  C   LIG d   1      -4.178  93.746 119.939  0.00  0.00     0.038 C 
ATOM      4  C   LIG d   1      -3.531  92.736 119.211  0.00  0.00     0.028 C 
ATOM      5  C   LIG d   1      -4.486  91.685 118.654  0.00  0.00    -0.047 C 
ATOM      6  C   LIG d   1      -5.623  92.396 117.887  0.00  0.00     0.091 C 
ENDROOT
BRANCH   1   7
ATOM      7  O   LIG d   1      -7.070  94.373 117.954  0.00  0.00    -0.368 OA
BRANCH   7   8
ATOM      8  C   LIG d   1      -7.917  95.312 118.661  0.00  0.00     0.119 C 
BRANCH   8   9
ATOM      9  C   LIG d   1      -9.378  94.980 118.298  0.00  0.00     0.028 C 
ATOM     10  C   LIG d   1     -10.195  94.518 119.516  0.00  0.00     0.006 C 
ENDBRANCH   8   9
BRANCH   8  11
ATOM     11  C   LIG d   1      -7.692  96.745 118.169  0.00  0.00     0.028 C 
ATOM     12  C   LIG d   1      -6.499  97.429 118.854  0.00  0.00     0.006 C 
ENDBRANCH   8  11
ENDBRANCH   7   8
ENDBRANCH   1   7
BRANCH   6  13
ATOM     13  N   LIG d   1      -6.647  91.444 117.381  0.00  0.00    -0.311 N 
ATOM     14  C   LIG d   1      -7.062  91.418 116.116  0.00  0.00     0.210 C 
ATOM     15  C   LIG d   1      -8.138  90.372 115.810  0.00  0.00     0.109 C 
ATOM     16  O   LIG d   1      -6.617  92.140 115.210  0.00  0.00    -0.276 OA
ATOM     17  H   LIG d   1      -7.038  90.802 118.042  0.00  0.00     0.149 HD
ENDBRANCH   6  13
BRANCH   5  18
ATOM     18  N   LIG d   1      -3.697  90.772 117.805  0.00  0.00     0.381 N 
ATOM     19  H   LIG d   1      -2.766  90.697 118.162  0.00  0.00    -0.090 HD
ATOM     20  H   LIG d   1      -3.649  91.153 116.876  0.00  0.00    -0.090 HD
ATOM     21  H   LIG d   1      -4.125  89.873 117.781  0.00  0.00    -0.090 HD
ENDBRANCH   5  18
BRANCH   3  22
ATOM     22  C   LIG d   1      -3.488  94.357 120.974  0.00  0.00     0.382 C 
ATOM     23  O   LIG d   1      -3.306  95.598 120.961  0.00  0.00    -0.241 OA
ATOM     24  O   LIG d   1      -3.005  93.676 121.900  0.00  0.00    -0.241 OA
ENDBRANCH   3  22
TORSDOF 7
ENDMDL
MODEL 5
REMARK VINA RESULT:      -4.5      4.325      7.198
REMARK  7 active torsions:
REMARK  status: ('A' for Active; 'I' for Inactive)
REMARK    1  A    between atoms: C_2  and  C_3 
REMARK    2  A    between atoms: C_3  and  O_6 
REMARK    3  A    between atoms: C_3  and  C_4 
REMARK    4  A    between atoms: C_7  and  O_6 
REMARK    5  A    between atoms: C_9  and  C_10 
REMARK    6  A    between atoms: N_15  and  C_14 
REMARK    7  A    between atoms: N_20  and  C_19 
REMARK       I    between atoms: C_22  and  N_20 
ROOT
ATOM      1  C   LIG d   1      -0.171  91.017 116.945  0.00  0.00     0.161 C 
ATOM      2  C   LIG d   1       1.224  90.891 116.836  0.00  0.00     0.016 C 
ATOM      3  C   LIG d   1       2.136  91.662 117.592  0.00  0.00     0.038 C 
ATOM      4  C   LIG d   1       1.712  92.511 118.625  0.00  0.00     0.028 C 
ATOM      5  C   LIG d   1       0.297  93.045 118.428  0.00  0.00    -0.047 C 
ATOM      6  C   LIG d   1      -0.652  91.858 118.146  0.00  0.00     0.091 C 
ENDROOT
BRANCH   1   7
ATOM      7  O   LIG d   1      -0.779  89.711 116.973  0.00  0.00    -0.368 OA
BRANCH   7   8
ATOM      8  C   LIG d   1      -1.065  89.169 118.286  0.00  0.00     0.119 C 
BRANCH   8   9
ATOM      9  C   LIG d   1      -0.197  87.908 118.465  0.00  0.00     0.028 C 
ATOM     10  C   LIG d   1       0.261  87.315 117.122  0.00  0.00     0.006 C 
ENDBRANCH   8   9
BRANCH   8  11
ATOM     11  C   LIG d   1      -2.514  88.681 118.384  0.00  0.00     0.028 C 
ATOM     12  C   LIG d   1      -2.788  87.883 119.669  0.00  0.00     0.006 C 
ENDBRANCH   8  11
ENDBRANCH   7   8
ENDBRANCH   1   7
BRANCH   6  13
ATOM     13  N   LIG d   1      -2.042  92.301 117.858  0.00  0.00    -0.311 N 
ATOM     14  C   LIG d   1      -2.997  92.367 118.784  0.00  0.00     0.210 C 
ATOM     15  C   LIG d   1      -4.364  92.829 118.270  0.00  0.00     0.109 C 
ATOM     16  O   LIG d   1      -2.834  92.118 119.988  0.00  0.00    -0.276 OA
ATOM     17  H   LIG d   1      -2.253  92.551 116.912  0.00  0.00     0.149 HD
ENDBRANCH   6  13
BRANCH   5  18
ATOM     18  N   LIG d   1      -0.066  93.802 119.641  0.00  0.00     0.381 N 
ATOM     19  H   LIG d   1      -1.018  93.614 119.884  0.00  0.00    -0.090 HD
ATOM     20  H   LIG d   1       0.022  94.784 119.450  0.00  0.00    -0.090 HD
ATOM     21  H   LIG d   1       0.534  93.547 120.394  0.00  0.00    -0.090 HD
ENDBRANCH   5  18
BRANCH   3  22
ATOM     22  C   LIG d   1       3.489  91.617 117.290  0.00  0.00     0.382 C 
ATOM     23  O   LIG d   1       4.315  92.213 118.022  0.00  0.00    -0.241 OA
ATOM     24  O   LIG d   1       3.889  91.026 116.269  0.00  0.00    -0.241 OA
ENDBRANCH   3  22
TORSDOF 7
ENDMDL
MODEL 6
REMARK VINA RESULT:      -4.3      5.329      7.765
REMARK  7 active torsions:
REMARK  status: ('A' for Active; 'I' for Inactive)
REMARK    1  A    between atoms: C_2  and  C_3 
REMARK    2  A    between atoms: C_3  and  O_6 
REMARK    3  A    between atoms: C_3  and  C_4 
REMARK    4  A    between atoms: C_7  and  O_6 
REMARK    5  A    between atoms: C_9  and  C_10 
REMARK    6  A    between atoms: N_15  and  C_14 
REMARK    7  A    between atoms: N_20  and  C_19 
REMARK       I    between atoms: C_22  and  N_20 
ROOT
ATOM      1  C   LIG d   1       0.678  89.443 117.562  0.00  0.00     0.161 C 
ATOM      2  C   LIG d   1      -0.676  89.071 117.539  0.00  0.00     0.016 C 
ATOM      3  C   LIG d   1      -1.697  89.809 118.181  0.00  0.00     0.038 C 
ATOM      4  C   LIG d   1      -1.451  91.060 118.767  0.00  0.00     0.028 C 
ATOM      5  C   LIG d   1      -0.015  91.230 119.252  0.00  0.00    -0.047 C 
ATOM      6  C   LIG d   1       0.950  90.863 118.102  0.00  0.00     0.091 C 
ENDROOT
BRANCH   1   7
ATOM      7  O   LIG d   1       1.250  89.289 116.248  0.00  0.00    -0.368 OA
BRANCH   7   8
ATOM      8  C   LIG d   1       2.391  88.402 116.150  0.00  0.00     0.119 C 
BRANCH   8   9
ATOM      9  C   LIG d   1       3.153  88.769 114.861  0.00  0.00     0.028 C 
ATOM     10  C   LIG d   1       4.541  89.365 115.150  0.00  0.00     0.006 C 
ENDBRANCH   8   9
BRANCH   8  11
ATOM     11  C   LIG d   1       1.952  86.947 115.960  0.00  0.00     0.028 C 
ATOM     12  C   LIG d   1       2.211  86.427 114.537  0.00  0.00     0.006 C 
ENDBRANCH   8  11
ENDBRANCH   7   8
ENDBRANCH   1   7
BRANCH   6  13
ATOM     13  N   LIG d   1       2.375  90.921 118.518  0.00  0.00    -0.311 N 
ATOM     14  C   LIG d   1       3.308  91.596 117.848  0.00  0.00     0.210 C 
ATOM     15  C   LIG d   1       4.719  91.508 118.438  0.00  0.00     0.109 C 
ATOM     16  O   LIG d   1       3.094  92.285 116.840  0.00  0.00    -0.276 OA
ATOM     17  H   LIG d   1       2.630  90.415 119.344  0.00  0.00     0.149 HD
ENDBRANCH   6  13
BRANCH   5  18
ATOM     18  N   LIG d   1       0.137  92.622 119.714  0.00  0.00     0.381 N 
ATOM     19  H   LIG d   1      -0.456  92.785 120.502  0.00  0.00    -0.090 HD
ATOM     20  H   LIG d   1      -0.143  93.242 118.974  0.00  0.00    -0.090 HD
ATOM     21  H   LIG d   1       1.086  92.797 119.961  0.00  0.00    -0.090 HD
ENDBRANCH   5  18
BRANCH   3  22
ATOM     22  C   LIG d   1      -2.974  89.277 118.275  0.00  0.00     0.382 C 
ATOM     23  O   LIG d   1      -3.174  88.247 118.963  0.00  0.00    -0.241 OA
ATOM     24  O   LIG d   1      -3.920  89.789 117.647  0.00  0.00    -0.241 OA
ENDBRANCH   3  22
TORSDOF 7
ENDMDL
MODEL 7
REMARK VINA RESULT:      -4.3      2.066      3.018
REMARK  7 active torsions:
REMARK  status: ('A' for Active; 'I' for Inactive)
REMARK    1  A    between atoms: C_2  and  C_3 
REMARK    2  A    between atoms: C_3  and  O_6 
REMARK    3  A    between atoms: C_3  and  C_4 
REMARK    4  A    between atoms: C_7  and  O_6 
REMARK    5  A    between atoms: C_9  and  C_10 
REMARK    6  A    between atoms: N_15  and  C_14 
REMARK    7  A    between atoms: N_20  and  C_19 
REMARK       I    between atoms: C_22  and  N_20 
ROOT
ATOM      1  C   LIG d   1      -6.660  92.928 119.428  0.00  0.00     0.161 C 
ATOM      2  C   LIG d   1      -6.202  92.196 118.321  0.00  0.00     0.016 C 
ATOM      3  C   LIG d   1      -6.712  92.363 117.012  0.00  0.00     0.038 C 
ATOM      4  C   LIG d   1      -7.614  93.389 116.694  0.00  0.00     0.028 C 
ATOM      5  C   LIG d   1      -8.480  93.822 117.873  0.00  0.00    -0.047 C 
ATOM      6  C   LIG d   1      -7.565  94.129 119.081  0.00  0.00     0.091 C 
ENDROOT
BRANCH   1   7
ATOM      7  O   LIG d   1      -5.540  93.360 120.226  0.00  0.00    -0.368 OA
BRANCH   7   8
ATOM      8  C   LIG d   1      -4.515  94.112 119.530  0.00  0.00     0.119 C 
BRANCH   8   9
ATOM      9  C   LIG d   1      -3.204  93.308 119.630  0.00  0.00     0.028 C 
ATOM     10  C   LIG d   1      -2.122  94.048 120.435  0.00  0.00     0.006 C 
ENDBRANCH   8   9
BRANCH   8  11
ATOM     11  C   LIG d   1      -4.229  95.443 120.231  0.00  0.00     0.028 C 
ATOM     12  C   LIG d   1      -5.024  96.614 119.633  0.00  0.00     0.006 C 
ENDBRANCH   8  11
ENDBRANCH   7   8
ENDBRANCH   1   7
BRANCH   6  13
ATOM     13  N   LIG d   1      -8.337  94.479 120.301  0.00  0.00    -0.311 N 
ATOM     14  C   LIG d   1      -8.696  95.724 120.610  0.00  0.00     0.210 C 
ATOM     15  C   LIG d   1      -9.470  95.866 121.924  0.00  0.00     0.109 C 
ATOM     16  O   LIG d   1      -8.476  96.719 119.904  0.00  0.00    -0.276 OA
ATOM     17  H   LIG d   1      -8.586  93.728 120.915  0.00  0.00     0.149 HD
ENDBRANCH   6  13
BRANCH   5  18
ATOM     18  N   LIG d   1      -9.274  94.987 117.438  0.00  0.00     0.381 N 
ATOM     19  H   LIG d   1     -10.237  94.729 117.358  0.00  0.00    -0.090 HD
ATOM     20  H   LIG d   1      -8.950  95.282 116.534  0.00  0.00    -0.090 HD
ATOM     21  H   LIG d   1      -9.175  95.730 118.094  0.00  0.00    -0.090 HD
ENDBRANCH   5  18
BRANCH   3  22
ATOM     22  C   LIG d   1      -6.348  91.473 116.014  0.00  0.00     0.382 C 
ATOM     23  O   LIG d   1      -6.580  91.749 114.812  0.00  0.00    -0.241 OA
ATOM     24  O   LIG d   1      -5.830  90.377 116.302  0.00  0.00    -0.241 OA
ENDBRANCH   3  22
TORSDOF 7
ENDMDL
MODEL 8
REMARK VINA RESULT:      -4.1      7.880     11.349
REMARK  7 active torsions:
REMARK  status: ('A' for Active; 'I' for Inactive)
REMARK    1  A    between atoms: C_2  and  C_3 
REMARK    2  A    between atoms: C_3  and  O_6 
REMARK    3  A    between atoms: C_3  and  C_4 
REMARK    4  A    between atoms: C_7  and  O_6 
REMARK    5  A    between atoms: C_9  and  C_10 
REMARK    6  A    between atoms: N_15  and  C_14 
REMARK    7  A    between atoms: N_20  and  C_19 
REMARK       I    between atoms: C_22  and  N_20 
ROOT
ATOM      1  C   LIG d   1       3.553  91.261 118.022  0.00  0.00     0.161 C 
ATOM      2  C   LIG d   1       4.146  92.177 118.907  0.00  0.00     0.016 C 
ATOM      3  C   LIG d   1       5.540  92.258 119.125  0.00  0.00     0.038 C 
ATOM      4  C   LIG d   1       6.455  91.524 118.355  0.00  0.00     0.028 C 
ATOM      5  C   LIG d   1       5.879  90.224 117.806  0.00  0.00    -0.047 C 
ATOM      6  C   LIG d   1       4.543  90.529 117.091  0.00  0.00     0.091 C 
ENDROOT
BRANCH   1   7
ATOM      7  O   LIG d   1       2.531  91.920 117.249  0.00  0.00    -0.368 OA
BRANCH   7   8
ATOM      8  C   LIG d   1       1.172  91.770 117.729  0.00  0.00     0.119 C 
BRANCH   8   9
ATOM      9  C   LIG d   1       0.450  90.796 116.779  0.00  0.00     0.028 C 
ATOM     10  C   LIG d   1       0.216  89.417 117.418  0.00  0.00     0.006 C 
ENDBRANCH   8   9
BRANCH   8  11
ATOM     11  C   LIG d   1       0.397  93.087 117.626  0.00  0.00     0.028 C 
ATOM     12  C   LIG d   1       0.407  93.889 118.937  0.00  0.00     0.006 C 
ENDBRANCH   8  11
ENDBRANCH   7   8
ENDBRANCH   1   7
BRANCH   6  13
ATOM     13  N   LIG d   1       3.870  89.299 116.598  0.00  0.00    -0.311 N 
ATOM     14  C   LIG d   1       3.464  89.140 115.339  0.00  0.00     0.210 C 
ATOM     15  C   LIG d   1       2.775  87.804 115.046  0.00  0.00     0.109 C 
ATOM     16  O   LIG d   1       3.639  89.966 114.430  0.00  0.00    -0.276 OA
ATOM     17  H   LIG d   1       3.716  88.566 117.262  0.00  0.00     0.149 HD
ENDBRANCH   6  13
BRANCH   5  18
ATOM     18  N   LIG d   1       6.890  89.630 116.912  0.00  0.00     0.381 N 
ATOM     19  H   LIG d   1       7.777  90.066 117.067  0.00  0.00    -0.090 HD
ATOM     20  H   LIG d   1       6.620  89.797 115.959  0.00  0.00    -0.090 HD
ATOM     21  H   LIG d   1       6.960  88.650 117.079  0.00  0.00    -0.090 HD
ENDBRANCH   5  18
BRANCH   3  22
ATOM     22  C   LIG d   1       6.030  93.051 120.152  0.00  0.00     0.382 C 
ATOM     23  O   LIG d   1       7.197  92.874 120.578  0.00  0.00    -0.241 OA
ATOM     24  O   LIG d   1       5.306  93.911 120.687  0.00  0.00    -0.241 OA
ENDBRANCH   3  22
TORSDOF 7
ENDMDL
MODEL 9
REMARK VINA RESULT:      -4.1      2.313      4.237
REMARK  7 active torsions:
REMARK  status: ('A' for Active; 'I' for Inactive)
REMARK    1  A    between atoms: C_2  and  C_3 
REMARK    2  A    between atoms: C_3  and  O_6 
REMARK    3  A    between atoms: C_3  and  C_4 
REMARK    4  A    between atoms: C_7  and  O_6 
REMARK    5  A    between atoms: C_9  and  C_10 
REMARK    6  A    between atoms: N_15  and  C_14 
REMARK    7  A    between atoms: N_20  and  C_19 
REMARK       I    between atoms: C_22  and  N_20 
ROOT
ATOM      1  C   LIG d   1      -5.781  93.047 120.094  0.00  0.00     0.161 C 
ATOM      2  C   LIG d   1      -4.714  92.160 119.877  0.00  0.00     0.016 C 
ATOM      3  C   LIG d   1      -4.474  91.518 118.640  0.00  0.00     0.038 C 
ATOM      4  C   LIG d   1      -5.202  91.839 117.485  0.00  0.00     0.028 C 
ATOM      5  C   LIG d   1      -6.608  92.352 117.778  0.00  0.00    -0.047 C 
ATOM      6  C   LIG d   1      -6.520  93.495 118.815  0.00  0.00     0.091 C 
ENDROOT
BRANCH   1   7
ATOM      7  O   LIG d   1      -5.320  94.195 120.834  0.00  0.00    -0.368 OA
BRANCH   7   8
ATOM      8  C   LIG d   1      -4.372  95.054 120.152  0.00  0.00     0.119 C 
BRANCH   8   9
ATOM      9  C   LIG d   1      -3.178  95.269 121.101  0.00  0.00     0.028 C 
ATOM     10  C   LIG d   1      -1.984  94.362 120.758  0.00  0.00     0.006 C 
ENDBRANCH   8   9
BRANCH   8  11
ATOM     11  C   LIG d   1      -4.957  96.449 119.913  0.00  0.00     0.028 C 
ATOM     12  C   LIG d   1      -6.018  96.837 120.955  0.00  0.00     0.006 C 
ENDBRANCH   8  11
ENDBRANCH   7   8
ENDBRANCH   1   7
BRANCH   6  13
ATOM     13  N   LIG d   1      -7.858  93.997 119.221  0.00  0.00    -0.311 N 
ATOM     14  C   LIG d   1      -8.409  95.102 118.722  0.00  0.00     0.210 C 
ATOM     15  C   LIG d   1      -9.787  95.452 119.293  0.00  0.00     0.109 C 
ATOM     16  O   LIG d   1      -7.901  95.809 117.838  0.00  0.00    -0.276 OA
ATOM     17  H   LIG d   1      -8.354  93.467 119.911  0.00  0.00     0.149 HD
ENDBRANCH   6  13
BRANCH   5  18
ATOM     18  N   LIG d   1      -7.204  92.778 116.497  0.00  0.00     0.381 N 
ATOM     19  H   LIG d   1      -8.187  92.595 116.504  0.00  0.00    -0.090 HD
ATOM     20  H   LIG d   1      -6.789  92.245 115.753  0.00  0.00    -0.090 HD
ATOM     21  H   LIG d   1      -7.040  93.749 116.352  0.00  0.00    -0.090 HD
ENDBRANCH   5  18
BRANCH   3  22
ATOM     22  C   LIG d   1      -3.521  90.514 118.560  0.00  0.00     0.382 C 
ATOM     23  O   LIG d   1      -2.449  90.615 119.203  0.00  0.00    -0.241 OA
ATOM     24  O   LIG d   1      -3.702  89.530 117.819  0.00  0.00    -0.241 OA
ENDBRANCH   3  22
TORSDOF 7
ENDMDL
