MODEL 1
REMARK VINA RESULT:      -5.8      0.000      0.000
REMARK  7 active torsions:
REMARK  status: ('A' for Active; 'I' for Inactive)
REMARK    1  A    between atoms: C_2  and  C_3 
REMARK    2  A    between atoms: C_3  and  O_6 
REMARK    3  A    between atoms: C_3  and  C_4 
REMARK    4  A    between atoms: C_7  and  O_6 
REMARK    5  A    between atoms: C_9  and  C_10 
REMARK    6  A    between atoms: N_15  and  C_14 
REMARK    7  A    between atoms: N_20  and  C_19 
REMARK       I    between atoms: C_22  and  N_20 
ROOT
ATOM      1  C   LIG d   1      -5.030  91.889 118.739  0.00  0.00     0.161 C 
ATOM      2  C   LIG d   1      -3.922  92.149 119.563  0.00  0.00     0.016 C 
ATOM      3  C   LIG d   1      -2.609  91.723 119.258  0.00  0.00     0.038 C 
ATOM      4  C   LIG d   1      -2.288  91.135 118.025  0.00  0.00     0.028 C 
ATOM      5  C   LIG d   1      -3.459  90.401 117.381  0.00  0.00    -0.047 C 
ATOM      6  C   LIG d   1      -4.681  91.347 117.338  0.00  0.00     0.091 C 
ENDROOT
BRANCH   1   7
ATOM      7  O   LIG d   1      -5.846  93.073 118.630  0.00  0.00    -0.368 OA
BRANCH   7   8
ATOM      8  C   LIG d   1      -6.106  93.784 119.865  0.00  0.00     0.119 C 
BRANCH   8   9
ATOM      9  C   LIG d   1      -7.635  93.864 120.039  0.00  0.00     0.028 C 
ATOM     10  C   LIG d   1      -8.152  95.312 120.030  0.00  0.00     0.006 C 
ENDBRANCH   8   9
BRANCH   8  11
ATOM     11  C   LIG d   1      -5.631  95.238 119.782  0.00  0.00     0.028 C 
ATOM     12  C   LIG d   1      -4.440  95.529 120.708  0.00  0.00     0.006 C 
ENDBRANCH   8  11
ENDBRANCH   7   8
ENDBRANCH   1   7
BRANCH   6  13
ATOM     13  N   LIG d   1      -5.895  90.680 116.799  0.00  0.00    -0.311 N 
ATOM     14  C   LIG d   1      -6.270  90.759 115.523  0.00  0.00     0.210 C 
ATOM     15  C   LIG d   1      -7.563  90.013 115.181  0.00  0.00     0.109 C 
ATOM     16  O   LIG d   1      -5.636  91.350 114.635  0.00  0.00    -0.276 OA
ATOM     17  H   LIG d   1      -6.451  90.153 117.444  0.00  0.00     0.149 HD
ENDBRANCH   6  13
BRANCH   5  18
ATOM     18  N   LIG d   1      -3.024  89.957 116.043  0.00  0.00     0.381 N 
ATOM     19  H   LIG d   1      -3.806  89.589 115.538  0.00  0.00    -0.090 HD
ATOM     20  H   LIG d   1      -2.345  89.224 116.149  0.00  0.00    -0.090 HD
ATOM     21  H   LIG d   1      -2.626  90.720 115.543  0.00  0.00    -0.090 HD
ENDBRANCH   5  18
BRANCH   3  22
ATOM     22  C   LIG d   1      -1.608  91.848 120.209  0.00  0.00     0.382 C 
ATOM     23  O   LIG d   1      -1.598  92.835 120.983  0.00  0.00    -0.241 OA
ATOM     24  O   LIG d   1      -0.688  91.010 120.272  0.00  0.00    -0.241 OA
ENDBRANCH   3  22
TORSDOF 7
ENDMDL
MODEL 2
REMARK VINA RESULT:      -5.6      1.590      4.552
REMARK  7 active torsions:
REMARK  status: ('A' for Active; 'I' for Inactive)
REMARK    1  A    between atoms: C_2  and  C_3 
REMARK    2  A    between atoms: C_3  and  O_6 
REMARK    3  A    between atoms: C_3  and  C_4 
REMARK    4  A    between atoms: C_7  and  O_6 
REMARK    5  A    between atoms: C_9  and  C_10 
REMARK    6  A    between atoms: N_15  and  C_14 
REMARK    7  A    between atoms: N_20  and  C_19 
REMARK       I    between atoms: C_22  and  N_20 
ROOT
ATOM      1  C   LIG d   1      -4.884  92.320 118.676  0.00  0.00     0.161 C 
ATOM      2  C   LIG d   1      -5.806  91.660 117.847  0.00  0.00     0.016 C 
ATOM      3  C   LIG d   1      -5.427  90.790 116.798  0.00  0.00     0.038 C 
ATOM      4  C   LIG d   1      -4.093  90.401 116.604  0.00  0.00     0.028 C 
ATOM      5  C   LIG d   1      -3.083  91.433 117.094  0.00  0.00    -0.047 C 
ATOM      6  C   LIG d   1      -3.429  91.821 118.550  0.00  0.00     0.091 C 
ENDROOT
BRANCH   1   7
ATOM      7  O   LIG d   1      -5.321  92.248 120.047  0.00  0.00    -0.368 OA
BRANCH   7   8
ATOM      8  C   LIG d   1      -5.618  93.513 120.688  0.00  0.00     0.119 C 
BRANCH   8   9
ATOM      9  C   LIG d   1      -7.106  93.490 121.091  0.00  0.00     0.028 C 
ATOM     10  C   LIG d   1      -8.025  94.006 119.971  0.00  0.00     0.006 C 
ENDBRANCH   8   9
BRANCH   8  11
ATOM     11  C   LIG d   1      -5.482  94.681 119.707  0.00  0.00     0.028 C 
ATOM     12  C   LIG d   1      -4.504  95.761 120.197  0.00  0.00     0.006 C 
ENDBRANCH   8  11
ENDBRANCH   7   8
ENDBRANCH   1   7
BRANCH   6  13
ATOM     13  N   LIG d   1      -2.540  92.889 119.078  0.00  0.00    -0.311 N 
ATOM     14  C   LIG d   1      -1.383  92.643 119.690  0.00  0.00     0.210 C 
ATOM     15  C   LIG d   1      -0.632  93.887 120.176  0.00  0.00     0.109 C 
ATOM     16  O   LIG d   1      -0.892  91.515 119.849  0.00  0.00    -0.276 OA
ATOM     17  H   LIG d   1      -2.846  93.835 118.964  0.00  0.00     0.149 HD
ENDBRANCH   6  13
BRANCH   5  18
ATOM     18  N   LIG d   1      -1.739  90.841 116.957  0.00  0.00     0.381 N 
ATOM     19  H   LIG d   1      -1.394  90.572 117.856  0.00  0.00    -0.090 HD
ATOM     20  H   LIG d   1      -1.117  91.532 116.575  0.00  0.00    -0.090 HD
ATOM     21  H   LIG d   1      -1.776  90.048 116.356  0.00  0.00    -0.090 HD
ENDBRANCH   5  18
BRANCH   3  22
ATOM     22  C   LIG d   1      -6.384  90.332 115.906  0.00  0.00     0.382 C 
ATOM     23  O   LIG d   1      -7.365  91.056 115.612  0.00  0.00    -0.241 OA
ATOM     24  O   LIG d   1      -6.301  89.186 115.425  0.00  0.00    -0.241 OA
ENDBRANCH   3  22
TORSDOF 7
ENDMDL
MODEL 3
REMARK VINA RESULT:      -5.3      4.417      7.042
REMARK  7 active torsions:
REMARK  status: ('A' for Active; 'I' for Inactive)
REMARK    1  A    between atoms: C_2  and  C_3 
REMARK    2  A    between atoms: C_3  and  O_6 
REMARK    3  A    between atoms: C_3  and  C_4 
REMARK    4  A    between atoms: C_7  and  O_6 
REMARK    5  A    between atoms: C_9  and  C_10 
REMARK    6  A    between atoms: N_15  and  C_14 
REMARK    7  A    between atoms: N_20  and  C_19 
REMARK       I    between atoms: C_22  and  N_20 
ROOT
ATOM      1  C   LIG d   1       0.497  91.939 117.454  0.00  0.00     0.161 C 
ATOM      2  C   LIG d   1       1.083  91.018 116.569  0.00  0.00     0.016 C 
ATOM      3  C   LIG d   1       2.480  90.861 116.422  0.00  0.00     0.038 C 
ATOM      4  C   LIG d   1       3.393  91.512 117.266  0.00  0.00     0.028 C 
ATOM      5  C   LIG d   1       2.864  92.827 117.829  0.00  0.00    -0.047 C 
ATOM      6  C   LIG d   1       1.475  92.579 118.461  0.00  0.00     0.091 C 
ENDROOT
BRANCH   1   7
ATOM      7  O   LIG d   1      -0.602  91.319 118.148  0.00  0.00    -0.368 OA
BRANCH   7   8
ATOM      8  C   LIG d   1      -1.929  91.750 117.756  0.00  0.00     0.119 C 
BRANCH   8   9
ATOM      9  C   LIG d   1      -2.615  92.332 119.008  0.00  0.00     0.028 C 
ATOM     10  C   LIG d   1      -2.358  91.484 120.265  0.00  0.00     0.006 C 
ENDBRANCH   8   9
BRANCH   8  11
ATOM     11  C   LIG d   1      -2.799  90.563 117.332  0.00  0.00     0.028 C 
ATOM     12  C   LIG d   1      -4.196  90.989 116.855  0.00  0.00     0.006 C 
ENDBRANCH   8  11
ENDBRANCH   7   8
ENDBRANCH   1   7
BRANCH   6  13
ATOM     13  N   LIG d   1       0.850  93.831 118.963  0.00  0.00    -0.311 N 
ATOM     14  C   LIG d   1       0.474  94.007 120.228  0.00  0.00     0.210 C 
ATOM     15  C   LIG d   1      -0.169  95.364 120.529  0.00  0.00     0.109 C 
ATOM     16  O   LIG d   1       0.642  93.180 121.137  0.00  0.00    -0.276 OA
ATOM     17  H   LIG d   1       0.705  94.566 118.298  0.00  0.00     0.149 HD
ENDBRANCH   6  13
BRANCH   5  18
ATOM     18  N   LIG d   1       3.858  93.329 118.797  0.00  0.00     0.381 N 
ATOM     19  H   LIG d   1       3.525  93.187 119.729  0.00  0.00    -0.090 HD
ATOM     20  H   LIG d   1       3.983  94.315 118.652  0.00  0.00    -0.090 HD
ATOM     21  H   LIG d   1       4.726  92.855 118.671  0.00  0.00    -0.090 HD
ENDBRANCH   5  18
BRANCH   3  22
ATOM     22  C   LIG d   1       2.979  90.073 115.395  0.00  0.00     0.382 C 
ATOM     23  O   LIG d   1       3.800  90.555 114.578  0.00  0.00    -0.241 OA
ATOM     24  O   LIG d   1       2.584  88.901 115.249  0.00  0.00    -0.241 OA
ENDBRANCH   3  22
TORSDOF 7
ENDMDL
MODEL 4
REMARK VINA RESULT:      -5.3      2.502      5.928
REMARK  7 active torsions:
REMARK  status: ('A' for Active; 'I' for Inactive)
REMARK    1  A    between atoms: C_2  and  C_3 
REMARK    2  A    between atoms: C_3  and  O_6 
REMARK    3  A    between atoms: C_3  and  C_4 
REMARK    4  A    between atoms: C_7  and  O_6 
REMARK    5  A    between atoms: C_9  and  C_10 
REMARK    6  A    between atoms: N_15  and  C_14 
REMARK    7  A    between atoms: N_20  and  C_19 
REMARK       I    between atoms: C_22  and  N_20 
ROOT
ATOM      1  C   LIG d   1      -3.242  91.435 117.785  0.00  0.00     0.161 C 
ATOM      2  C   LIG d   1      -3.642  90.671 116.676  0.00  0.00     0.016 C 
ATOM      3  C   LIG d   1      -4.986  90.563 116.250  0.00  0.00     0.038 C 
ATOM      4  C   LIG d   1      -6.008  91.338 116.818  0.00  0.00     0.028 C 
ATOM      5  C   LIG d   1      -5.733  91.739 118.263  0.00  0.00    -0.047 C 
ATOM      6  C   LIG d   1      -4.327  92.376 118.348  0.00  0.00     0.091 C 
ENDROOT
BRANCH   1   7
ATOM      7  O   LIG d   1      -2.052  92.181 117.460  0.00  0.00    -0.368 OA
BRANCH   7   8
ATOM      8  C   LIG d   1      -0.827  91.735 118.093  0.00  0.00     0.119 C 
BRANCH   8   9
ATOM      9  C   LIG d   1      -0.272  92.916 118.911  0.00  0.00     0.028 C 
ATOM     10  C   LIG d   1      -0.968  94.245 118.570  0.00  0.00     0.006 C 
ENDBRANCH   8   9
BRANCH   8  11
ATOM     11  C   LIG d   1       0.253  91.418 117.054  0.00  0.00     0.028 C 
ATOM     12  C   LIG d   1       1.664  91.805 117.524  0.00  0.00     0.006 C 
ENDBRANCH   8  11
ENDBRANCH   7   8
ENDBRANCH   1   7
BRANCH   6  13
ATOM     13  N   LIG d   1      -3.944  92.720 119.743  0.00  0.00    -0.311 N 
ATOM     14  C   LIG d   1      -4.198  93.902 120.302  0.00  0.00     0.210 C 
ATOM     15  C   LIG d   1      -3.700  94.056 121.743  0.00  0.00     0.109 C 
ATOM     16  O   LIG d   1      -4.816  94.826 119.753  0.00  0.00    -0.276 OA
ATOM     17  H   LIG d   1      -3.466  92.017 120.271  0.00  0.00     0.149 HD
ENDBRANCH   6  13
BRANCH   5  18
ATOM     18  N   LIG d   1      -6.809  92.656 118.684  0.00  0.00     0.381 N 
ATOM     19  H   LIG d   1      -6.418  93.536 118.955  0.00  0.00    -0.090 HD
ATOM     20  H   LIG d   1      -7.279  92.262 119.480  0.00  0.00    -0.090 HD
ATOM     21  H   LIG d   1      -7.457  92.787 117.938  0.00  0.00    -0.090 HD
ENDBRANCH   5  18
BRANCH   3  22
ATOM     22  C   LIG d   1      -5.325  89.641 115.272  0.00  0.00     0.382 C 
ATOM     23  O   LIG d   1      -4.428  89.112 114.572  0.00  0.00    -0.241 OA
ATOM     24  O   LIG d   1      -6.519  89.366 115.049  0.00  0.00    -0.241 OA
ENDBRANCH   3  22
TORSDOF 7
ENDMDL
MODEL 5
REMARK VINA RESULT:      -5.1      3.228      5.630
REMARK  7 active torsions:
REMARK  status: ('A' for Active; 'I' for Inactive)
REMARK    1  A    between atoms: C_2  and  C_3 
REMARK    2  A    between atoms: C_3  and  O_6 
REMARK    3  A    between atoms: C_3  and  C_4 
REMARK    4  A    between atoms: C_7  and  O_6 
REMARK    5  A    between atoms: C_9  and  C_10 
REMARK    6  A    between atoms: N_15  and  C_14 
REMARK    7  A    between atoms: N_20  and  C_19 
REMARK       I    between atoms: C_22  and  N_20 
ROOT
ATOM      1  C   LIG d   1      -1.633  92.524 117.841  0.00  0.00     0.161 C 
ATOM      2  C   LIG d   1      -0.509  91.820 117.379  0.00  0.00     0.016 C 
ATOM      3  C   LIG d   1       0.810  92.087 117.813  0.00  0.00     0.038 C 
ATOM      4  C   LIG d   1       1.079  92.982 118.860  0.00  0.00     0.028 C 
ATOM      5  C   LIG d   1       0.029  94.079 119.004  0.00  0.00    -0.047 C 
ATOM      6  C   LIG d   1      -1.372  93.428 119.065  0.00  0.00     0.091 C 
ENDROOT
BRANCH   1   7
ATOM      7  O   LIG d   1      -2.706  91.603 118.119  0.00  0.00    -0.368 OA
BRANCH   7   8
ATOM      8  C   LIG d   1      -3.653  91.386 117.044  0.00  0.00     0.119 C 
BRANCH   8   9
ATOM      9  C   LIG d   1      -5.065  91.404 117.660  0.00  0.00     0.028 C 
ATOM     10  C   LIG d   1      -5.129  92.226 118.958  0.00  0.00     0.006 C 
ENDBRANCH   8   9
BRANCH   8  11
ATOM     11  C   LIG d   1      -3.494  89.989 116.435  0.00  0.00     0.028 C 
ATOM     12  C   LIG d   1      -4.561  89.676 115.375  0.00  0.00     0.006 C 
ENDBRANCH   8  11
ENDBRANCH   7   8
ENDBRANCH   1   7
BRANCH   6  13
ATOM     13  N   LIG d   1      -2.463  94.435 119.121  0.00  0.00    -0.311 N 
ATOM     14  C   LIG d   1      -2.984  94.889 120.260  0.00  0.00     0.210 C 
ATOM     15  C   LIG d   1      -4.114  95.909 120.092  0.00  0.00     0.109 C 
ATOM     16  O   LIG d   1      -2.596  94.566 121.393  0.00  0.00    -0.276 OA
ATOM     17  H   LIG d   1      -2.816  94.774 118.248  0.00  0.00     0.149 HD
ENDBRANCH   6  13
BRANCH   5  18
ATOM     18  N   LIG d   1       0.359  94.855 120.214  0.00  0.00     0.381 N 
ATOM     19  H   LIG d   1      -0.303  95.596 120.332  0.00  0.00    -0.090 HD
ATOM     20  H   LIG d   1       1.271  95.262 120.100  0.00  0.00    -0.090 HD
ATOM     21  H   LIG d   1       0.349  94.261 121.013  0.00  0.00    -0.090 HD
ENDBRANCH   5  18
BRANCH   3  22
ATOM     22  C   LIG d   1       1.881  91.484 117.171  0.00  0.00     0.382 C 
ATOM     23  O   LIG d   1       1.776  90.308 116.747  0.00  0.00    -0.241 OA
ATOM     24  O   LIG d   1       2.964  92.086 117.048  0.00  0.00    -0.241 OA
ENDBRANCH   3  22
TORSDOF 7
ENDMDL
MODEL 6
REMARK VINA RESULT:      -4.7      3.481      5.857
REMARK  7 active torsions:
REMARK  status: ('A' for Active; 'I' for Inactive)
REMARK    1  A    between atoms: C_2  and  C_3 
REMARK    2  A    between atoms: C_3  and  O_6 
REMARK    3  A    between atoms: C_3  and  C_4 
REMARK    4  A    between atoms: C_7  and  O_6 
REMARK    5  A    between atoms: C_9  and  C_10 
REMARK    6  A    between atoms: N_15  and  C_14 
REMARK    7  A    between atoms: N_20  and  C_19 
REMARK       I    between atoms: C_22  and  N_20 
ROOT
ATOM      1  C   LIG d   1      -1.016  93.157 117.609  0.00  0.00     0.161 C 
ATOM      2  C   LIG d   1       0.064  92.284 117.397  0.00  0.00     0.016 C 
ATOM      3  C   LIG d   1       1.243  92.301 118.176  0.00  0.00     0.038 C 
ATOM      4  C   LIG d   1       1.361  93.098 119.325  0.00  0.00     0.028 C 
ATOM      5  C   LIG d   1       0.499  94.355 119.281  0.00  0.00    -0.047 C 
ATOM      6  C   LIG d   1      -0.952  93.958 118.926  0.00  0.00     0.091 C 
ENDROOT
BRANCH   1   7
ATOM      7  O   LIG d   1      -2.257  92.429 117.525  0.00  0.00    -0.368 OA
BRANCH   7   8
ATOM      8  C   LIG d   1      -2.246  91.086 118.070  0.00  0.00     0.119 C 
BRANCH   8   9
ATOM      9  C   LIG d   1      -3.206  90.234 117.218  0.00  0.00     0.028 C 
ATOM     10  C   LIG d   1      -4.474  91.004 116.814  0.00  0.00     0.006 C 
ENDBRANCH   8   9
BRANCH   8  11
ATOM     11  C   LIG d   1      -2.825  91.055 119.487  0.00  0.00     0.028 C 
ATOM     12  C   LIG d   1      -1.744  90.911 120.569  0.00  0.00     0.006 C 
ENDBRANCH   8  11
ENDBRANCH   7   8
ENDBRANCH   1   7
BRANCH   6  13
ATOM     13  N   LIG d   1      -1.843  95.138 118.780  0.00  0.00    -0.311 N 
ATOM     14  C   LIG d   1      -2.592  95.618 119.771  0.00  0.00     0.210 C 
ATOM     15  C   LIG d   1      -3.454  96.829 119.401  0.00  0.00     0.109 C 
ATOM     16  O   LIG d   1      -2.601  95.176 120.929  0.00  0.00    -0.276 OA
ATOM     17  H   LIG d   1      -1.874  95.577 117.881  0.00  0.00     0.149 HD
ENDBRANCH   6  13
BRANCH   5  18
ATOM     18  N   LIG d   1       0.613  95.019 120.593  0.00  0.00     0.381 N 
ATOM     19  H   LIG d   1       1.352  94.601 121.122  0.00  0.00    -0.090 HD
ATOM     20  H   LIG d   1      -0.247  94.891 121.098  0.00  0.00    -0.090 HD
ATOM     21  H   LIG d   1       0.791  95.992 120.469  0.00  0.00    -0.090 HD
ENDBRANCH   5  18
BRANCH   3  22
ATOM     22  C   LIG d   1       2.337  91.544 117.785  0.00  0.00     0.382 C 
ATOM     23  O   LIG d   1       2.914  91.791 116.699  0.00  0.00    -0.241 OA
ATOM     24  O   LIG d   1       2.725  90.588 118.484  0.00  0.00    -0.241 OA
ENDBRANCH   3  22
TORSDOF 7
ENDMDL
MODEL 7
REMARK VINA RESULT:      -4.5      2.195      4.758
REMARK  7 active torsions:
REMARK  status: ('A' for Active; 'I' for Inactive)
REMARK    1  A    between atoms: C_2  and  C_3 
REMARK    2  A    between atoms: C_3  and  O_6 
REMARK    3  A    between atoms: C_3  and  C_4 
REMARK    4  A    between atoms: C_7  and  O_6 
REMARK    5  A    between atoms: C_9  and  C_10 
REMARK    6  A    between atoms: N_15  and  C_14 
REMARK    7  A    between atoms: N_20  and  C_19 
REMARK       I    between atoms: C_22  and  N_20 
ROOT
ATOM      1  C   LIG d   1      -3.895  91.767 117.660  0.00  0.00     0.161 C 
ATOM      2  C   LIG d   1      -2.541  91.434 117.489  0.00  0.00     0.016 C 
ATOM      3  C   LIG d   1      -1.533  91.777 118.419  0.00  0.00     0.038 C 
ATOM      4  C   LIG d   1      -1.835  92.349 119.663  0.00  0.00     0.028 C 
ATOM      5  C   LIG d   1      -3.127  93.159 119.660  0.00  0.00    -0.047 C 
ATOM      6  C   LIG d   1      -4.260  92.293 119.064  0.00  0.00     0.091 C 
ENDROOT
BRANCH   1   7
ATOM      7  O   LIG d   1      -4.723  90.638 117.317  0.00  0.00    -0.368 OA
BRANCH   7   8
ATOM      8  C   LIG d   1      -5.673  90.846 116.243  0.00  0.00     0.119 C 
BRANCH   8   9
ATOM      9  C   LIG d   1      -6.948  90.056 116.593  0.00  0.00     0.028 C 
ATOM     10  C   LIG d   1      -7.646  89.485 115.346  0.00  0.00     0.006 C 
ENDBRANCH   8   9
BRANCH   8  11
ATOM     11  C   LIG d   1      -5.169  90.242 114.929  0.00  0.00     0.028 C 
ATOM     12  C   LIG d   1      -4.088  89.170 115.142  0.00  0.00     0.006 C 
ENDBRANCH   8  11
ENDBRANCH   7   8
ENDBRANCH   1   7
BRANCH   6  13
ATOM     13  N   LIG d   1      -5.541  93.038 118.946  0.00  0.00    -0.311 N 
ATOM     14  C   LIG d   1      -6.397  93.189 119.955  0.00  0.00     0.210 C 
ATOM     15  C   LIG d   1      -7.666  93.975 119.614  0.00  0.00     0.109 C 
ATOM     16  O   LIG d   1      -6.210  92.774 121.109  0.00  0.00    -0.276 OA
ATOM     17  H   LIG d   1      -5.757  93.434 118.052  0.00  0.00     0.149 HD
ENDBRANCH   6  13
BRANCH   5  18
ATOM     18  N   LIG d   1      -3.392  93.581 121.048  0.00  0.00     0.381 N 
ATOM     19  H   LIG d   1      -4.354  93.838 121.147  0.00  0.00    -0.090 HD
ATOM     20  H   LIG d   1      -2.828  94.387 121.256  0.00  0.00    -0.090 HD
ATOM     21  H   LIG d   1      -3.171  92.841 121.678  0.00  0.00    -0.090 HD
ENDBRANCH   5  18
BRANCH   3  22
ATOM     22  C   LIG d   1      -0.200  91.584 118.089  0.00  0.00     0.382 C 
ATOM     23  O   LIG d   1       0.121  91.322 116.904  0.00  0.00    -0.241 OA
ATOM     24  O   LIG d   1       0.681  91.625 118.968  0.00  0.00    -0.241 OA
ENDBRANCH   3  22
TORSDOF 7
ENDMDL
MODEL 8
REMARK VINA RESULT:      -4.4      3.455      7.211
REMARK  7 active torsions:
REMARK  status: ('A' for Active; 'I' for Inactive)
REMARK    1  A    between atoms: C_2  and  C_3 
REMARK    2  A    between atoms: C_3  and  O_6 
REMARK    3  A    between atoms: C_3  and  C_4 
REMARK    4  A    between atoms: C_7  and  O_6 
REMARK    5  A    between atoms: C_9  and  C_10 
REMARK    6  A    between atoms: N_15  and  C_14 
REMARK    7  A    between atoms: N_20  and  C_19 
REMARK       I    between atoms: C_22  and  N_20 
ROOT
ATOM      1  C   LIG d   1      -0.952  91.805 118.220  0.00  0.00     0.161 C 
ATOM      2  C   LIG d   1      -1.842  91.057 117.431  0.00  0.00     0.016 C 
ATOM      3  C   LIG d   1      -3.245  91.231 117.462  0.00  0.00     0.038 C 
ATOM      4  C   LIG d   1      -3.846  92.277 118.178  0.00  0.00     0.028 C 
ATOM      5  C   LIG d   1      -3.030  92.736 119.381  0.00  0.00    -0.047 C 
ATOM      6  C   LIG d   1      -1.582  93.026 118.923  0.00  0.00     0.091 C 
ENDROOT
BRANCH   1   7
ATOM      7  O   LIG d   1       0.179  92.213 117.426  0.00  0.00    -0.368 OA
BRANCH   7   8
ATOM      8  C   LIG d   1       1.399  91.454 117.617  0.00  0.00     0.119 C 
BRANCH   8   9
ATOM      9  C   LIG d   1       2.456  92.415 118.194  0.00  0.00     0.028 C 
ATOM     10  C   LIG d   1       2.859  92.048 119.633  0.00  0.00     0.006 C 
ENDBRANCH   8   9
BRANCH   8  11
ATOM     11  C   LIG d   1       1.973  90.976 116.280  0.00  0.00     0.028 C 
ATOM     12  C   LIG d   1       2.648  89.599 116.381  0.00  0.00     0.006 C 
ENDBRANCH   8  11
ENDBRANCH   7   8
ENDBRANCH   1   7
BRANCH   6  13
ATOM     13  N   LIG d   1      -0.694  93.400 120.055  0.00  0.00    -0.311 N 
ATOM     14  C   LIG d   1       0.051  94.504 120.068  0.00  0.00     0.210 C 
ATOM     15  C   LIG d   1       0.910  94.689 121.323  0.00  0.00     0.109 C 
ATOM     16  O   LIG d   1       0.057  95.364 119.175  0.00  0.00    -0.276 OA
ATOM     17  H   LIG d   1      -0.662  92.774 120.836  0.00  0.00     0.149 HD
ENDBRANCH   6  13
BRANCH   5  18
ATOM     18  N   LIG d   1      -3.703  93.917 119.952  0.00  0.00     0.381 N 
ATOM     19  H   LIG d   1      -3.866  93.775 120.929  0.00  0.00    -0.090 HD
ATOM     20  H   LIG d   1      -4.591  94.037 119.498  0.00  0.00    -0.090 HD
ATOM     21  H   LIG d   1      -3.141  94.729 119.817  0.00  0.00    -0.090 HD
ENDBRANCH   5  18
BRANCH   3  22
ATOM     22  C   LIG d   1      -4.064  90.327 116.803  0.00  0.00     0.382 C 
ATOM     23  O   LIG d   1      -3.580  89.555 115.941  0.00  0.00    -0.241 OA
ATOM     24  O   LIG d   1      -5.289  90.305 117.027  0.00  0.00    -0.241 OA
ENDBRANCH   3  22
TORSDOF 7
ENDMDL
MODEL 9
REMARK VINA RESULT:      -4.3      5.165      8.257
REMARK  7 active torsions:
REMARK  status: ('A' for Active; 'I' for Inactive)
REMARK    1  A    between atoms: C_2  and  C_3 
REMARK    2  A    between atoms: C_3  and  O_6 
REMARK    3  A    between atoms: C_3  and  C_4 
REMARK    4  A    between atoms: C_7  and  O_6 
REMARK    5  A    between atoms: C_9  and  C_10 
REMARK    6  A    between atoms: N_15  and  C_14 
REMARK    7  A    between atoms: N_20  and  C_19 
REMARK       I    between atoms: C_22  and  N_20 
ROOT
ATOM      1  C   LIG d   1       1.846  91.866 117.403  0.00  0.00     0.161 C 
ATOM      2  C   LIG d   1       3.076  92.412 117.806  0.00  0.00     0.016 C 
ATOM      3  C   LIG d   1       3.207  93.329 118.874  0.00  0.00     0.038 C 
ATOM      4  C   LIG d   1       2.130  93.649 119.713  0.00  0.00     0.028 C 
ATOM      5  C   LIG d   1       0.771  93.514 119.033  0.00  0.00    -0.047 C 
ATOM      6  C   LIG d   1       0.676  92.117 118.377  0.00  0.00     0.091 C 
ENDROOT
BRANCH   1   7
ATOM      7  O   LIG d   1       1.996  90.454 117.154  0.00  0.00    -0.368 OA
BRANCH   7   8
ATOM      8  C   LIG d   1       3.299  90.024 116.690  0.00  0.00     0.119 C 
BRANCH   8   9
ATOM      9  C   LIG d   1       3.181  89.734 115.181  0.00  0.00     0.028 C 
ATOM     10  C   LIG d   1       4.502  89.978 114.431  0.00  0.00     0.006 C 
ENDBRANCH   8   9
BRANCH   8  11
ATOM     11  C   LIG d   1       3.706  88.692 117.328  0.00  0.00     0.028 C 
ATOM     12  C   LIG d   1       3.088  87.478 116.617  0.00  0.00     0.006 C 
ENDBRANCH   8  11
ENDBRANCH   7   8
ENDBRANCH   1   7
BRANCH   6  13
ATOM     13  N   LIG d   1      -0.588  91.933 117.618  0.00  0.00    -0.311 N 
ATOM     14  C   LIG d   1      -1.701  91.439 118.158  0.00  0.00     0.210 C 
ATOM     15  C   LIG d   1      -2.886  91.313 117.194  0.00  0.00     0.109 C 
ATOM     16  O   LIG d   1      -1.829  91.122 119.350  0.00  0.00    -0.276 OA
ATOM     17  H   LIG d   1      -0.583  92.193 116.651  0.00  0.00     0.149 HD
ENDBRANCH   6  13
BRANCH   5  18
ATOM     18  N   LIG d   1      -0.265  93.743 120.058  0.00  0.00     0.381 N 
ATOM     19  H   LIG d   1       0.128  93.618 120.970  0.00  0.00    -0.090 HD
ATOM     20  H   LIG d   1      -0.998  93.067 119.935  0.00  0.00    -0.090 HD
ATOM     21  H   LIG d   1      -0.633  94.664 119.970  0.00  0.00    -0.090 HD
ENDBRANCH   5  18
BRANCH   3  22
ATOM     22  C   LIG d   1       4.420  93.968 119.085  0.00  0.00     0.382 C 
ATOM     23  O   LIG d   1       5.395  93.726 118.335  0.00  0.00    -0.241 OA
ATOM     24  O   LIG d   1       4.562  94.750 120.044  0.00  0.00    -0.241 OA
ENDBRANCH   3  22
TORSDOF 7
ENDMDL
