MODEL 1
REMARK VINA RESULT:      -5.6      0.000      0.000
REMARK  7 active torsions:
REMARK  status: ('A' for Active; 'I' for Inactive)
REMARK    1  A    between atoms: C_2  and  C_3 
REMARK    2  A    between atoms: C_3  and  O_6 
REMARK    3  A    between atoms: C_3  and  C_4 
REMARK    4  A    between atoms: C_7  and  O_6 
REMARK    5  A    between atoms: C_9  and  C_10 
REMARK    6  A    between atoms: N_15  and  C_14 
REMARK    7  A    between atoms: N_20  and  C_19 
REMARK       I    between atoms: C_22  and  N_20 
ROOT
ATOM      1  C   LIG d   1      -6.210  92.772 117.557  0.00  0.00     0.161 C 
ATOM      2  C   LIG d   1      -6.522  91.560 116.917  0.00  0.00     0.016 C 
ATOM      3  C   LIG d   1      -5.545  90.693 116.376  0.00  0.00     0.038 C 
ATOM      4  C   LIG d   1      -4.173  90.907 116.572  0.00  0.00     0.028 C 
ATOM      5  C   LIG d   1      -3.811  92.374 116.773  0.00  0.00    -0.047 C 
ATOM      6  C   LIG d   1      -4.714  92.967 117.879  0.00  0.00     0.091 C 
ENDROOT
BRANCH   1   7
ATOM      7  O   LIG d   1      -7.003  92.910 118.753  0.00  0.00    -0.368 OA
BRANCH   7   8
ATOM      8  C   LIG d   1      -8.313  93.504 118.584  0.00  0.00     0.119 C 
BRANCH   8   9
ATOM      9  C   LIG d   1      -8.111  94.908 117.982  0.00  0.00     0.028 C 
ATOM     10  C   LIG d   1      -7.749  95.957 119.046  0.00  0.00     0.006 C 
ENDBRANCH   8   9
BRANCH   8  11
ATOM     11  C   LIG d   1      -8.997  93.737 119.934  0.00  0.00     0.028 C 
ATOM     12  C   LIG d   1      -8.327  92.967 121.083  0.00  0.00     0.006 C 
ENDBRANCH   8  11
ENDBRANCH   7   8
ENDBRANCH   1   7
BRANCH   6  13
ATOM     13  N   LIG d   1      -4.484  94.421 118.080  0.00  0.00    -0.311 N 
ATOM     14  C   LIG d   1      -3.622  94.911 118.970  0.00  0.00     0.210 C 
ATOM     15  C   LIG d   1      -3.553  96.440 119.030  0.00  0.00     0.109 C 
ATOM     16  O   LIG d   1      -2.885  94.224 119.694  0.00  0.00    -0.276 OA
ATOM     17  H   LIG d   1      -5.017  95.051 117.513  0.00  0.00     0.149 HD
ENDBRANCH   6  13
BRANCH   5  18
ATOM     18  N   LIG d   1      -2.375  92.438 117.104  0.00  0.00     0.381 N 
ATOM     19  H   LIG d   1      -2.098  91.599 117.573  0.00  0.00    -0.090 HD
ATOM     20  H   LIG d   1      -2.218  93.213 117.725  0.00  0.00    -0.090 HD
ATOM     21  H   LIG d   1      -1.838  92.556 116.272  0.00  0.00    -0.090 HD
ENDBRANCH   5  18
BRANCH   3  22
ATOM     22  C   LIG d   1      -5.939  89.618 115.593  0.00  0.00     0.382 C 
ATOM     23  O   LIG d   1      -7.158  89.412 115.379  0.00  0.00    -0.241 OA
ATOM     24  O   LIG d   1      -5.093  88.826 115.136  0.00  0.00    -0.241 OA
ENDBRANCH   3  22
TORSDOF 7
ENDMDL
MODEL 2
REMARK VINA RESULT:      -5.4      3.055      5.353
REMARK  7 active torsions:
REMARK  status: ('A' for Active; 'I' for Inactive)
REMARK    1  A    between atoms: C_2  and  C_3 
REMARK    2  A    between atoms: C_3  and  O_6 
REMARK    3  A    between atoms: C_3  and  C_4 
REMARK    4  A    between atoms: C_7  and  O_6 
REMARK    5  A    between atoms: C_9  and  C_10 
REMARK    6  A    between atoms: N_15  and  C_14 
REMARK    7  A    between atoms: N_20  and  C_19 
REMARK       I    between atoms: C_22  and  N_20 
ROOT
ATOM      1  C   LIG d   1      -3.488  91.799 117.256  0.00  0.00     0.161 C 
ATOM      2  C   LIG d   1      -4.628  92.549 116.922  0.00  0.00     0.016 C 
ATOM      3  C   LIG d   1      -5.652  92.071 116.072  0.00  0.00     0.038 C 
ATOM      4  C   LIG d   1      -5.679  90.745 115.616  0.00  0.00     0.028 C 
ATOM      5  C   LIG d   1      -4.296  90.111 115.516  0.00  0.00    -0.047 C 
ATOM      6  C   LIG d   1      -3.554  90.310 116.857  0.00  0.00     0.091 C 
ENDROOT
BRANCH   1   7
ATOM      7  O   LIG d   1      -3.213  91.929 118.664  0.00  0.00    -0.368 OA
BRANCH   7   8
ATOM      8  C   LIG d   1      -2.017  92.668 119.015  0.00  0.00     0.119 C 
BRANCH   8   9
ATOM      9  C   LIG d   1      -2.459  93.921 119.795  0.00  0.00     0.028 C 
ATOM     10  C   LIG d   1      -3.819  93.732 120.487  0.00  0.00     0.006 C 
ENDBRANCH   8   9
BRANCH   8  11
ATOM     11  C   LIG d   1      -1.304  93.198 117.767  0.00  0.00     0.028 C 
ATOM     12  C   LIG d   1       0.146  92.701 117.653  0.00  0.00     0.006 C 
ENDBRANCH   8  11
ENDBRANCH   7   8
ENDBRANCH   1   7
BRANCH   6  13
ATOM     13  N   LIG d   1      -2.161  89.793 116.817  0.00  0.00    -0.311 N 
ATOM     14  C   LIG d   1      -1.815  88.585 117.258  0.00  0.00     0.210 C 
ATOM     15  C   LIG d   1      -0.323  88.257 117.142  0.00  0.00     0.109 C 
ATOM     16  O   LIG d   1      -2.607  87.741 117.704  0.00  0.00    -0.276 OA
ATOM     17  H   LIG d   1      -1.460  90.400 116.441  0.00  0.00     0.149 HD
ENDBRANCH   6  13
BRANCH   5  18
ATOM     18  N   LIG d   1      -4.481  88.691 115.162  0.00  0.00     0.381 N 
ATOM     19  H   LIG d   1      -3.952  88.474 114.342  0.00  0.00    -0.090 HD
ATOM     20  H   LIG d   1      -5.453  88.530 114.962  0.00  0.00    -0.090 HD
ATOM     21  H   LIG d   1      -4.189  88.111 115.918  0.00  0.00    -0.090 HD
ENDBRANCH   5  18
BRANCH   3  22
ATOM     22  C   LIG d   1      -6.644  92.938 115.638  0.00  0.00     0.382 C 
ATOM     23  O   LIG d   1      -7.201  93.712 116.452  0.00  0.00    -0.241 OA
ATOM     24  O   LIG d   1      -7.020  92.923 114.450  0.00  0.00    -0.241 OA
ENDBRANCH   3  22
TORSDOF 7
ENDMDL
MODEL 3
REMARK VINA RESULT:      -5.3      1.942      2.597
REMARK  7 active torsions:
REMARK  status: ('A' for Active; 'I' for Inactive)
REMARK    1  A    between atoms: C_2  and  C_3 
REMARK    2  A    between atoms: C_3  and  O_6 
REMARK    3  A    between atoms: C_3  and  C_4 
REMARK    4  A    between atoms: C_7  and  O_6 
REMARK    5  A    between atoms: C_9  and  C_10 
REMARK    6  A    between atoms: N_15  and  C_14 
REMARK    7  A    between atoms: N_20  and  C_19 
REMARK       I    between atoms: C_22  and  N_20 
ROOT
ATOM      1  C   LIG d   1      -4.552  92.667 116.676  0.00  0.00     0.161 C 
ATOM      2  C   LIG d   1      -5.757  92.096 116.234  0.00  0.00     0.016 C 
ATOM      3  C   LIG d   1      -5.912  90.717 115.963  0.00  0.00     0.038 C 
ATOM      4  C   LIG d   1      -4.908  89.785 116.263  0.00  0.00     0.028 C 
ATOM      5  C   LIG d   1      -3.503  90.379 116.235  0.00  0.00    -0.047 C 
ATOM      6  C   LIG d   1      -3.478  91.649 117.114  0.00  0.00     0.091 C 
ENDROOT
BRANCH   1   7
ATOM      7  O   LIG d   1      -4.816  93.605 117.737  0.00  0.00    -0.368 OA
BRANCH   7   8
ATOM      8  C   LIG d   1      -6.004  93.355 118.528  0.00  0.00     0.119 C 
BRANCH   8   9
ATOM      9  C   LIG d   1      -6.689  94.713 118.776  0.00  0.00     0.028 C 
ATOM     10  C   LIG d   1      -8.021  94.846 118.018  0.00  0.00     0.006 C 
ENDBRANCH   8   9
BRANCH   8  11
ATOM     11  C   LIG d   1      -5.645  92.822 119.919  0.00  0.00     0.028 C 
ATOM     12  C   LIG d   1      -6.881  92.561 120.794  0.00  0.00     0.006 C 
ENDBRANCH   8  11
ENDBRANCH   7   8
ENDBRANCH   1   7
BRANCH   6  13
ATOM     13  N   LIG d   1      -2.162  92.340 117.075  0.00  0.00    -0.311 N 
ATOM     14  C   LIG d   1      -1.178  92.092 117.938  0.00  0.00     0.210 C 
ATOM     15  C   LIG d   1       0.088  92.929 117.733  0.00  0.00     0.109 C 
ATOM     16  O   LIG d   1      -1.223  91.236 118.834  0.00  0.00    -0.276 OA
ATOM     17  H   LIG d   1      -2.029  93.028 116.360  0.00  0.00     0.149 HD
ENDBRANCH   6  13
BRANCH   5  18
ATOM     18  N   LIG d   1      -2.569  89.335 116.699  0.00  0.00     0.381 N 
ATOM     19  H   LIG d   1      -1.714  89.393 116.183  0.00  0.00    -0.090 HD
ATOM     20  H   LIG d   1      -2.979  88.434 116.530  0.00  0.00    -0.090 HD
ATOM     21  H   LIG d   1      -2.387  89.449 117.671  0.00  0.00    -0.090 HD
ENDBRANCH   5  18
BRANCH   3  22
ATOM     22  C   LIG d   1      -7.070  90.263 115.349  0.00  0.00     0.382 C 
ATOM     23  O   LIG d   1      -7.569  89.163 115.686  0.00  0.00    -0.241 OA
ATOM     24  O   LIG d   1      -7.597  90.920 114.430  0.00  0.00    -0.241 OA
ENDBRANCH   3  22
TORSDOF 7
ENDMDL
MODEL 4
REMARK VINA RESULT:      -5.2      2.340      4.724
REMARK  7 active torsions:
REMARK  status: ('A' for Active; 'I' for Inactive)
REMARK    1  A    between atoms: C_2  and  C_3 
REMARK    2  A    between atoms: C_3  and  O_6 
REMARK    3  A    between atoms: C_3  and  C_4 
REMARK    4  A    between atoms: C_7  and  O_6 
REMARK    5  A    between atoms: C_9  and  C_10 
REMARK    6  A    between atoms: N_15  and  C_14 
REMARK    7  A    between atoms: N_20  and  C_19 
REMARK       I    between atoms: C_22  and  N_20 
ROOT
ATOM      1  C   LIG d   1      -3.945  92.014 117.518  0.00  0.00     0.161 C 
ATOM      2  C   LIG d   1      -4.152  91.004 116.564  0.00  0.00     0.016 C 
ATOM      3  C   LIG d   1      -5.425  90.668 116.050  0.00  0.00     0.038 C 
ATOM      4  C   LIG d   1      -6.568  91.425 116.346  0.00  0.00     0.028 C 
ATOM      5  C   LIG d   1      -6.492  92.136 117.693  0.00  0.00    -0.047 C 
ATOM      6  C   LIG d   1      -5.165  92.925 117.770  0.00  0.00     0.091 C 
ENDROOT
BRANCH   1   7
ATOM      7  O   LIG d   1      -2.796  92.804 117.153  0.00  0.00    -0.368 OA
BRANCH   7   8
ATOM      8  C   LIG d   1      -1.537  92.414 117.754  0.00  0.00     0.119 C 
BRANCH   8   9
ATOM      9  C   LIG d   1      -1.531  92.944 119.201  0.00  0.00     0.028 C 
ATOM     10  C   LIG d   1      -1.519  91.811 120.241  0.00  0.00     0.006 C 
ENDBRANCH   8   9
BRANCH   8  11
ATOM     11  C   LIG d   1      -0.354  93.100 117.065  0.00  0.00     0.028 C 
ATOM     12  C   LIG d   1       1.004  92.534 117.507  0.00  0.00     0.006 C 
ENDBRANCH   8  11
ENDBRANCH   7   8
ENDBRANCH   1   7
BRANCH   6  13
ATOM     13  N   LIG d   1      -4.971  93.582 119.089  0.00  0.00    -0.311 N 
ATOM     14  C   LIG d   1      -5.331  94.839 119.341  0.00  0.00     0.210 C 
ATOM     15  C   LIG d   1      -5.024  95.327 120.761  0.00  0.00     0.109 C 
ATOM     16  O   LIG d   1      -5.905  95.587 118.535  0.00  0.00    -0.276 OA
ATOM     17  H   LIG d   1      -4.541  93.038 119.810  0.00  0.00     0.149 HD
ENDBRANCH   6  13
BRANCH   5  18
ATOM     18  N   LIG d   1      -7.684  92.996 117.811  0.00  0.00     0.381 N 
ATOM     19  H   LIG d   1      -7.544  93.842 117.296  0.00  0.00    -0.090 HD
ATOM     20  H   LIG d   1      -7.818  93.235 118.778  0.00  0.00    -0.090 HD
ATOM     21  H   LIG d   1      -8.486  92.517 117.466  0.00  0.00    -0.090 HD
ENDBRANCH   5  18
BRANCH   3  22
ATOM     22  C   LIG d   1      -5.571  89.537 115.261  0.00  0.00     0.382 C 
ATOM     23  O   LIG d   1      -4.689  88.644 115.276  0.00  0.00    -0.241 OA
ATOM     24  O   LIG d   1      -6.551  89.418 114.502  0.00  0.00    -0.241 OA
ENDBRANCH   3  22
TORSDOF 7
ENDMDL
MODEL 5
REMARK VINA RESULT:      -4.9      1.858      2.415
REMARK  7 active torsions:
REMARK  status: ('A' for Active; 'I' for Inactive)
REMARK    1  A    between atoms: C_2  and  C_3 
REMARK    2  A    between atoms: C_3  and  O_6 
REMARK    3  A    between atoms: C_3  and  C_4 
REMARK    4  A    between atoms: C_7  and  O_6 
REMARK    5  A    between atoms: C_9  and  C_10 
REMARK    6  A    between atoms: N_15  and  C_14 
REMARK    7  A    between atoms: N_20  and  C_19 
REMARK       I    between atoms: C_22  and  N_20 
ROOT
ATOM      1  C   LIG d   1      -5.303  92.203 117.929  0.00  0.00     0.161 C 
ATOM      2  C   LIG d   1      -6.178  91.688 116.958  0.00  0.00     0.016 C 
ATOM      3  C   LIG d   1      -5.778  90.774 115.956  0.00  0.00     0.038 C 
ATOM      4  C   LIG d   1      -4.502  90.192 115.950  0.00  0.00     0.028 C 
ATOM      5  C   LIG d   1      -3.436  91.062 116.608  0.00  0.00    -0.047 C 
ATOM      6  C   LIG d   1      -3.934  91.494 118.006  0.00  0.00     0.091 C 
ENDROOT
BRANCH   1   7
ATOM      7  O   LIG d   1      -5.945  92.194 119.219  0.00  0.00    -0.368 OA
BRANCH   7   8
ATOM      8  C   LIG d   1      -6.386  93.480 119.720  0.00  0.00     0.119 C 
BRANCH   8   9
ATOM      9  C   LIG d   1      -7.897  93.592 119.442  0.00  0.00     0.028 C 
ATOM     10  C   LIG d   1      -8.217  94.620 118.344  0.00  0.00     0.006 C 
ENDBRANCH   8   9
BRANCH   8  11
ATOM     11  C   LIG d   1      -5.744  94.632 118.941  0.00  0.00     0.028 C 
ATOM     12  C   LIG d   1      -4.739  95.434 119.783  0.00  0.00     0.006 C 
ENDBRANCH   8  11
ENDBRANCH   7   8
ENDBRANCH   1   7
BRANCH   6  13
ATOM     13  N   LIG d   1      -2.987  92.418 118.684  0.00  0.00    -0.311 N 
ATOM     14  C   LIG d   1      -2.044  92.009 119.530  0.00  0.00     0.210 C 
ATOM     15  C   LIG d   1      -1.188  93.127 120.134  0.00  0.00     0.109 C 
ATOM     16  O   LIG d   1      -1.813  90.824 119.813  0.00  0.00    -0.276 OA
ATOM     17  H   LIG d   1      -3.083  93.395 118.488  0.00  0.00     0.149 HD
ENDBRANCH   6  13
BRANCH   5  18
ATOM     18  N   LIG d   1      -2.188  90.278 116.655  0.00  0.00     0.381 N 
ATOM     19  H   LIG d   1      -2.377  89.325 116.419  0.00  0.00    -0.090 HD
ATOM     20  H   LIG d   1      -1.822  90.305 117.591  0.00  0.00    -0.090 HD
ATOM     21  H   LIG d   1      -1.521  90.659 116.020  0.00  0.00    -0.090 HD
ENDBRANCH   5  18
BRANCH   3  22
ATOM     22  C   LIG d   1      -6.648  90.463 114.922  0.00  0.00     0.382 C 
ATOM     23  O   LIG d   1      -7.382  91.355 114.431  0.00  0.00    -0.241 OA
ATOM     24  O   LIG d   1      -6.741  89.294 114.504  0.00  0.00    -0.241 OA
ENDBRANCH   3  22
TORSDOF 7
ENDMDL
MODEL 6
REMARK VINA RESULT:      -4.9      2.584      3.554
REMARK  7 active torsions:
REMARK  status: ('A' for Active; 'I' for Inactive)
REMARK    1  A    between atoms: C_2  and  C_3 
REMARK    2  A    between atoms: C_3  and  O_6 
REMARK    3  A    between atoms: C_3  and  C_4 
REMARK    4  A    between atoms: C_7  and  O_6 
REMARK    5  A    between atoms: C_9  and  C_10 
REMARK    6  A    between atoms: N_15  and  C_14 
REMARK    7  A    between atoms: N_20  and  C_19 
REMARK       I    between atoms: C_22  and  N_20 
ROOT
ATOM      1  C   LIG d   1      -4.052  92.726 117.517  0.00  0.00     0.161 C 
ATOM      2  C   LIG d   1      -5.185  92.755 116.688  0.00  0.00     0.016 C 
ATOM      3  C   LIG d   1      -5.582  91.670 115.874  0.00  0.00     0.038 C 
ATOM      4  C   LIG d   1      -4.953  90.418 115.949  0.00  0.00     0.028 C 
ATOM      5  C   LIG d   1      -3.497  90.498 116.396  0.00  0.00    -0.047 C 
ATOM      6  C   LIG d   1      -3.417  91.331 117.696  0.00  0.00     0.091 C 
ENDROOT
BRANCH   1   7
ATOM      7  O   LIG d   1      -4.370  93.299 118.801  0.00  0.00    -0.368 OA
BRANCH   7   8
ATOM      8  C   LIG d   1      -4.867  92.380 119.804  0.00  0.00     0.119 C 
BRANCH   8   9
ATOM      9  C   LIG d   1      -6.363  92.684 120.010  0.00  0.00     0.028 C 
ATOM     10  C   LIG d   1      -6.628  94.174 120.282  0.00  0.00     0.006 C 
ENDBRANCH   8   9
BRANCH   8  11
ATOM     11  C   LIG d   1      -4.210  92.632 121.165  0.00  0.00     0.028 C 
ATOM     12  C   LIG d   1      -2.968  93.531 121.070  0.00  0.00     0.006 C 
ENDBRANCH   8  11
ENDBRANCH   7   8
ENDBRANCH   1   7
BRANCH   6  13
ATOM     13  N   LIG d   1      -2.018  91.529 118.156  0.00  0.00    -0.311 N 
ATOM     14  C   LIG d   1      -1.429  90.755 119.067  0.00  0.00     0.210 C 
ATOM     15  C   LIG d   1       0.011  91.146 119.413  0.00  0.00     0.109 C 
ATOM     16  O   LIG d   1      -1.952  89.763 119.596  0.00  0.00    -0.276 OA
ATOM     17  H   LIG d   1      -1.509  92.293 117.755  0.00  0.00     0.149 HD
ENDBRANCH   6  13
BRANCH   5  18
ATOM     18  N   LIG d   1      -3.006  89.117 116.563  0.00  0.00     0.381 N 
ATOM     19  H   LIG d   1      -2.181  88.982 116.014  0.00  0.00    -0.090 HD
ATOM     20  H   LIG d   1      -3.710  88.480 116.236  0.00  0.00    -0.090 HD
ATOM     21  H   LIG d   1      -2.807  88.940 117.523  0.00  0.00    -0.090 HD
ENDBRANCH   5  18
BRANCH   3  22
ATOM     22  C   LIG d   1      -6.595  91.843 114.943  0.00  0.00     0.382 C 
ATOM     23  O   LIG d   1      -7.154  90.843 114.431  0.00  0.00    -0.241 OA
ATOM     24  O   LIG d   1      -6.927  92.986 114.576  0.00  0.00    -0.241 OA
ENDBRANCH   3  22
TORSDOF 7
ENDMDL
MODEL 7
REMARK VINA RESULT:      -4.9      3.334      5.917
REMARK  7 active torsions:
REMARK  status: ('A' for Active; 'I' for Inactive)
REMARK    1  A    between atoms: C_2  and  C_3 
REMARK    2  A    between atoms: C_3  and  O_6 
REMARK    3  A    between atoms: C_3  and  C_4 
REMARK    4  A    between atoms: C_7  and  O_6 
REMARK    5  A    between atoms: C_9  and  C_10 
REMARK    6  A    between atoms: N_15  and  C_14 
REMARK    7  A    between atoms: N_20  and  C_19 
REMARK       I    between atoms: C_22  and  N_20 
ROOT
ATOM      1  C   LIG d   1      -2.588  90.358 117.555  0.00  0.00     0.161 C 
ATOM      2  C   LIG d   1      -3.751  89.949 116.882  0.00  0.00     0.016 C 
ATOM      3  C   LIG d   1      -4.783  90.838 116.502  0.00  0.00     0.038 C 
ATOM      4  C   LIG d   1      -4.651  92.228 116.637  0.00  0.00     0.028 C 
ATOM      5  C   LIG d   1      -3.715  92.641 117.767  0.00  0.00    -0.047 C 
ATOM      6  C   LIG d   1      -2.376  91.885 117.611  0.00  0.00     0.091 C 
ENDROOT
BRANCH   1   7
ATOM      7  O   LIG d   1      -1.436  89.713 116.975  0.00  0.00    -0.368 OA
BRANCH   7   8
ATOM      8  C   LIG d   1      -0.929  88.556 117.684  0.00  0.00     0.119 C 
BRANCH   8   9
ATOM      9  C   LIG d   1       0.443  88.937 118.272  0.00  0.00     0.028 C 
ATOM     10  C   LIG d   1       0.401  89.105 119.800  0.00  0.00     0.006 C 
ENDBRANCH   8   9
BRANCH   8  11
ATOM     11  C   LIG d   1      -0.651  87.393 116.726  0.00  0.00     0.028 C 
ATOM     12  C   LIG d   1      -1.881  86.498 116.503  0.00  0.00     0.006 C 
ENDBRANCH   8  11
ENDBRANCH   7   8
ENDBRANCH   1   7
BRANCH   6  13
ATOM     13  N   LIG d   1      -1.432  92.167 118.724  0.00  0.00    -0.311 N 
ATOM     14  C   LIG d   1      -0.204  92.649 118.540  0.00  0.00     0.210 C 
ATOM     15  C   LIG d   1       0.611  92.848 119.822  0.00  0.00     0.109 C 
ATOM     16  O   LIG d   1       0.276  92.959 117.440  0.00  0.00    -0.276 OA
ATOM     17  H   LIG d   1      -1.752  91.974 119.653  0.00  0.00     0.149 HD
ENDBRANCH   6  13
BRANCH   5  18
ATOM     18  N   LIG d   1      -3.562  94.107 117.707  0.00  0.00     0.381 N 
ATOM     19  H   LIG d   1      -3.932  94.451 116.843  0.00  0.00    -0.090 HD
ATOM     20  H   LIG d   1      -2.584  94.333 117.743  0.00  0.00    -0.090 HD
ATOM     21  H   LIG d   1      -4.037  94.531 118.472  0.00  0.00    -0.090 HD
ENDBRANCH   5  18
BRANCH   3  22
ATOM     22  C   LIG d   1      -5.980  90.334 116.017  0.00  0.00     0.382 C 
ATOM     23  O   LIG d   1      -7.027  91.021 116.095  0.00  0.00    -0.241 OA
ATOM     24  O   LIG d   1      -6.035  89.183 115.543  0.00  0.00    -0.241 OA
ENDBRANCH   3  22
TORSDOF 7
ENDMDL
MODEL 8
REMARK VINA RESULT:      -4.8      2.259      3.392
REMARK  7 active torsions:
REMARK  status: ('A' for Active; 'I' for Inactive)
REMARK    1  A    between atoms: C_2  and  C_3 
REMARK    2  A    between atoms: C_3  and  O_6 
REMARK    3  A    between atoms: C_3  and  C_4 
REMARK    4  A    between atoms: C_7  and  O_6 
REMARK    5  A    between atoms: C_9  and  C_10 
REMARK    6  A    between atoms: N_15  and  C_14 
REMARK    7  A    between atoms: N_20  and  C_19 
REMARK       I    between atoms: C_22  and  N_20 
ROOT
ATOM      1  C   LIG d   1      -4.147  92.709 117.458  0.00  0.00     0.161 C 
ATOM      2  C   LIG d   1      -5.280  92.691 116.628  0.00  0.00     0.016 C 
ATOM      3  C   LIG d   1      -5.650  91.577 115.841  0.00  0.00     0.038 C 
ATOM      4  C   LIG d   1      -4.991  90.343 115.946  0.00  0.00     0.028 C 
ATOM      5  C   LIG d   1      -3.538  90.468 116.392  0.00  0.00    -0.047 C 
ATOM      6  C   LIG d   1      -3.479  91.335 117.671  0.00  0.00     0.091 C 
ENDROOT
BRANCH   1   7
ATOM      7  O   LIG d   1      -4.480  93.306 118.727  0.00  0.00    -0.368 OA
BRANCH   7   8
ATOM      8  C   LIG d   1      -4.792  94.721 118.703  0.00  0.00     0.119 C 
BRANCH   8   9
ATOM      9  C   LIG d   1      -3.754  95.439 119.588  0.00  0.00     0.028 C 
ATOM     10  C   LIG d   1      -3.410  96.844 119.067  0.00  0.00     0.006 C 
ENDBRANCH   8   9
BRANCH   8  11
ATOM     11  C   LIG d   1      -6.148  95.004 119.358  0.00  0.00     0.028 C 
ATOM     12  C   LIG d   1      -7.278  95.185 118.332  0.00  0.00     0.006 C 
ENDBRANCH   8  11
ENDBRANCH   7   8
ENDBRANCH   1   7
BRANCH   6  13
ATOM     13  N   LIG d   1      -2.085  91.577 118.127  0.00  0.00    -0.311 N 
ATOM     14  C   LIG d   1      -1.562  91.016 119.215  0.00  0.00     0.210 C 
ATOM     15  C   LIG d   1      -0.114  91.417 119.517  0.00  0.00     0.109 C 
ATOM     16  O   LIG d   1      -2.148  90.198 119.941  0.00  0.00    -0.276 OA
ATOM     17  H   LIG d   1      -1.529  92.204 117.579  0.00  0.00     0.149 HD
ENDBRANCH   6  13
BRANCH   5  18
ATOM     18  N   LIG d   1      -3.015  89.104 116.593  0.00  0.00     0.381 N 
ATOM     19  H   LIG d   1      -3.018  88.608 115.724  0.00  0.00    -0.090 HD
ATOM     20  H   LIG d   1      -3.614  88.617 117.236  0.00  0.00    -0.090 HD
ATOM     21  H   LIG d   1      -2.088  89.145 116.958  0.00  0.00    -0.090 HD
ENDBRANCH   5  18
BRANCH   3  22
ATOM     22  C   LIG d   1      -6.666  91.703 114.906  0.00  0.00     0.382 C 
ATOM     23  O   LIG d   1      -7.275  90.683 114.500  0.00  0.00    -0.241 OA
ATOM     24  O   LIG d   1      -6.952  92.818 114.430  0.00  0.00    -0.241 OA
ENDBRANCH   3  22
TORSDOF 7
ENDMDL
MODEL 9
REMARK VINA RESULT:      -4.7      2.315      3.577
REMARK  7 active torsions:
REMARK  status: ('A' for Active; 'I' for Inactive)
REMARK    1  A    between atoms: C_2  and  C_3 
REMARK    2  A    between atoms: C_3  and  O_6 
REMARK    3  A    between atoms: C_3  and  C_4 
REMARK    4  A    between atoms: C_7  and  O_6 
REMARK    5  A    between atoms: C_9  and  C_10 
REMARK    6  A    between atoms: N_15  and  C_14 
REMARK    7  A    between atoms: N_20  and  C_19 
REMARK       I    between atoms: C_22  and  N_20 
ROOT
ATOM      1  C   LIG d   1      -3.572  92.398 117.019  0.00  0.00     0.161 C 
ATOM      2  C   LIG d   1      -3.215  91.043 116.908  0.00  0.00     0.016 C 
ATOM      3  C   LIG d   1      -2.584  90.318 117.945  0.00  0.00     0.038 C 
ATOM      4  C   LIG d   1      -2.400  90.861 119.225  0.00  0.00     0.028 C 
ATOM      5  C   LIG d   1      -2.286  92.382 119.227  0.00  0.00    -0.047 C 
ATOM      6  C   LIG d   1      -3.481  92.976 118.446  0.00  0.00     0.091 C 
ENDROOT
BRANCH   1   7
ATOM      7  O   LIG d   1      -4.893  92.601 116.479  0.00  0.00    -0.368 OA
BRANCH   7   8
ATOM      8  C   LIG d   1      -5.961  91.852 117.110  0.00  0.00     0.119 C 
BRANCH   8   9
ATOM      9  C   LIG d   1      -6.674  91.046 116.008  0.00  0.00     0.028 C 
ATOM     10  C   LIG d   1      -6.266  91.494 114.594  0.00  0.00     0.006 C 
ENDBRANCH   8   9
BRANCH   8  11
ATOM     11  C   LIG d   1      -7.030  92.785 117.686  0.00  0.00     0.028 C 
ATOM     12  C   LIG d   1      -6.935  94.216 117.131  0.00  0.00     0.006 C 
ENDBRANCH   8  11
ENDBRANCH   7   8
ENDBRANCH   1   7
BRANCH   6  13
ATOM     13  N   LIG d   1      -3.401  94.455 118.328  0.00  0.00    -0.311 N 
ATOM     14  C   LIG d   1      -3.989  95.292 119.182  0.00  0.00     0.210 C 
ATOM     15  C   LIG d   1      -3.798  96.779 118.865  0.00  0.00     0.109 C 
ATOM     16  O   LIG d   1      -4.623  94.944 120.189  0.00  0.00    -0.276 OA
ATOM     17  H   LIG d   1      -2.880  94.824 117.557  0.00  0.00     0.149 HD
ENDBRANCH   6  13
BRANCH   5  18
ATOM     18  N   LIG d   1      -2.238  92.824 120.634  0.00  0.00     0.381 N 
ATOM     19  H   LIG d   1      -3.094  92.587 121.093  0.00  0.00    -0.090 HD
ATOM     20  H   LIG d   1      -2.133  93.823 120.657  0.00  0.00    -0.090 HD
ATOM     21  H   LIG d   1      -1.471  92.391 121.100  0.00  0.00    -0.090 HD
ENDBRANCH   5  18
BRANCH   3  22
ATOM     22  C   LIG d   1      -2.091  89.047 117.692  0.00  0.00     0.382 C 
ATOM     23  O   LIG d   1      -0.888  88.893 117.372  0.00  0.00    -0.241 OA
ATOM     24  O   LIG d   1      -2.845  88.057 117.737  0.00  0.00    -0.241 OA
ENDBRANCH   3  22
TORSDOF 7
ENDMDL
