MODEL 1
REMARK VINA RESULT:      -5.9      0.000      0.000
REMARK  7 active torsions:
REMARK  status: ('A' for Active; 'I' for Inactive)
REMARK    1  A    between atoms: C_2  and  C_3 
REMARK    2  A    between atoms: C_3  and  O_6 
REMARK    3  A    between atoms: C_3  and  C_4 
REMARK    4  A    between atoms: C_7  and  O_6 
REMARK    5  A    between atoms: C_9  and  C_10 
REMARK    6  A    between atoms: N_15  and  C_14 
REMARK    7  A    between atoms: N_20  and  C_19 
REMARK       I    between atoms: C_22  and  N_20 
ROOT
ATOM      1  C   LIG d   1      -5.840  92.576 117.213  0.00  0.00     0.161 C 
ATOM      2  C   LIG d   1      -6.937  91.796 116.811  0.00  0.00     0.016 C 
ATOM      3  C   LIG d   1      -6.831  90.434 116.446  0.00  0.00     0.038 C 
ATOM      4  C   LIG d   1      -5.638  89.714 116.606  0.00  0.00     0.028 C 
ATOM      5  C   LIG d   1      -4.389  90.586 116.529  0.00  0.00    -0.047 C 
ATOM      6  C   LIG d   1      -4.550  91.779 117.499  0.00  0.00     0.091 C 
ENDROOT
BRANCH   1   7
ATOM      7  O   LIG d   1      -6.201  93.373 118.358  0.00  0.00    -0.368 OA
BRANCH   7   8
ATOM      8  C   LIG d   1      -6.555  94.752 118.089  0.00  0.00     0.119 C 
BRANCH   8   9
ATOM      9  C   LIG d   1      -5.724  95.637 119.038  0.00  0.00     0.028 C 
ATOM     10  C   LIG d   1      -4.929  94.812 120.065  0.00  0.00     0.006 C 
ENDBRANCH   8   9
BRANCH   8  11
ATOM     11  C   LIG d   1      -8.017  95.032 118.449  0.00  0.00     0.028 C 
ATOM     12  C   LIG d   1      -8.645  93.918 119.301  0.00  0.00     0.006 C 
ENDBRANCH   8  11
ENDBRANCH   7   8
ENDBRANCH   1   7
BRANCH   6  13
ATOM     13  N   LIG d   1      -3.409  92.728 117.425  0.00  0.00    -0.311 N 
ATOM     14  C   LIG d   1      -2.365  92.686 118.252  0.00  0.00     0.210 C 
ATOM     15  C   LIG d   1      -1.308  93.769 118.014  0.00  0.00     0.109 C 
ATOM     16  O   LIG d   1      -2.199  91.835 119.139  0.00  0.00    -0.276 OA
ATOM     17  H   LIG d   1      -3.447  93.432 116.714  0.00  0.00     0.149 HD
ENDBRANCH   6  13
BRANCH   5  18
ATOM     18  N   LIG d   1      -3.229  89.733 116.848  0.00  0.00     0.381 N 
ATOM     19  H   LIG d   1      -3.479  89.074 117.558  0.00  0.00    -0.090 HD
ATOM     20  H   LIG d   1      -2.487  90.312 117.201  0.00  0.00    -0.090 HD
ATOM     21  H   LIG d   1      -2.925  89.252 116.031  0.00  0.00    -0.090 HD
ENDBRANCH   5  18
BRANCH   3  22
ATOM     22  C   LIG d   1      -7.919  89.788 115.878  0.00  0.00     0.382 C 
ATOM     23  O   LIG d   1      -8.423  90.226 114.816  0.00  0.00    -0.241 OA
ATOM     24  O   LIG d   1      -8.430  88.800 116.438  0.00  0.00    -0.241 OA
ENDBRANCH   3  22
TORSDOF 7
ENDMDL
MODEL 2
REMARK VINA RESULT:      -5.8      0.849      1.389
REMARK  7 active torsions:
REMARK  status: ('A' for Active; 'I' for Inactive)
REMARK    1  A    between atoms: C_2  and  C_3 
REMARK    2  A    between atoms: C_3  and  O_6 
REMARK    3  A    between atoms: C_3  and  C_4 
REMARK    4  A    between atoms: C_7  and  O_6 
REMARK    5  A    between atoms: C_9  and  C_10 
REMARK    6  A    between atoms: N_15  and  C_14 
REMARK    7  A    between atoms: N_20  and  C_19 
REMARK       I    between atoms: C_22  and  N_20 
ROOT
ATOM      1  C   LIG d   1      -5.734  92.539 117.206  0.00  0.00     0.161 C 
ATOM      2  C   LIG d   1      -6.854  91.787 116.815  0.00  0.00     0.016 C 
ATOM      3  C   LIG d   1      -6.786  90.426 116.441  0.00  0.00     0.038 C 
ATOM      4  C   LIG d   1      -5.608  89.677 116.578  0.00  0.00     0.028 C 
ATOM      5  C   LIG d   1      -4.341  90.520 116.489  0.00  0.00    -0.047 C 
ATOM      6  C   LIG d   1      -4.459  91.709 117.470  0.00  0.00     0.091 C 
ENDROOT
BRANCH   1   7
ATOM      7  O   LIG d   1      -6.059  93.336 118.362  0.00  0.00    -0.368 OA
BRANCH   7   8
ATOM      8  C   LIG d   1      -7.468  93.589 118.585  0.00  0.00     0.119 C 
BRANCH   8   9
ATOM      9  C   LIG d   1      -7.743  95.055 118.196  0.00  0.00     0.028 C 
ATOM     10  C   LIG d   1      -8.971  95.634 118.918  0.00  0.00     0.006 C 
ENDBRANCH   8   9
BRANCH   8  11
ATOM     11  C   LIG d   1      -7.824  93.491 120.071  0.00  0.00     0.028 C 
ATOM     12  C   LIG d   1      -6.592  93.276 120.965  0.00  0.00     0.006 C 
ENDBRANCH   8  11
ENDBRANCH   7   8
ENDBRANCH   1   7
BRANCH   6  13
ATOM     13  N   LIG d   1      -3.297  92.632 117.385  0.00  0.00    -0.311 N 
ATOM     14  C   LIG d   1      -2.240  92.555 118.192  0.00  0.00     0.210 C 
ATOM     15  C   LIG d   1      -1.162  93.615 117.947  0.00  0.00     0.109 C 
ATOM     16  O   LIG d   1      -2.078  91.690 119.066  0.00  0.00    -0.276 OA
ATOM     17  H   LIG d   1      -3.331  93.345 116.683  0.00  0.00     0.149 HD
ENDBRANCH   6  13
BRANCH   5  18
ATOM     18  N   LIG d   1      -3.197  89.637 116.787  0.00  0.00     0.381 N 
ATOM     19  H   LIG d   1      -3.526  88.769 117.159  0.00  0.00    -0.090 HD
ATOM     20  H   LIG d   1      -2.618  90.078 117.480  0.00  0.00    -0.090 HD
ATOM     21  H   LIG d   1      -2.669  89.473 115.958  0.00  0.00    -0.090 HD
ENDBRANCH   5  18
BRANCH   3  22
ATOM     22  C   LIG d   1      -7.897  89.810 115.884  0.00  0.00     0.382 C 
ATOM     23  O   LIG d   1      -8.416  90.277 114.841  0.00  0.00    -0.241 OA
ATOM     24  O   LIG d   1      -8.413  88.820 116.436  0.00  0.00    -0.241 OA
ENDBRANCH   3  22
TORSDOF 7
ENDMDL
MODEL 3
REMARK VINA RESULT:      -5.3      1.043      1.393
REMARK  7 active torsions:
REMARK  status: ('A' for Active; 'I' for Inactive)
REMARK    1  A    between atoms: C_2  and  C_3 
REMARK    2  A    between atoms: C_3  and  O_6 
REMARK    3  A    between atoms: C_3  and  C_4 
REMARK    4  A    between atoms: C_7  and  O_6 
REMARK    5  A    between atoms: C_9  and  C_10 
REMARK    6  A    between atoms: N_15  and  C_14 
REMARK    7  A    between atoms: N_20  and  C_19 
REMARK       I    between atoms: C_22  and  N_20 
ROOT
ATOM      1  C   LIG d   1      -6.048  92.398 117.936  0.00  0.00     0.161 C 
ATOM      2  C   LIG d   1      -7.058  91.582 117.401  0.00  0.00     0.016 C 
ATOM      3  C   LIG d   1      -6.801  90.369 116.723  0.00  0.00     0.038 C 
ATOM      4  C   LIG d   1      -5.516  89.810 116.665  0.00  0.00     0.028 C 
ATOM      5  C   LIG d   1      -4.400  90.846 116.751  0.00  0.00    -0.047 C 
ATOM      6  C   LIG d   1      -4.648  91.750 117.980  0.00  0.00     0.091 C 
ENDROOT
BRANCH   1   7
ATOM      7  O   LIG d   1      -6.431  92.853 119.249  0.00  0.00    -0.368 OA
BRANCH   7   8
ATOM      8  C   LIG d   1      -6.541  94.288 119.420  0.00  0.00     0.119 C 
BRANCH   8   9
ATOM      9  C   LIG d   1      -7.525  94.542 120.578  0.00  0.00     0.028 C 
ATOM     10  C   LIG d   1      -7.364  93.522 121.719  0.00  0.00     0.006 C 
ENDBRANCH   8   9
BRANCH   8  11
ATOM     11  C   LIG d   1      -7.180  94.947 118.194  0.00  0.00     0.028 C 
ATOM     12  C   LIG d   1      -8.706  95.085 118.319  0.00  0.00     0.006 C 
ENDBRANCH   8  11
ENDBRANCH   7   8
ENDBRANCH   1   7
BRANCH   6  13
ATOM     13  N   LIG d   1      -3.648  92.844 118.091  0.00  0.00    -0.311 N 
ATOM     14  C   LIG d   1      -2.841  92.996 119.139  0.00  0.00     0.210 C 
ATOM     15  C   LIG d   1      -1.899  94.202 119.059  0.00  0.00     0.109 C 
ATOM     16  O   LIG d   1      -2.792  92.229 120.112  0.00  0.00    -0.276 OA
ATOM     17  H   LIG d   1      -3.598  93.494 117.331  0.00  0.00     0.149 HD
ENDBRANCH   6  13
BRANCH   5  18
ATOM     18  N   LIG d   1      -3.119  90.117 116.819  0.00  0.00     0.381 N 
ATOM     19  H   LIG d   1      -2.368  90.729 116.571  0.00  0.00    -0.090 HD
ATOM     20  H   LIG d   1      -3.141  89.360 116.158  0.00  0.00    -0.090 HD
ATOM     21  H   LIG d   1      -2.978  89.760 117.738  0.00  0.00    -0.090 HD
ENDBRANCH   5  18
BRANCH   3  22
ATOM     22  C   LIG d   1      -7.831  89.721 116.058  0.00  0.00     0.382 C 
ATOM     23  O   LIG d   1      -8.587  88.939 116.684  0.00  0.00    -0.241 OA
ATOM     24  O   LIG d   1      -7.987  89.875 114.832  0.00  0.00    -0.241 OA
ENDBRANCH   3  22
TORSDOF 7
ENDMDL
MODEL 4
REMARK VINA RESULT:      -5.1      1.995      4.386
REMARK  7 active torsions:
REMARK  status: ('A' for Active; 'I' for Inactive)
REMARK    1  A    between atoms: C_2  and  C_3 
REMARK    2  A    between atoms: C_3  and  O_6 
REMARK    3  A    between atoms: C_3  and  C_4 
REMARK    4  A    between atoms: C_7  and  O_6 
REMARK    5  A    between atoms: C_9  and  C_10 
REMARK    6  A    between atoms: N_15  and  C_14 
REMARK    7  A    between atoms: N_20  and  C_19 
REMARK       I    between atoms: C_22  and  N_20 
ROOT
ATOM      1  C   LIG d   1      -4.365  91.798 117.808  0.00  0.00     0.161 C 
ATOM      2  C   LIG d   1      -4.607  90.862 116.789  0.00  0.00     0.016 C 
ATOM      3  C   LIG d   1      -5.816  90.802 116.058  0.00  0.00     0.038 C 
ATOM      4  C   LIG d   1      -6.814  91.778 116.195  0.00  0.00     0.028 C 
ATOM      5  C   LIG d   1      -6.825  92.445 117.567  0.00  0.00    -0.047 C 
ATOM      6  C   LIG d   1      -5.398  92.940 117.895  0.00  0.00     0.091 C 
ENDROOT
BRANCH   1   7
ATOM      7  O   LIG d   1      -3.034  92.335 117.672  0.00  0.00    -0.368 OA
BRANCH   7   8
ATOM      8  C   LIG d   1      -2.065  91.894 118.654  0.00  0.00     0.119 C 
BRANCH   8   9
ATOM      9  C   LIG d   1      -1.579  93.141 119.417  0.00  0.00     0.028 C 
ATOM     10  C   LIG d   1      -1.770  94.435 118.609  0.00  0.00     0.006 C 
ENDBRANCH   8   9
BRANCH   8  11
ATOM     11  C   LIG d   1      -0.815  91.315 117.984  0.00  0.00     0.028 C 
ATOM     12  C   LIG d   1      -0.962  89.826 117.634  0.00  0.00     0.006 C 
ENDBRANCH   8  11
ENDBRANCH   7   8
ENDBRANCH   1   7
BRANCH   6  13
ATOM     13  N   LIG d   1      -5.302  93.530 119.256  0.00  0.00    -0.311 N 
ATOM     14  C   LIG d   1      -5.431  94.833 119.501  0.00  0.00     0.210 C 
ATOM     15  C   LIG d   1      -5.278  95.232 120.972  0.00  0.00     0.109 C 
ATOM     16  O   LIG d   1      -5.691  95.691 118.645  0.00  0.00    -0.276 OA
ATOM     17  H   LIG d   1      -5.124  92.901 120.015  0.00  0.00     0.149 HD
ENDBRANCH   6  13
BRANCH   5  18
ATOM     18  N   LIG d   1      -7.820  93.533 117.526  0.00  0.00     0.381 N 
ATOM     19  H   LIG d   1      -7.362  94.415 117.642  0.00  0.00    -0.090 HD
ATOM     20  H   LIG d   1      -8.467  93.411 118.285  0.00  0.00    -0.090 HD
ATOM     21  H   LIG d   1      -8.308  93.516 116.658  0.00  0.00    -0.090 HD
ENDBRANCH   5  18
BRANCH   3  22
ATOM     22  C   LIG d   1      -6.052  89.733 115.207  0.00  0.00     0.382 C 
ATOM     23  O   LIG d   1      -5.133  88.918 114.954  0.00  0.00    -0.241 OA
ATOM     24  O   LIG d   1      -7.160  89.600 114.653  0.00  0.00    -0.241 OA
ENDBRANCH   3  22
TORSDOF 7
ENDMDL
MODEL 5
REMARK VINA RESULT:      -4.9      1.419      2.282
REMARK  7 active torsions:
REMARK  status: ('A' for Active; 'I' for Inactive)
REMARK    1  A    between atoms: C_2  and  C_3 
REMARK    2  A    between atoms: C_3  and  O_6 
REMARK    3  A    between atoms: C_3  and  C_4 
REMARK    4  A    between atoms: C_7  and  O_6 
REMARK    5  A    between atoms: C_9  and  C_10 
REMARK    6  A    between atoms: N_15  and  C_14 
REMARK    7  A    between atoms: N_20  and  C_19 
REMARK       I    between atoms: C_22  and  N_20 
ROOT
ATOM      1  C   LIG d   1      -6.294  92.791 118.162  0.00  0.00     0.161 C 
ATOM      2  C   LIG d   1      -6.937  91.883 117.304  0.00  0.00     0.016 C 
ATOM      3  C   LIG d   1      -6.244  90.944 116.506  0.00  0.00     0.038 C 
ATOM      4  C   LIG d   1      -4.861  90.746 116.627  0.00  0.00     0.028 C 
ATOM      5  C   LIG d   1      -4.111  91.983 117.109  0.00  0.00    -0.047 C 
ATOM      6  C   LIG d   1      -4.793  92.515 118.390  0.00  0.00     0.091 C 
ENDROOT
BRANCH   1   7
ATOM      7  O   LIG d   1      -6.990  92.848 119.423  0.00  0.00    -0.368 OA
BRANCH   7   8
ATOM      8  C   LIG d   1      -7.766  94.046 119.670  0.00  0.00     0.119 C 
BRANCH   8   9
ATOM      9  C   LIG d   1      -9.220  93.750 119.252  0.00  0.00     0.028 C 
ATOM     10  C   LIG d   1     -10.192  93.784 120.444  0.00  0.00     0.006 C 
ENDBRANCH   8   9
BRANCH   8  11
ATOM     11  C   LIG d   1      -7.312  95.199 118.770  0.00  0.00     0.028 C 
ATOM     12  C   LIG d   1      -6.630  96.333 119.553  0.00  0.00     0.006 C 
ENDBRANCH   8  11
ENDBRANCH   7   8
ENDBRANCH   1   7
BRANCH   6  13
ATOM     13  N   LIG d   1      -4.174  93.774 118.881  0.00  0.00    -0.311 N 
ATOM     14  C   LIG d   1      -3.222  93.808 119.812  0.00  0.00     0.210 C 
ATOM     15  C   LIG d   1      -2.735  95.211 120.188  0.00  0.00     0.109 C 
ATOM     16  O   LIG d   1      -2.712  92.807 120.338  0.00  0.00    -0.276 OA
ATOM     17  H   LIG d   1      -4.507  94.631 118.485  0.00  0.00     0.149 HD
ENDBRANCH   6  13
BRANCH   5  18
ATOM     18  N   LIG d   1      -2.704  91.597 117.321  0.00  0.00     0.381 N 
ATOM     19  H   LIG d   1      -2.099  92.320 116.984  0.00  0.00    -0.090 HD
ATOM     20  H   LIG d   1      -2.514  90.759 116.801  0.00  0.00    -0.090 HD
ATOM     21  H   LIG d   1      -2.536  91.440 118.291  0.00  0.00    -0.090 HD
ENDBRANCH   5  18
BRANCH   3  22
ATOM     22  C   LIG d   1      -6.933  90.218 115.546  0.00  0.00     0.382 C 
ATOM     23  O   LIG d   1      -6.383  89.237 114.989  0.00  0.00    -0.241 OA
ATOM     24  O   LIG d   1      -8.079  90.558 115.199  0.00  0.00    -0.241 OA
ENDBRANCH   3  22
TORSDOF 7
ENDMDL
MODEL 6
REMARK VINA RESULT:      -4.8      2.384      4.580
REMARK  7 active torsions:
REMARK  status: ('A' for Active; 'I' for Inactive)
REMARK    1  A    between atoms: C_2  and  C_3 
REMARK    2  A    between atoms: C_3  and  O_6 
REMARK    3  A    between atoms: C_3  and  C_4 
REMARK    4  A    between atoms: C_7  and  O_6 
REMARK    5  A    between atoms: C_9  and  C_10 
REMARK    6  A    between atoms: N_15  and  C_14 
REMARK    7  A    between atoms: N_20  and  C_19 
REMARK       I    between atoms: C_22  and  N_20 
ROOT
ATOM      1  C   LIG d   1      -4.214  90.870 117.996  0.00  0.00     0.161 C 
ATOM      2  C   LIG d   1      -5.204  90.280 117.193  0.00  0.00     0.016 C 
ATOM      3  C   LIG d   1      -6.328  90.983 116.702  0.00  0.00     0.038 C 
ATOM      4  C   LIG d   1      -6.461  92.370 116.858  0.00  0.00     0.028 C 
ATOM      5  C   LIG d   1      -5.745  92.914 118.089  0.00  0.00    -0.047 C 
ATOM      6  C   LIG d   1      -4.284  92.409 118.084  0.00  0.00     0.091 C 
ENDROOT
BRANCH   1   7
ATOM      7  O   LIG d   1      -2.909  90.453 117.549  0.00  0.00    -0.368 OA
BRANCH   7   8
ATOM      8  C   LIG d   1      -2.040  89.885 118.560  0.00  0.00     0.119 C 
BRANCH   8   9
ATOM      9  C   LIG d   1      -1.243  88.745 117.897  0.00  0.00     0.028 C 
ATOM     10  C   LIG d   1       0.016  89.252 117.173  0.00  0.00     0.006 C 
ENDBRANCH   8   9
BRANCH   8  11
ATOM     11  C   LIG d   1      -2.847  89.220 119.678  0.00  0.00     0.028 C 
ATOM     12  C   LIG d   1      -2.910  87.690 119.538  0.00  0.00     0.006 C 
ENDBRANCH   8  11
ENDBRANCH   7   8
ENDBRANCH   1   7
BRANCH   6  13
ATOM     13  N   LIG d   1      -3.536  92.826 119.298  0.00  0.00    -0.311 N 
ATOM     14  C   LIG d   1      -2.382  93.489 119.257  0.00  0.00     0.210 C 
ATOM     15  C   LIG d   1      -1.767  93.804 120.624  0.00  0.00     0.109 C 
ATOM     16  O   LIG d   1      -1.825  93.875 118.218  0.00  0.00    -0.276 OA
ATOM     17  H   LIG d   1      -3.932  92.581 120.184  0.00  0.00     0.149 HD
ENDBRANCH   6  13
BRANCH   5  18
ATOM     18  N   LIG d   1      -5.850  94.385 118.053  0.00  0.00     0.381 N 
ATOM     19  H   LIG d   1      -5.054  94.792 118.503  0.00  0.00    -0.090 HD
ATOM     20  H   LIG d   1      -6.674  94.665 118.555  0.00  0.00    -0.090 HD
ATOM     21  H   LIG d   1      -5.904  94.699 117.109  0.00  0.00    -0.090 HD
ENDBRANCH   5  18
BRANCH   3  22
ATOM     22  C   LIG d   1      -7.355  90.288 116.082  0.00  0.00     0.382 C 
ATOM     23  O   LIG d   1      -7.673  89.144 116.488  0.00  0.00    -0.241 OA
ATOM     24  O   LIG d   1      -7.938  90.772 115.093  0.00  0.00    -0.241 OA
ENDBRANCH   3  22
TORSDOF 7
ENDMDL
MODEL 7
REMARK VINA RESULT:      -4.4      2.102      2.748
REMARK  7 active torsions:
REMARK  status: ('A' for Active; 'I' for Inactive)
REMARK    1  A    between atoms: C_2  and  C_3 
REMARK    2  A    between atoms: C_3  and  O_6 
REMARK    3  A    between atoms: C_3  and  C_4 
REMARK    4  A    between atoms: C_7  and  O_6 
REMARK    5  A    between atoms: C_9  and  C_10 
REMARK    6  A    between atoms: N_15  and  C_14 
REMARK    7  A    between atoms: N_20  and  C_19 
REMARK       I    between atoms: C_22  and  N_20 
ROOT
ATOM      1  C   LIG d   1      -3.608  92.155 117.852  0.00  0.00     0.161 C 
ATOM      2  C   LIG d   1      -4.591  92.019 116.858  0.00  0.00     0.016 C 
ATOM      3  C   LIG d   1      -4.959  90.776 116.292  0.00  0.00     0.038 C 
ATOM      4  C   LIG d   1      -4.473  89.560 116.794  0.00  0.00     0.028 C 
ATOM      5  C   LIG d   1      -3.104  89.681 117.455  0.00  0.00    -0.047 C 
ATOM      6  C   LIG d   1      -3.147  90.828 118.491  0.00  0.00     0.091 C 
ENDROOT
BRANCH   1   7
ATOM      7  O   LIG d   1      -4.066  93.067 118.870  0.00  0.00    -0.368 OA
BRANCH   7   8
ATOM      8  C   LIG d   1      -5.464  92.966 119.235  0.00  0.00     0.119 C 
BRANCH   8   9
ATOM      9  C   LIG d   1      -6.036  94.396 119.281  0.00  0.00     0.028 C 
ATOM     10  C   LIG d   1      -7.078  94.647 118.179  0.00  0.00     0.006 C 
ENDBRANCH   8   9
BRANCH   8  11
ATOM     11  C   LIG d   1      -5.630  92.417 120.655  0.00  0.00     0.028 C 
ATOM     12  C   LIG d   1      -5.058  93.356 121.728  0.00  0.00     0.006 C 
ENDBRANCH   8  11
ENDBRANCH   7   8
ENDBRANCH   1   7
BRANCH   6  13
ATOM     13  N   LIG d   1      -1.824  91.069 119.124  0.00  0.00    -0.311 N 
ATOM     14  C   LIG d   1      -1.617  91.002 120.438  0.00  0.00     0.210 C 
ATOM     15  C   LIG d   1      -0.183  91.306 120.883  0.00  0.00     0.109 C 
ATOM     16  O   LIG d   1      -2.477  90.687 121.274  0.00  0.00    -0.276 OA
ATOM     17  H   LIG d   1      -1.063  91.300 118.516  0.00  0.00     0.149 HD
ENDBRANCH   6  13
BRANCH   5  18
ATOM     18  N   LIG d   1      -2.781  88.373 118.054  0.00  0.00     0.381 N 
ATOM     19  H   LIG d   1      -3.410  88.180 118.807  0.00  0.00    -0.090 HD
ATOM     20  H   LIG d   1      -1.847  88.406 118.424  0.00  0.00    -0.090 HD
ATOM     21  H   LIG d   1      -2.847  87.656 117.364  0.00  0.00    -0.090 HD
ENDBRANCH   5  18
BRANCH   3  22
ATOM     22  C   LIG d   1      -5.793  90.746 115.185  0.00  0.00     0.382 C 
ATOM     23  O   LIG d   1      -6.434  89.702 114.911  0.00  0.00    -0.241 OA
ATOM     24  O   LIG d   1      -5.878  91.734 114.431  0.00  0.00    -0.241 OA
ENDBRANCH   3  22
TORSDOF 7
ENDMDL
MODEL 8
REMARK VINA RESULT:      -4.2      2.131      3.597
REMARK  7 active torsions:
REMARK  status: ('A' for Active; 'I' for Inactive)
REMARK    1  A    between atoms: C_2  and  C_3 
REMARK    2  A    between atoms: C_3  and  O_6 
REMARK    3  A    between atoms: C_3  and  C_4 
REMARK    4  A    between atoms: C_7  and  O_6 
REMARK    5  A    between atoms: C_9  and  C_10 
REMARK    6  A    between atoms: N_15  and  C_14 
REMARK    7  A    between atoms: N_20  and  C_19 
REMARK       I    between atoms: C_22  and  N_20 
ROOT
ATOM      1  C   LIG d   1      -3.367  92.374 117.992  0.00  0.00     0.161 C 
ATOM      2  C   LIG d   1      -4.737  92.623 117.801  0.00  0.00     0.016 C 
ATOM      3  C   LIG d   1      -5.652  91.639 117.361  0.00  0.00     0.038 C 
ATOM      4  C   LIG d   1      -5.285  90.292 117.226  0.00  0.00     0.028 C 
ATOM      5  C   LIG d   1      -3.804  90.096 116.921  0.00  0.00    -0.047 C 
ATOM      6  C   LIG d   1      -2.970  90.883 117.956  0.00  0.00     0.091 C 
ENDROOT
BRANCH   1   7
ATOM      7  O   LIG d   1      -2.927  92.980 119.223  0.00  0.00    -0.368 OA
BRANCH   7   8
ATOM      8  C   LIG d   1      -2.475  94.354 119.131  0.00  0.00     0.119 C 
BRANCH   8   9
ATOM      9  C   LIG d   1      -1.290  94.386 118.146  0.00  0.00     0.028 C 
ATOM     10  C   LIG d   1       0.002  94.903 118.800  0.00  0.00     0.006 C 
ENDBRANCH   8   9
BRANCH   8  11
ATOM     11  C   LIG d   1      -1.906  94.844 120.466  0.00  0.00     0.028 C 
ATOM     12  C   LIG d   1      -2.951  95.568 121.329  0.00  0.00     0.006 C 
ENDBRANCH   8  11
ENDBRANCH   7   8
ENDBRANCH   1   7
BRANCH   6  13
ATOM     13  N   LIG d   1      -1.511  90.813 117.680  0.00  0.00    -0.311 N 
ATOM     14  C   LIG d   1      -0.702  89.913 118.235  0.00  0.00     0.210 C 
ATOM     15  C   LIG d   1       0.771  90.029 117.829  0.00  0.00     0.109 C 
ATOM     16  O   LIG d   1      -1.069  89.009 119.000  0.00  0.00    -0.276 OA
ATOM     17  H   LIG d   1      -1.134  91.490 117.046  0.00  0.00     0.149 HD
ENDBRANCH   6  13
BRANCH   5  18
ATOM     18  N   LIG d   1      -3.533  88.646 116.942  0.00  0.00     0.381 N 
ATOM     19  H   LIG d   1      -4.088  88.208 117.650  0.00  0.00    -0.090 HD
ATOM     20  H   LIG d   1      -2.565  88.499 117.165  0.00  0.00    -0.090 HD
ATOM     21  H   LIG d   1      -3.742  88.247 116.053  0.00  0.00    -0.090 HD
ENDBRANCH   5  18
BRANCH   3  22
ATOM     22  C   LIG d   1      -6.943  92.009 117.013  0.00  0.00     0.382 C 
ATOM     23  O   LIG d   1      -7.611  92.747 117.776  0.00  0.00    -0.241 OA
ATOM     24  O   LIG d   1      -7.463  91.577 115.967  0.00  0.00    -0.241 OA
ENDBRANCH   3  22
TORSDOF 7
ENDMDL
MODEL 9
REMARK VINA RESULT:      -4.1      1.660      4.959
REMARK  7 active torsions:
REMARK  status: ('A' for Active; 'I' for Inactive)
REMARK    1  A    between atoms: C_2  and  C_3 
REMARK    2  A    between atoms: C_3  and  O_6 
REMARK    3  A    between atoms: C_3  and  C_4 
REMARK    4  A    between atoms: C_7  and  O_6 
REMARK    5  A    between atoms: C_9  and  C_10 
REMARK    6  A    between atoms: N_15  and  C_14 
REMARK    7  A    between atoms: N_20  and  C_19 
REMARK       I    between atoms: C_22  and  N_20 
ROOT
ATOM      1  C   LIG d   1      -5.792  91.883 119.111  0.00  0.00     0.161 C 
ATOM      2  C   LIG d   1      -4.605  92.392 119.665  0.00  0.00     0.016 C 
ATOM      3  C   LIG d   1      -3.322  92.130 119.132  0.00  0.00     0.038 C 
ATOM      4  C   LIG d   1      -3.149  91.460 117.912  0.00  0.00     0.028 C 
ATOM      5  C   LIG d   1      -4.284  90.496 117.584  0.00  0.00    -0.047 C 
ATOM      6  C   LIG d   1      -5.631  91.242 117.717  0.00  0.00     0.091 C 
ENDROOT
BRANCH   1   7
ATOM      7  O   LIG d   1      -6.797  92.915 119.076  0.00  0.00    -0.368 OA
BRANCH   7   8
ATOM      8  C   LIG d   1      -6.868  93.775 120.240  0.00  0.00     0.119 C 
BRANCH   8   9
ATOM      9  C   LIG d   1      -8.234  93.532 120.912  0.00  0.00     0.028 C 
ATOM     10  C   LIG d   1      -9.413  93.876 119.987  0.00  0.00     0.006 C 
ENDBRANCH   8   9
BRANCH   8  11
ATOM     11  C   LIG d   1      -6.870  95.254 119.841  0.00  0.00     0.028 C 
ATOM     12  C   LIG d   1      -6.087  95.523 118.547  0.00  0.00     0.006 C 
ENDBRANCH   8  11
ENDBRANCH   7   8
ENDBRANCH   1   7
BRANCH   6  13
ATOM     13  N   LIG d   1      -6.798  90.349 117.495  0.00  0.00    -0.311 N 
ATOM     14  C   LIG d   1      -7.370  90.173 116.305  0.00  0.00     0.210 C 
ATOM     15  C   LIG d   1      -8.574  89.225 116.301  0.00  0.00     0.109 C 
ATOM     16  O   LIG d   1      -6.976  90.686 115.247  0.00  0.00    -0.276 OA
ATOM     17  H   LIG d   1      -7.164  89.869 118.294  0.00  0.00     0.149 HD
ENDBRANCH   6  13
BRANCH   5  18
ATOM     18  N   LIG d   1      -4.045  89.972 116.226  0.00  0.00     0.381 N 
ATOM     19  H   LIG d   1      -3.064  89.842 116.081  0.00  0.00    -0.090 HD
ATOM     20  H   LIG d   1      -4.377  90.643 115.555  0.00  0.00    -0.090 HD
ATOM     21  H   LIG d   1      -4.524  89.106 116.105  0.00  0.00    -0.090 HD
ENDBRANCH   5  18
BRANCH   3  22
ATOM     22  C   LIG d   1      -2.193  92.506 119.843  0.00  0.00     0.382 C 
ATOM     23  O   LIG d   1      -2.305  93.226 120.864  0.00  0.00    -0.241 OA
ATOM     24  O   LIG d   1      -1.059  92.171 119.451  0.00  0.00    -0.241 OA
ENDBRANCH   3  22
TORSDOF 7
ENDMDL
