MODEL 1
REMARK VINA RESULT:      -5.6      0.000      0.000
REMARK  7 active torsions:
REMARK  status: ('A' for Active; 'I' for Inactive)
REMARK    1  A    between atoms: C_2  and  C_3 
REMARK    2  A    between atoms: C_3  and  O_6 
REMARK    3  A    between atoms: C_3  and  C_4 
REMARK    4  A    between atoms: C_7  and  O_6 
REMARK    5  A    between atoms: C_9  and  C_10 
REMARK    6  A    between atoms: N_15  and  C_14 
REMARK    7  A    between atoms: N_20  and  C_19 
REMARK       I    between atoms: C_22  and  N_20 
ROOT
ATOM      1  C   LIG d   1      -4.829  91.990 118.043  0.00  0.00     0.161 C 
ATOM      2  C   LIG d   1      -5.238  91.165 116.982  0.00  0.00     0.016 C 
ATOM      3  C   LIG d   1      -6.159  91.573 115.990  0.00  0.00     0.038 C 
ATOM      4  C   LIG d   1      -6.621  92.894 115.906  0.00  0.00     0.028 C 
ATOM      5  C   LIG d   1      -6.627  93.621 117.247  0.00  0.00    -0.047 C 
ATOM      6  C   LIG d   1      -5.236  93.471 117.905  0.00  0.00     0.091 C 
ENDROOT
BRANCH   1   7
ATOM      7  O   LIG d   1      -3.403  91.877 118.228  0.00  0.00    -0.368 OA
BRANCH   7   8
ATOM      8  C   LIG d   1      -2.954  90.789 119.071  0.00  0.00     0.119 C 
BRANCH   8   9
ATOM      9  C   LIG d   1      -2.235  91.410 120.284  0.00  0.00     0.028 C 
ATOM     10  C   LIG d   1      -1.817  92.869 120.035  0.00  0.00     0.006 C 
ENDBRANCH   8   9
BRANCH   8  11
ATOM     11  C   LIG d   1      -1.895  89.937 118.365  0.00  0.00     0.028 C 
ATOM     12  C   LIG d   1      -2.419  88.549 117.961  0.00  0.00     0.006 C 
ENDBRANCH   8  11
ENDBRANCH   7   8
ENDBRANCH   1   7
BRANCH   6  13
ATOM     13  N   LIG d   1      -5.181  94.082 119.259  0.00  0.00    -0.311 N 
ATOM     14  C   LIG d   1      -4.746  95.319 119.488  0.00  0.00     0.210 C 
ATOM     15  C   LIG d   1      -4.754  95.745 120.960  0.00  0.00     0.109 C 
ATOM     16  O   LIG d   1      -4.385  96.116 118.609  0.00  0.00    -0.276 OA
ATOM     17  H   LIG d   1      -5.485  93.515 120.027  0.00  0.00     0.149 HD
ENDBRANCH   6  13
BRANCH   5  18
ATOM     18  N   LIG d   1      -6.998  95.025 116.991  0.00  0.00     0.381 N 
ATOM     19  H   LIG d   1      -6.220  95.515 116.597  0.00  0.00    -0.090 HD
ATOM     20  H   LIG d   1      -7.236  95.463 117.864  0.00  0.00    -0.090 HD
ATOM     21  H   LIG d   1      -7.775  95.065 116.368  0.00  0.00    -0.090 HD
ENDBRANCH   5  18
BRANCH   3  22
ATOM     22  C   LIG d   1      -6.658  90.642 115.092  0.00  0.00     0.382 C 
ATOM     23  O   LIG d   1      -7.692  90.901 114.430  0.00  0.00    -0.241 OA
ATOM     24  O   LIG d   1      -6.113  89.529 114.967  0.00  0.00    -0.241 OA
ENDBRANCH   3  22
TORSDOF 7
ENDMDL
MODEL 2
REMARK VINA RESULT:      -5.5      2.420      4.734
REMARK  7 active torsions:
REMARK  status: ('A' for Active; 'I' for Inactive)
REMARK    1  A    between atoms: C_2  and  C_3 
REMARK    2  A    between atoms: C_3  and  O_6 
REMARK    3  A    between atoms: C_3  and  C_4 
REMARK    4  A    between atoms: C_7  and  O_6 
REMARK    5  A    between atoms: C_9  and  C_10 
REMARK    6  A    between atoms: N_15  and  C_14 
REMARK    7  A    between atoms: N_20  and  C_19 
REMARK       I    between atoms: C_22  and  N_20 
ROOT
ATOM      1  C   LIG d   1      -7.059  94.046 117.089  0.00  0.00     0.161 C 
ATOM      2  C   LIG d   1      -7.477  92.854 116.475  0.00  0.00     0.016 C 
ATOM      3  C   LIG d   1      -6.707  91.668 116.474  0.00  0.00     0.038 C 
ATOM      4  C   LIG d   1      -5.527  91.549 117.223  0.00  0.00     0.028 C 
ATOM      5  C   LIG d   1      -4.814  92.879 117.445  0.00  0.00    -0.047 C 
ATOM      6  C   LIG d   1      -5.826  93.904 118.006  0.00  0.00     0.091 C 
ENDROOT
BRANCH   1   7
ATOM      7  O   LIG d   1      -8.158  94.632 117.815  0.00  0.00    -0.368 OA
BRANCH   7   8
ATOM      8  C   LIG d   1      -8.277  94.252 119.208  0.00  0.00     0.119 C 
BRANCH   8   9
ATOM      9  C   LIG d   1      -9.545  93.387 119.346  0.00  0.00     0.028 C 
ATOM     10  C   LIG d   1     -10.455  93.859 120.492  0.00  0.00     0.006 C 
ENDBRANCH   8   9
BRANCH   8  11
ATOM     11  C   LIG d   1      -8.520  95.473 120.100  0.00  0.00     0.028 C 
ATOM     12  C   LIG d   1      -8.310  96.803 119.359  0.00  0.00     0.006 C 
ENDBRANCH   8  11
ENDBRANCH   7   8
ENDBRANCH   1   7
BRANCH   6  13
ATOM     13  N   LIG d   1      -5.231  95.255 118.172  0.00  0.00    -0.311 N 
ATOM     14  C   LIG d   1      -4.798  95.727 119.340  0.00  0.00     0.210 C 
ATOM     15  C   LIG d   1      -4.238  97.152 119.294  0.00  0.00     0.109 C 
ATOM     16  O   LIG d   1      -4.795  95.088 120.403  0.00  0.00    -0.276 OA
ATOM     17  H   LIG d   1      -5.167  95.829 117.354  0.00  0.00     0.149 HD
ENDBRANCH   6  13
BRANCH   5  18
ATOM     18  N   LIG d   1      -3.679  92.630 118.353  0.00  0.00     0.381 N 
ATOM     19  H   LIG d   1      -4.018  92.444 119.276  0.00  0.00    -0.090 HD
ATOM     20  H   LIG d   1      -3.104  93.454 118.389  0.00  0.00    -0.090 HD
ATOM     21  H   LIG d   1      -3.143  91.857 118.026  0.00  0.00    -0.090 HD
ENDBRANCH   5  18
BRANCH   3  22
ATOM     22  C   LIG d   1      -7.097  90.596 115.685  0.00  0.00     0.382 C 
ATOM     23  O   LIG d   1      -7.696  90.800 114.602  0.00  0.00    -0.241 OA
ATOM     24  O   LIG d   1      -6.896  89.426 116.064  0.00  0.00    -0.241 OA
ENDBRANCH   3  22
TORSDOF 7
ENDMDL
MODEL 3
REMARK VINA RESULT:      -5.5      0.940      1.758
REMARK  7 active torsions:
REMARK  status: ('A' for Active; 'I' for Inactive)
REMARK    1  A    between atoms: C_2  and  C_3 
REMARK    2  A    between atoms: C_3  and  O_6 
REMARK    3  A    between atoms: C_3  and  C_4 
REMARK    4  A    between atoms: C_7  and  O_6 
REMARK    5  A    between atoms: C_9  and  C_10 
REMARK    6  A    between atoms: N_15  and  C_14 
REMARK    7  A    between atoms: N_20  and  C_19 
REMARK       I    between atoms: C_22  and  N_20 
ROOT
ATOM      1  C   LIG d   1      -5.078  92.395 117.844  0.00  0.00     0.161 C 
ATOM      2  C   LIG d   1      -5.313  91.443 116.837  0.00  0.00     0.016 C 
ATOM      3  C   LIG d   1      -6.384  91.531 115.918  0.00  0.00     0.038 C 
ATOM      4  C   LIG d   1      -7.208  92.664 115.846  0.00  0.00     0.028 C 
ATOM      5  C   LIG d   1      -7.321  93.416 117.168  0.00  0.00    -0.047 C 
ATOM      6  C   LIG d   1      -5.900  93.694 117.710  0.00  0.00     0.091 C 
ENDROOT
BRANCH   1   7
ATOM      7  O   LIG d   1      -3.670  92.697 117.910  0.00  0.00    -0.368 OA
BRANCH   7   8
ATOM      8  C   LIG d   1      -2.971  92.220 119.086  0.00  0.00     0.119 C 
BRANCH   8   9
ATOM      9  C   LIG d   1      -2.063  91.056 118.643  0.00  0.00     0.028 C 
ATOM     10  C   LIG d   1      -2.698  89.681 118.912  0.00  0.00     0.006 C 
ENDBRANCH   8   9
BRANCH   8  11
ATOM     11  C   LIG d   1      -3.941  91.613 120.103  0.00  0.00     0.028 C 
ATOM     12  C   LIG d   1      -3.955  92.372 121.440  0.00  0.00     0.006 C 
ENDBRANCH   8  11
ENDBRANCH   7   8
ENDBRANCH   1   7
BRANCH   6  13
ATOM     13  N   LIG d   1      -5.921  94.352 119.043  0.00  0.00    -0.311 N 
ATOM     14  C   LIG d   1      -5.143  95.384 119.362  0.00  0.00     0.210 C 
ATOM     15  C   LIG d   1      -5.308  95.899 120.795  0.00  0.00     0.109 C 
ATOM     16  O   LIG d   1      -4.354  95.943 118.585  0.00  0.00    -0.276 OA
ATOM     17  H   LIG d   1      -6.554  93.982 119.725  0.00  0.00     0.149 HD
ENDBRANCH   6  13
BRANCH   5  18
ATOM     18  N   LIG d   1      -8.095  94.646 116.917  0.00  0.00     0.381 N 
ATOM     19  H   LIG d   1      -8.082  95.227 117.731  0.00  0.00    -0.090 HD
ATOM     20  H   LIG d   1      -9.048  94.396 116.723  0.00  0.00    -0.090 HD
ATOM     21  H   LIG d   1      -7.709  95.139 116.142  0.00  0.00    -0.090 HD
ENDBRANCH   5  18
BRANCH   3  22
ATOM     22  C   LIG d   1      -6.663  90.460 115.083  0.00  0.00     0.382 C 
ATOM     23  O   LIG d   1      -7.735  90.435 114.432  0.00  0.00    -0.241 OA
ATOM     24  O   LIG d   1      -5.876  89.497 115.006  0.00  0.00    -0.241 OA
ENDBRANCH   3  22
TORSDOF 7
ENDMDL
MODEL 4
REMARK VINA RESULT:      -5.3      1.445      1.678
REMARK  7 active torsions:
REMARK  status: ('A' for Active; 'I' for Inactive)
REMARK    1  A    between atoms: C_2  and  C_3 
REMARK    2  A    between atoms: C_3  and  O_6 
REMARK    3  A    between atoms: C_3  and  C_4 
REMARK    4  A    between atoms: C_7  and  O_6 
REMARK    5  A    between atoms: C_9  and  C_10 
REMARK    6  A    between atoms: N_15  and  C_14 
REMARK    7  A    between atoms: N_20  and  C_19 
REMARK       I    between atoms: C_22  and  N_20 
ROOT
ATOM      1  C   LIG d   1      -5.234  92.388 117.936  0.00  0.00     0.161 C 
ATOM      2  C   LIG d   1      -5.172  91.321 117.024  0.00  0.00     0.016 C 
ATOM      3  C   LIG d   1      -6.119  91.122 115.993  0.00  0.00     0.038 C 
ATOM      4  C   LIG d   1      -7.115  92.068 115.708  0.00  0.00     0.028 C 
ATOM      5  C   LIG d   1      -7.521  92.903 116.918  0.00  0.00    -0.047 C 
ATOM      6  C   LIG d   1      -6.250  93.491 117.571  0.00  0.00     0.091 C 
ENDROOT
BRANCH   1   7
ATOM      7  O   LIG d   1      -3.921  92.954 118.115  0.00  0.00    -0.368 OA
BRANCH   7   8
ATOM      8  C   LIG d   1      -3.084  92.319 119.112  0.00  0.00     0.119 C 
BRANCH   8   9
ATOM      9  C   LIG d   1      -2.738  93.383 120.172  0.00  0.00     0.028 C 
ATOM     10  C   LIG d   1      -1.236  93.417 120.501  0.00  0.00     0.006 C 
ENDBRANCH   8   9
BRANCH   8  11
ATOM     11  C   LIG d   1      -1.740  91.887 118.518  0.00  0.00     0.028 C 
ATOM     12  C   LIG d   1      -1.699  90.392 118.163  0.00  0.00     0.006 C 
ENDBRANCH   8  11
ENDBRANCH   7   8
ENDBRANCH   1   7
BRANCH   6  13
ATOM     13  N   LIG d   1      -6.550  94.253 118.811  0.00  0.00    -0.311 N 
ATOM     14  C   LIG d   1      -6.794  95.563 118.826  0.00  0.00     0.210 C 
ATOM     15  C   LIG d   1      -7.061  96.155 120.214  0.00  0.00     0.109 C 
ATOM     16  O   LIG d   1      -6.846  96.284 117.819  0.00  0.00    -0.276 OA
ATOM     17  H   LIG d   1      -6.559  93.740 119.671  0.00  0.00     0.149 HD
ENDBRANCH   6  13
BRANCH   5  18
ATOM     18  N   LIG d   1      -8.462  93.938 116.449  0.00  0.00     0.381 N 
ATOM     19  H   LIG d   1      -9.335  93.515 116.204  0.00  0.00    -0.090 HD
ATOM     20  H   LIG d   1      -8.082  94.375 115.629  0.00  0.00    -0.090 HD
ATOM     21  H   LIG d   1      -8.603  94.619 117.163  0.00  0.00    -0.090 HD
ENDBRANCH   5  18
BRANCH   3  22
ATOM     22  C   LIG d   1      -6.100  89.945 115.260  0.00  0.00     0.382 C 
ATOM     23  O   LIG d   1      -5.151  89.136 115.398  0.00  0.00    -0.241 OA
ATOM     24  O   LIG d   1      -6.996  89.703 114.430  0.00  0.00    -0.241 OA
ENDBRANCH   3  22
TORSDOF 7
ENDMDL
MODEL 5
REMARK VINA RESULT:      -5.0      1.570      4.914
REMARK  7 active torsions:
REMARK  status: ('A' for Active; 'I' for Inactive)
REMARK    1  A    between atoms: C_2  and  C_3 
REMARK    2  A    between atoms: C_3  and  O_6 
REMARK    3  A    between atoms: C_3  and  C_4 
REMARK    4  A    between atoms: C_7  and  O_6 
REMARK    5  A    between atoms: C_9  and  C_10 
REMARK    6  A    between atoms: N_15  and  C_14 
REMARK    7  A    between atoms: N_20  and  C_19 
REMARK       I    between atoms: C_22  and  N_20 
ROOT
ATOM      1  C   LIG d   1      -4.723  92.883 117.843  0.00  0.00     0.161 C 
ATOM      2  C   LIG d   1      -4.491  93.950 118.727  0.00  0.00     0.016 C 
ATOM      3  C   LIG d   1      -5.404  95.012 118.920  0.00  0.00     0.038 C 
ATOM      4  C   LIG d   1      -6.686  95.001 118.351  0.00  0.00     0.028 C 
ATOM      5  C   LIG d   1      -6.767  94.199 117.057  0.00  0.00    -0.047 C 
ATOM      6  C   LIG d   1      -6.164  92.796 117.297  0.00  0.00     0.091 C 
ENDROOT
BRANCH   1   7
ATOM      7  O   LIG d   1      -4.349  91.640 118.469  0.00  0.00    -0.368 OA
BRANCH   7   8
ATOM      8  C   LIG d   1      -3.063  91.094 118.085  0.00  0.00     0.119 C 
BRANCH   8   9
ATOM      9  C   LIG d   1      -3.305  89.670 117.549  0.00  0.00     0.028 C 
ATOM     10  C   LIG d   1      -2.201  88.687 117.975  0.00  0.00     0.006 C 
ENDBRANCH   8   9
BRANCH   8  11
ATOM     11  C   LIG d   1      -2.146  90.920 119.300  0.00  0.00     0.028 C 
ATOM     12  C   LIG d   1      -1.103  92.042 119.424  0.00  0.00     0.006 C 
ENDBRANCH   8  11
ENDBRANCH   7   8
ENDBRANCH   1   7
BRANCH   6  13
ATOM     13  N   LIG d   1      -6.127  91.975 116.059  0.00  0.00    -0.311 N 
ATOM     14  C   LIG d   1      -6.539  90.710 116.006  0.00  0.00     0.210 C 
ATOM     15  C   LIG d   1      -6.396  90.040 114.635  0.00  0.00     0.109 C 
ATOM     16  O   LIG d   1      -7.040  90.089 116.955  0.00  0.00    -0.276 OA
ATOM     17  H   LIG d   1      -5.765  92.411 115.233  0.00  0.00     0.149 HD
ENDBRANCH   6  13
BRANCH   5  18
ATOM     18  N   LIG d   1      -8.184  94.157 116.647  0.00  0.00     0.381 N 
ATOM     19  H   LIG d   1      -8.729  94.739 117.251  0.00  0.00    -0.090 HD
ATOM     20  H   LIG d   1      -8.518  93.213 116.731  0.00  0.00    -0.090 HD
ATOM     21  H   LIG d   1      -8.275  94.466 115.704  0.00  0.00    -0.090 HD
ENDBRANCH   5  18
BRANCH   3  22
ATOM     22  C   LIG d   1      -5.021  96.121 119.659  0.00  0.00     0.382 C 
ATOM     23  O   LIG d   1      -3.843  96.547 119.587  0.00  0.00    -0.241 OA
ATOM     24  O   LIG d   1      -5.826  96.674 120.432  0.00  0.00    -0.241 OA
ENDBRANCH   3  22
TORSDOF 7
ENDMDL
MODEL 6
REMARK VINA RESULT:      -5.0      2.552      3.334
REMARK  7 active torsions:
REMARK  status: ('A' for Active; 'I' for Inactive)
REMARK    1  A    between atoms: C_2  and  C_3 
REMARK    2  A    between atoms: C_3  and  O_6 
REMARK    3  A    between atoms: C_3  and  C_4 
REMARK    4  A    between atoms: C_7  and  O_6 
REMARK    5  A    between atoms: C_9  and  C_10 
REMARK    6  A    between atoms: N_15  and  C_14 
REMARK    7  A    between atoms: N_20  and  C_19 
REMARK       I    between atoms: C_22  and  N_20 
ROOT
ATOM      1  C   LIG d   1      -6.866  92.130 119.109  0.00  0.00     0.161 C 
ATOM      2  C   LIG d   1      -6.487  91.357 117.998  0.00  0.00     0.016 C 
ATOM      3  C   LIG d   1      -6.797  91.707 116.664  0.00  0.00     0.038 C 
ATOM      4  C   LIG d   1      -7.382  92.940 116.338  0.00  0.00     0.028 C 
ATOM      5  C   LIG d   1      -8.235  93.522 117.460  0.00  0.00    -0.047 C 
ATOM      6  C   LIG d   1      -7.407  93.534 118.765  0.00  0.00     0.091 C 
ENDROOT
BRANCH   1   7
ATOM      7  O   LIG d   1      -5.766  92.230 120.034  0.00  0.00    -0.368 OA
BRANCH   7   8
ATOM      8  C   LIG d   1      -4.440  92.241 119.449  0.00  0.00     0.119 C 
BRANCH   8   9
ATOM      9  C   LIG d   1      -3.535  91.367 120.338  0.00  0.00     0.028 C 
ATOM     10  C   LIG d   1      -2.136  91.164 119.732  0.00  0.00     0.006 C 
ENDBRANCH   8   9
BRANCH   8  11
ATOM     11  C   LIG d   1      -3.823  93.642 119.493  0.00  0.00     0.028 C 
ATOM     12  C   LIG d   1      -4.306  94.468 120.696  0.00  0.00     0.006 C 
ENDBRANCH   8  11
ENDBRANCH   7   8
ENDBRANCH   1   7
BRANCH   6  13
ATOM     13  N   LIG d   1      -8.196  94.010 119.932  0.00  0.00    -0.311 N 
ATOM     14  C   LIG d   1      -9.468  93.678 120.141  0.00  0.00     0.210 C 
ATOM     15  C   LIG d   1     -10.099  94.294 121.394  0.00  0.00     0.109 C 
ATOM     16  O   LIG d   1     -10.125  92.905 119.427  0.00  0.00    -0.276 OA
ATOM     17  H   LIG d   1      -7.731  94.616 120.579  0.00  0.00     0.149 HD
ENDBRANCH   6  13
BRANCH   5  18
ATOM     18  N   LIG d   1      -8.669  94.867 117.038  0.00  0.00     0.381 N 
ATOM     19  H   LIG d   1      -7.998  95.548 117.334  0.00  0.00    -0.090 HD
ATOM     20  H   LIG d   1      -9.548  95.078 117.477  0.00  0.00    -0.090 HD
ATOM     21  H   LIG d   1      -8.769  94.898 116.047  0.00  0.00    -0.090 HD
ENDBRANCH   5  18
BRANCH   3  22
ATOM     22  C   LIG d   1      -6.558  90.801 115.643  0.00  0.00     0.382 C 
ATOM     23  O   LIG d   1      -6.400  89.585 115.908  0.00  0.00    -0.241 OA
ATOM     24  O   LIG d   1      -6.455  91.190 114.464  0.00  0.00    -0.241 OA
ENDBRANCH   3  22
TORSDOF 7
ENDMDL
MODEL 7
REMARK VINA RESULT:      -5.0      2.487      6.152
REMARK  7 active torsions:
REMARK  status: ('A' for Active; 'I' for Inactive)
REMARK    1  A    between atoms: C_2  and  C_3 
REMARK    2  A    between atoms: C_3  and  O_6 
REMARK    3  A    between atoms: C_3  and  C_4 
REMARK    4  A    between atoms: C_7  and  O_6 
REMARK    5  A    between atoms: C_9  and  C_10 
REMARK    6  A    between atoms: N_15  and  C_14 
REMARK    7  A    between atoms: N_20  and  C_19 
REMARK       I    between atoms: C_22  and  N_20 
ROOT
ATOM      1  C   LIG d   1      -5.553  92.705 118.102  0.00  0.00     0.161 C 
ATOM      2  C   LIG d   1      -4.679  93.334 119.005  0.00  0.00     0.016 C 
ATOM      3  C   LIG d   1      -3.366  92.876 119.264  0.00  0.00     0.038 C 
ATOM      4  C   LIG d   1      -2.782  91.840 118.521  0.00  0.00     0.028 C 
ATOM      5  C   LIG d   1      -3.798  90.854 117.954  0.00  0.00    -0.047 C 
ATOM      6  C   LIG d   1      -4.894  91.640 117.200  0.00  0.00     0.091 C 
ENDROOT
BRANCH   1   7
ATOM      7  O   LIG d   1      -6.222  93.698 117.299  0.00  0.00    -0.368 OA
BRANCH   7   8
ATOM      8  C   LIG d   1      -7.607  93.961 117.635  0.00  0.00     0.119 C 
BRANCH   8   9
ATOM      9  C   LIG d   1      -7.641  95.251 118.478  0.00  0.00     0.028 C 
ATOM     10  C   LIG d   1      -7.885  96.505 117.621  0.00  0.00     0.006 C 
ENDBRANCH   8   9
BRANCH   8  11
ATOM     11  C   LIG d   1      -8.177  92.868 118.544  0.00  0.00     0.028 C 
ATOM     12  C   LIG d   1      -9.405  93.336 119.340  0.00  0.00     0.006 C 
ENDBRANCH   8  11
ENDBRANCH   7   8
ENDBRANCH   1   7
BRANCH   6  13
ATOM     13  N   LIG d   1      -5.974  90.757 116.686  0.00  0.00    -0.311 N 
ATOM     14  C   LIG d   1      -6.520  90.894 115.479  0.00  0.00     0.210 C 
ATOM     15  C   LIG d   1      -7.631  89.891 115.155  0.00  0.00     0.109 C 
ATOM     16  O   LIG d   1      -6.167  91.730 114.633  0.00  0.00    -0.276 OA
ATOM     17  H   LIG d   1      -6.299  90.032 117.295  0.00  0.00     0.149 HD
ENDBRANCH   6  13
BRANCH   5  18
ATOM     18  N   LIG d   1      -3.067  89.908 117.089  0.00  0.00     0.381 N 
ATOM     19  H   LIG d   1      -3.712  89.279 116.654  0.00  0.00    -0.090 HD
ATOM     20  H   LIG d   1      -2.436  89.370 117.657  0.00  0.00    -0.090 HD
ATOM     21  H   LIG d   1      -2.557  90.407 116.394  0.00  0.00    -0.090 HD
ENDBRANCH   5  18
BRANCH   3  22
ATOM     22  C   LIG d   1      -2.638  93.431 120.305  0.00  0.00     0.382 C 
ATOM     23  O   LIG d   1      -2.049  92.687 121.125  0.00  0.00    -0.241 OA
ATOM     24  O   LIG d   1      -2.599  94.667 120.461  0.00  0.00    -0.241 OA
ENDBRANCH   3  22
TORSDOF 7
ENDMDL
MODEL 8
REMARK VINA RESULT:      -5.0      2.100      4.628
REMARK  7 active torsions:
REMARK  status: ('A' for Active; 'I' for Inactive)
REMARK    1  A    between atoms: C_2  and  C_3 
REMARK    2  A    between atoms: C_3  and  O_6 
REMARK    3  A    between atoms: C_3  and  C_4 
REMARK    4  A    between atoms: C_7  and  O_6 
REMARK    5  A    between atoms: C_9  and  C_10 
REMARK    6  A    between atoms: N_15  and  C_14 
REMARK    7  A    between atoms: N_20  and  C_19 
REMARK       I    between atoms: C_22  and  N_20 
ROOT
ATOM      1  C   LIG d   1      -5.598  93.491 117.611  0.00  0.00     0.161 C 
ATOM      2  C   LIG d   1      -6.340  92.876 116.589  0.00  0.00     0.016 C 
ATOM      3  C   LIG d   1      -6.217  91.509 116.251  0.00  0.00     0.038 C 
ATOM      4  C   LIG d   1      -5.446  90.623 117.019  0.00  0.00     0.028 C 
ATOM      5  C   LIG d   1      -4.290  91.300 117.748  0.00  0.00    -0.047 C 
ATOM      6  C   LIG d   1      -4.835  92.516 118.532  0.00  0.00     0.091 C 
ENDROOT
BRANCH   1   7
ATOM      7  O   LIG d   1      -6.456  94.348 118.390  0.00  0.00    -0.368 OA
BRANCH   7   8
ATOM      8  C   LIG d   1      -7.632  94.858 117.714  0.00  0.00     0.119 C 
BRANCH   8   9
ATOM      9  C   LIG d   1      -7.448  96.379 117.550  0.00  0.00     0.028 C 
ATOM     10  C   LIG d   1      -7.971  97.168 118.762  0.00  0.00     0.006 C 
ENDBRANCH   8   9
BRANCH   8  11
ATOM     11  C   LIG d   1      -8.886  94.692 118.577  0.00  0.00     0.028 C 
ATOM     12  C   LIG d   1      -9.023  93.278 119.164  0.00  0.00     0.006 C 
ENDBRANCH   8  11
ENDBRANCH   7   8
ENDBRANCH   1   7
BRANCH   6  13
ATOM     13  N   LIG d   1      -3.757  93.285 119.206  0.00  0.00    -0.311 N 
ATOM     14  C   LIG d   1      -3.375  93.065 120.463  0.00  0.00     0.210 C 
ATOM     15  C   LIG d   1      -2.259  93.983 120.971  0.00  0.00     0.109 C 
ATOM     16  O   LIG d   1      -3.833  92.175 121.196  0.00  0.00    -0.276 OA
ATOM     17  H   LIG d   1      -3.309  94.005 118.674  0.00  0.00     0.149 HD
ENDBRANCH   6  13
BRANCH   5  18
ATOM     18  N   LIG d   1      -3.657  90.289 118.616  0.00  0.00     0.381 N 
ATOM     19  H   LIG d   1      -4.119  90.267 119.503  0.00  0.00    -0.090 HD
ATOM     20  H   LIG d   1      -2.697  90.545 118.766  0.00  0.00    -0.090 HD
ATOM     21  H   LIG d   1      -3.706  89.392 118.185  0.00  0.00    -0.090 HD
ENDBRANCH   5  18
BRANCH   3  22
ATOM     22  C   LIG d   1      -6.837  91.024 115.110  0.00  0.00     0.382 C 
ATOM     23  O   LIG d   1      -6.616  89.850 114.728  0.00  0.00    -0.241 OA
ATOM     24  O   LIG d   1      -7.581  91.760 114.434  0.00  0.00    -0.241 OA
ENDBRANCH   3  22
TORSDOF 7
ENDMDL
MODEL 9
REMARK VINA RESULT:      -5.0      2.464      4.384
REMARK  7 active torsions:
REMARK  status: ('A' for Active; 'I' for Inactive)
REMARK    1  A    between atoms: C_2  and  C_3 
REMARK    2  A    between atoms: C_3  and  O_6 
REMARK    3  A    between atoms: C_3  and  C_4 
REMARK    4  A    between atoms: C_7  and  O_6 
REMARK    5  A    between atoms: C_9  and  C_10 
REMARK    6  A    between atoms: N_15  and  C_14 
REMARK    7  A    between atoms: N_20  and  C_19 
REMARK       I    between atoms: C_22  and  N_20 
ROOT
ATOM      1  C   LIG d   1      -6.098  91.957 118.464  0.00  0.00     0.161 C 
ATOM      2  C   LIG d   1      -6.936  91.610 117.391  0.00  0.00     0.016 C 
ATOM      3  C   LIG d   1      -6.532  90.772 116.327  0.00  0.00     0.038 C 
ATOM      4  C   LIG d   1      -5.302  90.098 116.340  0.00  0.00     0.028 C 
ATOM      5  C   LIG d   1      -4.227  90.813 117.151  0.00  0.00    -0.047 C 
ATOM      6  C   LIG d   1      -4.791  91.141 118.553  0.00  0.00     0.091 C 
ENDROOT
BRANCH   1   7
ATOM      7  O   LIG d   1      -6.829  91.869 119.703  0.00  0.00    -0.368 OA
BRANCH   7   8
ATOM      8  C   LIG d   1      -7.198  93.128 120.317  0.00  0.00     0.119 C 
BRANCH   8   9
ATOM      9  C   LIG d   1      -6.365  93.277 121.605  0.00  0.00     0.028 C 
ATOM     10  C   LIG d   1      -5.361  94.440 121.524  0.00  0.00     0.006 C 
ENDBRANCH   8   9
BRANCH   8  11
ATOM     11  C   LIG d   1      -8.658  93.118 120.777  0.00  0.00     0.028 C 
ATOM     12  C   LIG d   1      -9.652  93.213 119.608  0.00  0.00     0.006 C 
ENDBRANCH   8  11
ENDBRANCH   7   8
ENDBRANCH   1   7
BRANCH   6  13
ATOM     13  N   LIG d   1      -3.832  91.917 119.382  0.00  0.00    -0.311 N 
ATOM     14  C   LIG d   1      -2.965  91.353 120.222  0.00  0.00     0.210 C 
ATOM     15  C   LIG d   1      -2.081  92.336 120.995  0.00  0.00     0.109 C 
ATOM     16  O   LIG d   1      -2.823  90.130 120.375  0.00  0.00    -0.276 OA
ATOM     17  H   LIG d   1      -3.859  92.914 119.297  0.00  0.00     0.149 HD
ENDBRANCH   6  13
BRANCH   5  18
ATOM     18  N   LIG d   1      -3.043  89.935 117.195  0.00  0.00     0.381 N 
ATOM     19  H   LIG d   1      -2.940  89.551 118.113  0.00  0.00    -0.090 HD
ATOM     20  H   LIG d   1      -2.225  90.481 116.988  0.00  0.00    -0.090 HD
ATOM     21  H   LIG d   1      -3.138  89.201 116.529  0.00  0.00    -0.090 HD
ENDBRANCH   5  18
BRANCH   3  22
ATOM     22  C   LIG d   1      -7.347  90.634 115.213  0.00  0.00     0.382 C 
ATOM     23  O   LIG d   1      -7.511  91.603 114.432  0.00  0.00    -0.241 OA
ATOM     24  O   LIG d   1      -7.955  89.568 115.004  0.00  0.00    -0.241 OA
ENDBRANCH   3  22
TORSDOF 7
ENDMDL
