MODEL 1
REMARK VINA RESULT:      -5.3      0.000      0.000
REMARK  7 active torsions:
REMARK  status: ('A' for Active; 'I' for Inactive)
REMARK    1  A    between atoms: C_2  and  C_3 
REMARK    2  A    between atoms: C_3  and  O_6 
REMARK    3  A    between atoms: C_3  and  C_4 
REMARK    4  A    between atoms: C_7  and  O_6 
REMARK    5  A    between atoms: C_9  and  C_10 
REMARK    6  A    between atoms: N_15  and  C_14 
REMARK    7  A    between atoms: N_20  and  C_19 
REMARK       I    between atoms: C_22  and  N_20 
ROOT
ATOM      1  C   LIG d   1      -5.958  93.409 117.550  0.00  0.00     0.161 C 
ATOM      2  C   LIG d   1      -6.772  92.536 116.809  0.00  0.00     0.016 C 
ATOM      3  C   LIG d   1      -6.305  91.327 116.246  0.00  0.00     0.038 C 
ATOM      4  C   LIG d   1      -5.020  90.831 116.515  0.00  0.00     0.028 C 
ATOM      5  C   LIG d   1      -4.006  91.922 116.839  0.00  0.00    -0.047 C 
ATOM      6  C   LIG d   1      -4.584  92.831 117.948  0.00  0.00     0.091 C 
ENDROOT
BRANCH   1   7
ATOM      7  O   LIG d   1      -6.667  93.865 118.719  0.00  0.00    -0.368 OA
BRANCH   7   8
ATOM      8  C   LIG d   1      -6.793  95.300 118.869  0.00  0.00     0.119 C 
BRANCH   8   9
ATOM      9  C   LIG d   1      -6.481  95.641 120.340  0.00  0.00     0.028 C 
ATOM     10  C   LIG d   1      -5.969  94.424 121.128  0.00  0.00     0.006 C 
ENDBRANCH   8   9
BRANCH   8  11
ATOM     11  C   LIG d   1      -8.236  95.760 118.643  0.00  0.00     0.028 C 
ATOM     12  C   LIG d   1      -8.867  96.381 119.900  0.00  0.00     0.006 C 
ENDBRANCH   8  11
ENDBRANCH   7   8
ENDBRANCH   1   7
BRANCH   6  13
ATOM     13  N   LIG d   1      -3.690  93.975 118.266  0.00  0.00    -0.311 N 
ATOM     14  C   LIG d   1      -2.803  93.957 119.260  0.00  0.00     0.210 C 
ATOM     15  C   LIG d   1      -1.996  95.248 119.429  0.00  0.00     0.109 C 
ATOM     16  O   LIG d   1      -2.586  92.984 119.997  0.00  0.00    -0.276 OA
ATOM     17  H   LIG d   1      -3.777  94.794 117.698  0.00  0.00     0.149 HD
ENDBRANCH   6  13
BRANCH   5  18
ATOM     18  N   LIG d   1      -2.748  91.258 117.233  0.00  0.00     0.381 N 
ATOM     19  H   LIG d   1      -2.883  90.758 118.089  0.00  0.00    -0.090 HD
ATOM     20  H   LIG d   1      -2.045  91.959 117.385  0.00  0.00    -0.090 HD
ATOM     21  H   LIG d   1      -2.454  90.632 116.517  0.00  0.00    -0.090 HD
ENDBRANCH   5  18
BRANCH   3  22
ATOM     22  C   LIG d   1      -7.114  90.619 115.370  0.00  0.00     0.382 C 
ATOM     23  O   LIG d   1      -6.694  89.558 114.847  0.00  0.00    -0.241 OA
ATOM     24  O   LIG d   1      -8.241  91.051 115.061  0.00  0.00    -0.241 OA
ENDBRANCH   3  22
TORSDOF 7
ENDMDL
MODEL 2
REMARK VINA RESULT:      -5.1      2.288      4.626
REMARK  7 active torsions:
REMARK  status: ('A' for Active; 'I' for Inactive)
REMARK    1  A    between atoms: C_2  and  C_3 
REMARK    2  A    between atoms: C_3  and  O_6 
REMARK    3  A    between atoms: C_3  and  C_4 
REMARK    4  A    between atoms: C_7  and  O_6 
REMARK    5  A    between atoms: C_9  and  C_10 
REMARK    6  A    between atoms: N_15  and  C_14 
REMARK    7  A    between atoms: N_20  and  C_19 
REMARK       I    between atoms: C_22  and  N_20 
ROOT
ATOM      1  C   LIG d   1      -4.123  91.511 117.606  0.00  0.00     0.161 C 
ATOM      2  C   LIG d   1      -4.891  90.875 116.616  0.00  0.00     0.016 C 
ATOM      3  C   LIG d   1      -6.120  91.385 116.137  0.00  0.00     0.038 C 
ATOM      4  C   LIG d   1      -6.593  92.652 116.510  0.00  0.00     0.028 C 
ATOM      5  C   LIG d   1      -6.105  93.100 117.883  0.00  0.00    -0.047 C 
ATOM      6  C   LIG d   1      -4.568  92.950 117.944  0.00  0.00     0.091 C 
ENDROOT
BRANCH   1   7
ATOM      7  O   LIG d   1      -2.731  91.492 117.232  0.00  0.00    -0.368 OA
BRANCH   7   8
ATOM      8  C   LIG d   1      -1.834  90.824 118.152  0.00  0.00     0.119 C 
BRANCH   8   9
ATOM      9  C   LIG d   1      -0.413  90.920 117.564  0.00  0.00     0.028 C 
ATOM     10  C   LIG d   1       0.093  92.370 117.484  0.00  0.00     0.006 C 
ENDBRANCH   8   9
BRANCH   8  11
ATOM     11  C   LIG d   1      -2.137  89.325 118.238  0.00  0.00     0.028 C 
ATOM     12  C   LIG d   1      -2.461  88.864 119.667  0.00  0.00     0.006 C 
ENDBRANCH   8  11
ENDBRANCH   7   8
ENDBRANCH   1   7
BRANCH   6  13
ATOM     13  N   LIG d   1      -4.018  93.287 119.283  0.00  0.00    -0.311 N 
ATOM     14  C   LIG d   1      -2.979  94.101 119.464  0.00  0.00     0.210 C 
ATOM     15  C   LIG d   1      -2.560  94.298 120.924  0.00  0.00     0.109 C 
ATOM     16  O   LIG d   1      -2.384  94.702 118.557  0.00  0.00    -0.276 OA
ATOM     17  H   LIG d   1      -4.460  92.868 120.077  0.00  0.00     0.149 HD
ENDBRANCH   6  13
BRANCH   5  18
ATOM     18  N   LIG d   1      -6.559  94.489 118.086  0.00  0.00     0.381 N 
ATOM     19  H   LIG d   1      -6.113  94.877 118.893  0.00  0.00    -0.090 HD
ATOM     20  H   LIG d   1      -7.551  94.487 118.244  0.00  0.00    -0.090 HD
ATOM     21  H   LIG d   1      -6.345  95.038 117.282  0.00  0.00    -0.090 HD
ENDBRANCH   5  18
BRANCH   3  22
ATOM     22  C   LIG d   1      -6.909  90.606 115.304  0.00  0.00     0.382 C 
ATOM     23  O   LIG d   1      -6.452  89.540 114.825  0.00  0.00    -0.241 OA
ATOM     24  O   LIG d   1      -8.055  90.978 114.991  0.00  0.00    -0.241 OA
ENDBRANCH   3  22
TORSDOF 7
ENDMDL
MODEL 3
REMARK VINA RESULT:      -4.6      3.998      6.276
REMARK  7 active torsions:
REMARK  status: ('A' for Active; 'I' for Inactive)
REMARK    1  A    between atoms: C_2  and  C_3 
REMARK    2  A    between atoms: C_3  and  O_6 
REMARK    3  A    between atoms: C_3  and  C_4 
REMARK    4  A    between atoms: C_7  and  O_6 
REMARK    5  A    between atoms: C_9  and  C_10 
REMARK    6  A    between atoms: N_15  and  C_14 
REMARK    7  A    between atoms: N_20  and  C_19 
REMARK       I    between atoms: C_22  and  N_20 
ROOT
ATOM      1  C   LIG d   1      -2.563  90.350 118.758  0.00  0.00     0.161 C 
ATOM      2  C   LIG d   1      -3.956  90.343 118.580  0.00  0.00     0.016 C 
ATOM      3  C   LIG d   1      -4.673  91.420 118.009  0.00  0.00     0.038 C 
ATOM      4  C   LIG d   1      -4.022  92.522 117.435  0.00  0.00     0.028 C 
ATOM      5  C   LIG d   1      -2.653  92.802 118.044  0.00  0.00    -0.047 C 
ATOM      6  C   LIG d   1      -1.824  91.497 118.037  0.00  0.00     0.091 C 
ENDROOT
BRANCH   1   7
ATOM      7  O   LIG d   1      -2.014  89.076 118.366  0.00  0.00    -0.368 OA
BRANCH   7   8
ATOM      8  C   LIG d   1      -1.218  88.391 119.364  0.00  0.00     0.119 C 
BRANCH   8   9
ATOM      9  C   LIG d   1      -0.370  87.332 118.633  0.00  0.00     0.028 C 
ATOM     10  C   LIG d   1       0.367  87.910 117.414  0.00  0.00     0.006 C 
ENDBRANCH   8   9
BRANCH   8  11
ATOM     11  C   LIG d   1      -2.102  87.603 120.336  0.00  0.00     0.028 C 
ATOM     12  C   LIG d   1      -1.793  86.097 120.335  0.00  0.00     0.006 C 
ENDBRANCH   8  11
ENDBRANCH   7   8
ENDBRANCH   1   7
BRANCH   6  13
ATOM     13  N   LIG d   1      -0.501  91.662 118.692  0.00  0.00    -0.311 N 
ATOM     14  C   LIG d   1       0.657  91.551 118.044  0.00  0.00     0.210 C 
ATOM     15  C   LIG d   1       1.905  91.738 118.913  0.00  0.00     0.109 C 
ATOM     16  O   LIG d   1       0.769  91.347 116.826  0.00  0.00    -0.276 OA
ATOM     17  H   LIG d   1      -0.500  91.860 119.674  0.00  0.00     0.149 HD
ENDBRANCH   6  13
BRANCH   5  18
ATOM     18  N   LIG d   1      -2.030  93.886 117.262  0.00  0.00     0.381 N 
ATOM     19  H   LIG d   1      -2.599  94.101 116.468  0.00  0.00    -0.090 HD
ATOM     20  H   LIG d   1      -1.133  93.576 116.933  0.00  0.00    -0.090 HD
ATOM     21  H   LIG d   1      -1.921  94.697 117.830  0.00  0.00    -0.090 HD
ENDBRANCH   5  18
BRANCH   3  22
ATOM     22  C   LIG d   1      -6.059  91.418 118.044  0.00  0.00     0.382 C 
ATOM     23  O   LIG d   1      -6.664  92.029 118.958  0.00  0.00    -0.241 OA
ATOM     24  O   LIG d   1      -6.712  90.777 117.199  0.00  0.00    -0.241 OA
ENDBRANCH   3  22
TORSDOF 7
ENDMDL
MODEL 4
REMARK VINA RESULT:      -4.6      2.156      5.098
REMARK  7 active torsions:
REMARK  status: ('A' for Active; 'I' for Inactive)
REMARK    1  A    between atoms: C_2  and  C_3 
REMARK    2  A    between atoms: C_3  and  O_6 
REMARK    3  A    between atoms: C_3  and  C_4 
REMARK    4  A    between atoms: C_7  and  O_6 
REMARK    5  A    between atoms: C_9  and  C_10 
REMARK    6  A    between atoms: N_15  and  C_14 
REMARK    7  A    between atoms: N_20  and  C_19 
REMARK       I    between atoms: C_22  and  N_20 
ROOT
ATOM      1  C   LIG d   1      -4.867  93.347 118.367  0.00  0.00     0.161 C 
ATOM      2  C   LIG d   1      -6.157  93.903 118.396  0.00  0.00     0.016 C 
ATOM      3  C   LIG d   1      -6.466  95.119 119.047  0.00  0.00     0.038 C 
ATOM      4  C   LIG d   1      -5.469  95.944 119.588  0.00  0.00     0.028 C 
ATOM      5  C   LIG d   1      -4.222  95.182 120.024  0.00  0.00    -0.047 C 
ATOM      6  C   LIG d   1      -3.747  94.288 118.856  0.00  0.00     0.091 C 
ENDROOT
BRANCH   1   7
ATOM      7  O   LIG d   1      -4.573  92.865 117.041  0.00  0.00    -0.368 OA
BRANCH   7   8
ATOM      8  C   LIG d   1      -4.366  91.436 116.913  0.00  0.00     0.119 C 
BRANCH   8   9
ATOM      9  C   LIG d   1      -5.501  90.881 116.031  0.00  0.00     0.028 C 
ATOM     10  C   LIG d   1      -6.146  91.966 115.153  0.00  0.00     0.006 C 
ENDBRANCH   8   9
BRANCH   8  11
ATOM     11  C   LIG d   1      -4.519  90.729 118.263  0.00  0.00     0.028 C 
ATOM     12  C   LIG d   1      -3.287  89.890 118.639  0.00  0.00     0.006 C 
ENDBRANCH   8  11
ENDBRANCH   7   8
ENDBRANCH   1   7
BRANCH   6  13
ATOM     13  N   LIG d   1      -2.581  93.444 119.226  0.00  0.00    -0.311 N 
ATOM     14  C   LIG d   1      -1.476  93.355 118.487  0.00  0.00     0.210 C 
ATOM     15  C   LIG d   1      -0.402  92.413 119.040  0.00  0.00     0.109 C 
ATOM     16  O   LIG d   1      -1.272  93.990 117.442  0.00  0.00    -0.276 OA
ATOM     17  H   LIG d   1      -2.649  92.918 120.075  0.00  0.00     0.149 HD
ENDBRANCH   6  13
BRANCH   5  18
ATOM     18  N   LIG d   1      -3.215  96.175 120.440  0.00  0.00     0.381 N 
ATOM     19  H   LIG d   1      -3.246  96.966 119.827  0.00  0.00    -0.090 HD
ATOM     20  H   LIG d   1      -2.302  95.761 120.372  0.00  0.00    -0.090 HD
ATOM     21  H   LIG d   1      -3.387  96.465 121.377  0.00  0.00    -0.090 HD
ENDBRANCH   5  18
BRANCH   3  22
ATOM     22  C   LIG d   1      -7.791  95.501 119.197  0.00  0.00     0.382 C 
ATOM     23  O   LIG d   1      -8.275  95.646 120.345  0.00  0.00    -0.241 OA
ATOM     24  O   LIG d   1      -8.519  95.660 118.199  0.00  0.00    -0.241 OA
ENDBRANCH   3  22
TORSDOF 7
ENDMDL
MODEL 5
REMARK VINA RESULT:      -4.5      3.598      7.352
REMARK  7 active torsions:
REMARK  status: ('A' for Active; 'I' for Inactive)
REMARK    1  A    between atoms: C_2  and  C_3 
REMARK    2  A    between atoms: C_3  and  O_6 
REMARK    3  A    between atoms: C_3  and  C_4 
REMARK    4  A    between atoms: C_7  and  O_6 
REMARK    5  A    between atoms: C_9  and  C_10 
REMARK    6  A    between atoms: N_15  and  C_14 
REMARK    7  A    between atoms: N_20  and  C_19 
REMARK       I    between atoms: C_22  and  N_20 
ROOT
ATOM      1  C   LIG d   1      -1.585  90.929 117.547  0.00  0.00     0.161 C 
ATOM      2  C   LIG d   1      -0.531  91.523 118.261  0.00  0.00     0.016 C 
ATOM      3  C   LIG d   1      -0.637  92.776 118.906  0.00  0.00     0.038 C 
ATOM      4  C   LIG d   1      -1.860  93.456 119.009  0.00  0.00     0.028 C 
ATOM      5  C   LIG d   1      -2.827  93.138 117.873  0.00  0.00    -0.047 C 
ATOM      6  C   LIG d   1      -2.959  91.603 117.741  0.00  0.00     0.091 C 
ENDROOT
BRANCH   1   7
ATOM      7  O   LIG d   1      -1.665  89.526 117.869  0.00  0.00    -0.368 OA
BRANCH   7   8
ATOM      8  C   LIG d   1      -0.663  89.026 118.789  0.00  0.00     0.119 C 
BRANCH   8   9
ATOM      9  C   LIG d   1       0.092  87.887 118.076  0.00  0.00     0.028 C 
ATOM     10  C   LIG d   1      -0.172  86.516 118.719  0.00  0.00     0.006 C 
ENDBRANCH   8   9
BRANCH   8  11
ATOM     11  C   LIG d   1      -1.309  88.378 120.017  0.00  0.00     0.028 C 
ATOM     12  C   LIG d   1      -2.782  88.778 120.197  0.00  0.00     0.006 C 
ENDBRANCH   8  11
ENDBRANCH   7   8
ENDBRANCH   1   7
BRANCH   6  13
ATOM     13  N   LIG d   1      -3.822  91.205 116.599  0.00  0.00    -0.311 N 
ATOM     14  C   LIG d   1      -5.110  90.894 116.727  0.00  0.00     0.210 C 
ATOM     15  C   LIG d   1      -5.811  90.491 115.425  0.00  0.00     0.109 C 
ATOM     16  O   LIG d   1      -5.748  90.945 117.789  0.00  0.00    -0.276 OA
ATOM     17  H   LIG d   1      -3.393  91.167 115.695  0.00  0.00     0.149 HD
ENDBRANCH   6  13
BRANCH   5  18
ATOM     18  N   LIG d   1      -4.108  93.804 118.178  0.00  0.00     0.381 N 
ATOM     19  H   LIG d   1      -4.637  93.922 117.337  0.00  0.00    -0.090 HD
ATOM     20  H   LIG d   1      -3.918  94.713 118.562  0.00  0.00    -0.090 HD
ATOM     21  H   LIG d   1      -4.627  93.261 118.833  0.00  0.00    -0.090 HD
ENDBRANCH   5  18
BRANCH   3  22
ATOM     22  C   LIG d   1       0.498  93.381 119.424  0.00  0.00     0.382 C 
ATOM     23  O   LIG d   1       0.783  93.245 120.638  0.00  0.00    -0.241 OA
ATOM     24  O   LIG d   1       1.216  94.099 118.702  0.00  0.00    -0.241 OA
ENDBRANCH   3  22
TORSDOF 7
ENDMDL
MODEL 6
REMARK VINA RESULT:      -4.5      3.671      7.418
REMARK  7 active torsions:
REMARK  status: ('A' for Active; 'I' for Inactive)
REMARK    1  A    between atoms: C_2  and  C_3 
REMARK    2  A    between atoms: C_3  and  O_6 
REMARK    3  A    between atoms: C_3  and  C_4 
REMARK    4  A    between atoms: C_7  and  O_6 
REMARK    5  A    between atoms: C_9  and  C_10 
REMARK    6  A    between atoms: N_15  and  C_14 
REMARK    7  A    between atoms: N_20  and  C_19 
REMARK       I    between atoms: C_22  and  N_20 
ROOT
ATOM      1  C   LIG d   1      -0.873  91.993 118.084  0.00  0.00     0.161 C 
ATOM      2  C   LIG d   1       0.493  92.187 118.346  0.00  0.00     0.016 C 
ATOM      3  C   LIG d   1       1.099  93.462 118.420  0.00  0.00     0.038 C 
ATOM      4  C   LIG d   1       0.344  94.644 118.386  0.00  0.00     0.028 C 
ATOM      5  C   LIG d   1      -0.967  94.504 117.619  0.00  0.00    -0.047 C 
ATOM      6  C   LIG d   1      -1.733  93.273 118.155  0.00  0.00     0.091 C 
ENDROOT
BRANCH   1   7
ATOM      7  O   LIG d   1      -1.402  90.985 118.967  0.00  0.00    -0.368 OA
BRANCH   7   8
ATOM      8  C   LIG d   1      -1.883  89.773 118.335  0.00  0.00     0.119 C 
BRANCH   8   9
ATOM      9  C   LIG d   1      -3.194  89.372 119.040  0.00  0.00     0.028 C 
ATOM     10  C   LIG d   1      -2.945  88.629 120.363  0.00  0.00     0.006 C 
ENDBRANCH   8   9
BRANCH   8  11
ATOM     11  C   LIG d   1      -0.923  88.603 118.570  0.00  0.00     0.028 C 
ATOM     12  C   LIG d   1       0.067  88.403 117.411  0.00  0.00     0.006 C 
ENDBRANCH   8  11
ENDBRANCH   7   8
ENDBRANCH   1   7
BRANCH   6  13
ATOM     13  N   LIG d   1      -2.987  93.014 117.401  0.00  0.00    -0.311 N 
ATOM     14  C   LIG d   1      -4.172  92.846 117.986  0.00  0.00     0.210 C 
ATOM     15  C   LIG d   1      -5.334  92.571 117.026  0.00  0.00     0.109 C 
ATOM     16  O   LIG d   1      -4.377  92.931 119.206  0.00  0.00    -0.276 OA
ATOM     17  H   LIG d   1      -2.918  92.961 116.404  0.00  0.00     0.149 HD
ENDBRANCH   6  13
BRANCH   5  18
ATOM     18  N   LIG d   1      -1.715  95.765 117.781  0.00  0.00     0.381 N 
ATOM     19  H   LIG d   1      -1.145  96.439 118.254  0.00  0.00    -0.090 HD
ATOM     20  H   LIG d   1      -2.529  95.591 118.343  0.00  0.00    -0.090 HD
ATOM     21  H   LIG d   1      -1.986  96.117 116.889  0.00  0.00    -0.090 HD
ENDBRANCH   5  18
BRANCH   3  22
ATOM     22  C   LIG d   1       2.480  93.564 118.490  0.00  0.00     0.382 C 
ATOM     23  O   LIG d   1       3.178  93.329 117.474  0.00  0.00    -0.241 OA
ATOM     24  O   LIG d   1       3.039  93.846 119.566  0.00  0.00    -0.241 OA
ENDBRANCH   3  22
TORSDOF 7
ENDMDL
MODEL 7
REMARK VINA RESULT:      -4.5      2.879      6.718
REMARK  7 active torsions:
REMARK  status: ('A' for Active; 'I' for Inactive)
REMARK    1  A    between atoms: C_2  and  C_3 
REMARK    2  A    between atoms: C_3  and  O_6 
REMARK    3  A    between atoms: C_3  and  C_4 
REMARK    4  A    between atoms: C_7  and  O_6 
REMARK    5  A    between atoms: C_9  and  C_10 
REMARK    6  A    between atoms: N_15  and  C_14 
REMARK    7  A    between atoms: N_20  and  C_19 
REMARK       I    between atoms: C_22  and  N_20 
ROOT
ATOM      1  C   LIG d   1      -3.474  91.336 117.516  0.00  0.00     0.161 C 
ATOM      2  C   LIG d   1      -2.718  92.147 118.379  0.00  0.00     0.016 C 
ATOM      3  C   LIG d   1      -3.223  93.320 118.987  0.00  0.00     0.038 C 
ATOM      4  C   LIG d   1      -4.576  93.680 118.891  0.00  0.00     0.028 C 
ATOM      5  C   LIG d   1      -5.251  93.169 117.623  0.00  0.00    -0.047 C 
ATOM      6  C   LIG d   1      -4.984  91.652 117.489  0.00  0.00     0.091 C 
ENDROOT
BRANCH   1   7
ATOM      7  O   LIG d   1      -3.259  89.948 117.838  0.00  0.00    -0.368 OA
BRANCH   7   8
ATOM      8  C   LIG d   1      -2.185  89.668 118.770  0.00  0.00     0.119 C 
BRANCH   8   9
ATOM      9  C   LIG d   1      -1.131  88.828 118.024  0.00  0.00     0.028 C 
ATOM     10  C   LIG d   1       0.074  89.668 117.569  0.00  0.00     0.006 C 
ENDBRANCH   8   9
BRANCH   8  11
ATOM     11  C   LIG d   1      -2.666  88.784 119.924  0.00  0.00     0.028 C 
ATOM     12  C   LIG d   1      -1.800  87.528 120.113  0.00  0.00     0.006 C 
ENDBRANCH   8  11
ENDBRANCH   7   8
ENDBRANCH   1   7
BRANCH   6  13
ATOM     13  N   LIG d   1      -5.538  91.088 116.230  0.00  0.00    -0.311 N 
ATOM     14  C   LIG d   1      -6.751  90.545 116.143  0.00  0.00     0.210 C 
ATOM     15  C   LIG d   1      -7.119  90.005 114.757  0.00  0.00     0.109 C 
ATOM     16  O   LIG d   1      -7.570  90.489 117.072  0.00  0.00    -0.276 OA
ATOM     17  H   LIG d   1      -4.953  91.121 115.419  0.00  0.00     0.149 HD
ENDBRANCH   6  13
BRANCH   5  18
ATOM     18  N   LIG d   1      -6.686  93.497 117.718  0.00  0.00     0.381 N 
ATOM     19  H   LIG d   1      -7.183  92.728 118.120  0.00  0.00    -0.090 HD
ATOM     20  H   LIG d   1      -7.045  93.657 116.793  0.00  0.00    -0.090 HD
ATOM     21  H   LIG d   1      -6.813  94.312 118.277  0.00  0.00    -0.090 HD
ENDBRANCH   5  18
BRANCH   3  22
ATOM     22  C   LIG d   1      -2.362  94.167 119.667  0.00  0.00     0.382 C 
ATOM     23  O   LIG d   1      -1.461  93.690 120.398  0.00  0.00    -0.241 OA
ATOM     24  O   LIG d   1      -2.503  95.403 119.594  0.00  0.00    -0.241 OA
ENDBRANCH   3  22
TORSDOF 7
ENDMDL
MODEL 8
REMARK VINA RESULT:      -4.4      2.382      4.767
REMARK  7 active torsions:
REMARK  status: ('A' for Active; 'I' for Inactive)
REMARK    1  A    between atoms: C_2  and  C_3 
REMARK    2  A    between atoms: C_3  and  O_6 
REMARK    3  A    between atoms: C_3  and  C_4 
REMARK    4  A    between atoms: C_7  and  O_6 
REMARK    5  A    between atoms: C_9  and  C_10 
REMARK    6  A    between atoms: N_15  and  C_14 
REMARK    7  A    between atoms: N_20  and  C_19 
REMARK       I    between atoms: C_22  and  N_20 
ROOT
ATOM      1  C   LIG d   1      -4.024  91.814 117.756  0.00  0.00     0.161 C 
ATOM      2  C   LIG d   1      -4.631  91.068 116.732  0.00  0.00     0.016 C 
ATOM      3  C   LIG d   1      -5.884  91.399 116.167  0.00  0.00     0.038 C 
ATOM      4  C   LIG d   1      -6.549  92.593 116.486  0.00  0.00     0.028 C 
ATOM      5  C   LIG d   1      -6.218  93.117 117.879  0.00  0.00    -0.047 C 
ATOM      6  C   LIG d   1      -4.682  93.181 118.039  0.00  0.00     0.091 C 
ENDROOT
BRANCH   1   7
ATOM      7  O   LIG d   1      -2.621  91.983 117.471  0.00  0.00    -0.368 OA
BRANCH   7   8
ATOM      8  C   LIG d   1      -1.746  90.920 117.924  0.00  0.00     0.119 C 
BRANCH   8   9
ATOM      9  C   LIG d   1      -2.195  90.524 119.344  0.00  0.00     0.028 C 
ATOM     10  C   LIG d   1      -2.388  89.006 119.497  0.00  0.00     0.006 C 
ENDBRANCH   8   9
BRANCH   8  11
ATOM     11  C   LIG d   1      -0.304  91.413 118.078  0.00  0.00     0.028 C 
ATOM     12  C   LIG d   1       0.636  90.851 117.000  0.00  0.00     0.006 C 
ENDBRANCH   8  11
ENDBRANCH   7   8
ENDBRANCH   1   7
BRANCH   6  13
ATOM     13  N   LIG d   1      -4.271  93.604 119.403  0.00  0.00    -0.311 N 
ATOM     14  C   LIG d   1      -4.688  93.001 120.515  0.00  0.00     0.210 C 
ATOM     15  C   LIG d   1      -4.160  93.610 121.818  0.00  0.00     0.109 C 
ATOM     16  O   LIG d   1      -5.420  92.001 120.544  0.00  0.00    -0.276 OA
ATOM     17  H   LIG d   1      -3.653  94.389 119.470  0.00  0.00     0.149 HD
ENDBRANCH   6  13
BRANCH   5  18
ATOM     18  N   LIG d   1      -6.869  94.433 118.026  0.00  0.00     0.381 N 
ATOM     19  H   LIG d   1      -7.824  94.309 118.299  0.00  0.00    -0.090 HD
ATOM     20  H   LIG d   1      -6.853  94.905 117.139  0.00  0.00    -0.090 HD
ATOM     21  H   LIG d   1      -6.389  94.977 118.709  0.00  0.00    -0.090 HD
ENDBRANCH   5  18
BRANCH   3  22
ATOM     22  C   LIG d   1      -6.504  90.511 115.302  0.00  0.00     0.382 C 
ATOM     23  O   LIG d   1      -5.861  89.541 114.832  0.00  0.00    -0.241 OA
ATOM     24  O   LIG d   1      -7.685  90.692 114.950  0.00  0.00    -0.241 OA
ENDBRANCH   3  22
TORSDOF 7
ENDMDL
MODEL 9
REMARK VINA RESULT:      -4.4      4.907      8.353
REMARK  7 active torsions:
REMARK  status: ('A' for Active; 'I' for Inactive)
REMARK    1  A    between atoms: C_2  and  C_3 
REMARK    2  A    between atoms: C_3  and  O_6 
REMARK    3  A    between atoms: C_3  and  C_4 
REMARK    4  A    between atoms: C_7  and  O_6 
REMARK    5  A    between atoms: C_9  and  C_10 
REMARK    6  A    between atoms: N_15  and  C_14 
REMARK    7  A    between atoms: N_20  and  C_19 
REMARK       I    between atoms: C_22  and  N_20 
ROOT
ATOM      1  C   LIG d   1       0.266  91.641 117.027  0.00  0.00     0.161 C 
ATOM      2  C   LIG d   1       1.668  91.639 117.110  0.00  0.00     0.016 C 
ATOM      3  C   LIG d   1       2.408  92.621 117.809  0.00  0.00     0.038 C 
ATOM      4  C   LIG d   1       1.783  93.593 118.604  0.00  0.00     0.028 C 
ATOM      5  C   LIG d   1       0.371  93.937 118.143  0.00  0.00    -0.047 C 
ATOM      6  C   LIG d   1      -0.437  92.629 117.981  0.00  0.00     0.091 C 
ENDROOT
BRANCH   1   7
ATOM      7  O   LIG d   1      -0.237  90.305 117.230  0.00  0.00    -0.368 OA
BRANCH   7   8
ATOM      8  C   LIG d   1       0.607  89.417 118.002  0.00  0.00     0.119 C 
BRANCH   8   9
ATOM      9  C   LIG d   1       0.491  88.011 117.381  0.00  0.00     0.028 C 
ATOM     10  C   LIG d   1       0.159  86.933 118.427  0.00  0.00     0.006 C 
ENDBRANCH   8   9
BRANCH   8  11
ATOM     11  C   LIG d   1       0.094  89.269 119.438  0.00  0.00     0.028 C 
ATOM     12  C   LIG d   1       0.897  90.106 120.447  0.00  0.00     0.006 C 
ENDBRANCH   8  11
ENDBRANCH   7   8
ENDBRANCH   1   7
BRANCH   6  13
ATOM     13  N   LIG d   1      -1.805  92.870 117.451  0.00  0.00    -0.311 N 
ATOM     14  C   LIG d   1      -2.898  92.303 117.959  0.00  0.00     0.210 C 
ATOM     15  C   LIG d   1      -4.205  92.671 117.251  0.00  0.00     0.109 C 
ATOM     16  O   LIG d   1      -2.912  91.556 118.949  0.00  0.00    -0.276 OA
ATOM     17  H   LIG d   1      -1.888  93.488 116.668  0.00  0.00     0.149 HD
ENDBRANCH   6  13
BRANCH   5  18
ATOM     18  N   LIG d   1      -0.211  94.857 119.138  0.00  0.00     0.381 N 
ATOM     19  H   LIG d   1      -0.092  94.481 120.058  0.00  0.00    -0.090 HD
ATOM     20  H   LIG d   1      -1.196  94.947 118.960  0.00  0.00    -0.090 HD
ATOM     21  H   LIG d   1       0.228  95.749 119.077  0.00  0.00    -0.090 HD
ENDBRANCH   5  18
BRANCH   3  22
ATOM     22  C   LIG d   1       3.788  92.660 117.683  0.00  0.00     0.382 C 
ATOM     23  O   LIG d   1       4.465  91.622 117.877  0.00  0.00    -0.241 OA
ATOM     24  O   LIG d   1       4.368  93.731 117.421  0.00  0.00    -0.241 OA
ENDBRANCH   3  22
TORSDOF 7
ENDMDL
