MODEL 1
REMARK VINA RESULT:      -5.5      0.000      0.000
REMARK  7 active torsions:
REMARK  status: ('A' for Active; 'I' for Inactive)
REMARK    1  A    between atoms: C_2  and  C_3 
REMARK    2  A    between atoms: C_3  and  O_6 
REMARK    3  A    between atoms: C_3  and  C_4 
REMARK    4  A    between atoms: C_7  and  O_6 
REMARK    5  A    between atoms: C_9  and  C_10 
REMARK    6  A    between atoms: N_15  and  C_14 
REMARK    7  A    between atoms: N_20  and  C_19 
REMARK       I    between atoms: C_22  and  N_20 
ROOT
ATOM      1  C   LIG d   1      -6.786  92.637 118.598  0.00  0.00     0.161 C 
ATOM      2  C   LIG d   1      -5.710  93.392 119.091  0.00  0.00     0.016 C 
ATOM      3  C   LIG d   1      -4.369  93.189 118.692  0.00  0.00     0.038 C 
ATOM      4  C   LIG d   1      -4.030  92.310 117.652  0.00  0.00     0.028 C 
ATOM      5  C   LIG d   1      -5.022  91.165 117.479  0.00  0.00    -0.047 C 
ATOM      6  C   LIG d   1      -6.450  91.749 117.381  0.00  0.00     0.091 C 
ENDROOT
BRANCH   1   7
ATOM      7  O   LIG d   1      -7.894  93.506 118.292  0.00  0.00    -0.368 OA
BRANCH   7   8
ATOM      8  C   LIG d   1      -7.682  94.919 118.535  0.00  0.00     0.119 C 
BRANCH   8   9
ATOM      9  C   LIG d   1      -8.847  95.419 119.410  0.00  0.00     0.028 C 
ATOM     10  C   LIG d   1      -9.479  94.293 120.246  0.00  0.00     0.006 C 
ENDBRANCH   8   9
BRANCH   8  11
ATOM     11  C   LIG d   1      -7.773  95.727 117.237  0.00  0.00     0.028 C 
ATOM     12  C   LIG d   1      -8.119  97.205 117.479  0.00  0.00     0.006 C 
ENDBRANCH   8  11
ENDBRANCH   7   8
ENDBRANCH   1   7
BRANCH   6  13
ATOM     13  N   LIG d   1      -7.490  90.691 117.295  0.00  0.00    -0.311 N 
ATOM     14  C   LIG d   1      -7.999  90.256 116.143  0.00  0.00     0.210 C 
ATOM     15  C   LIG d   1      -9.075  89.174 116.280  0.00  0.00     0.109 C 
ATOM     16  O   LIG d   1      -7.638  90.639 115.021  0.00  0.00    -0.276 OA
ATOM     17  H   LIG d   1      -7.818  90.302 118.157  0.00  0.00     0.149 HD
ENDBRANCH   6  13
BRANCH   5  18
ATOM     18  N   LIG d   1      -4.623  90.407 116.278  0.00  0.00     0.381 N 
ATOM     19  H   LIG d   1      -3.641  90.220 116.306  0.00  0.00    -0.090 HD
ATOM     20  H   LIG d   1      -4.815  90.965 115.464  0.00  0.00    -0.090 HD
ATOM     21  H   LIG d   1      -5.131  89.551 116.231  0.00  0.00    -0.090 HD
ENDBRANCH   5  18
BRANCH   3  22
ATOM     22  C   LIG d   1      -3.345  93.840 119.364  0.00  0.00     0.382 C 
ATOM     23  O   LIG d   1      -2.321  93.205 119.713  0.00  0.00    -0.241 OA
ATOM     24  O   LIG d   1      -3.453  95.044 119.664  0.00  0.00    -0.241 OA
ENDBRANCH   3  22
TORSDOF 7
ENDMDL
MODEL 2
REMARK VINA RESULT:      -5.3      2.758      6.534
REMARK  7 active torsions:
REMARK  status: ('A' for Active; 'I' for Inactive)
REMARK    1  A    between atoms: C_2  and  C_3 
REMARK    2  A    between atoms: C_3  and  O_6 
REMARK    3  A    between atoms: C_3  and  C_4 
REMARK    4  A    between atoms: C_7  and  O_6 
REMARK    5  A    between atoms: C_9  and  C_10 
REMARK    6  A    between atoms: N_15  and  C_14 
REMARK    7  A    between atoms: N_20  and  C_19 
REMARK       I    between atoms: C_22  and  N_20 
ROOT
ATOM      1  C   LIG d   1      -4.675  91.498 117.797  0.00  0.00     0.161 C 
ATOM      2  C   LIG d   1      -5.234  90.879 116.667  0.00  0.00     0.016 C 
ATOM      3  C   LIG d   1      -6.199  91.497 115.838  0.00  0.00     0.038 C 
ATOM      4  C   LIG d   1      -6.561  92.843 115.998  0.00  0.00     0.028 C 
ATOM      5  C   LIG d   1      -6.399  93.348 117.427  0.00  0.00    -0.047 C 
ATOM      6  C   LIG d   1      -4.975  93.007 117.922  0.00  0.00     0.091 C 
ENDROOT
BRANCH   1   7
ATOM      7  O   LIG d   1      -3.253  91.266 117.828  0.00  0.00    -0.368 OA
BRANCH   7   8
ATOM      8  C   LIG d   1      -2.832  89.881 117.751  0.00  0.00     0.119 C 
BRANCH   8   9
ATOM      9  C   LIG d   1      -3.207  89.209 119.086  0.00  0.00     0.028 C 
ATOM     10  C   LIG d   1      -2.567  87.819 119.243  0.00  0.00     0.006 C 
ENDBRANCH   8   9
BRANCH   8  11
ATOM     11  C   LIG d   1      -1.307  89.767 117.655  0.00  0.00     0.028 C 
ATOM     12  C   LIG d   1      -0.615  91.133 117.524  0.00  0.00     0.006 C 
ENDBRANCH   8  11
ENDBRANCH   7   8
ENDBRANCH   1   7
BRANCH   6  13
ATOM     13  N   LIG d   1      -4.761  93.391 119.342  0.00  0.00    -0.311 N 
ATOM     14  C   LIG d   1      -4.247  94.562 119.715  0.00  0.00     0.210 C 
ATOM     15  C   LIG d   1      -4.092  94.748 121.227  0.00  0.00     0.109 C 
ATOM     16  O   LIG d   1      -3.934  95.477 118.938  0.00  0.00    -0.276 OA
ATOM     17  H   LIG d   1      -5.016  92.720 120.040  0.00  0.00     0.149 HD
ENDBRANCH   6  13
BRANCH   5  18
ATOM     18  N   LIG d   1      -6.678  94.796 117.423  0.00  0.00     0.381 N 
ATOM     19  H   LIG d   1      -7.132  95.051 116.568  0.00  0.00    -0.090 HD
ATOM     20  H   LIG d   1      -5.807  95.295 117.478  0.00  0.00    -0.090 HD
ATOM     21  H   LIG d   1      -7.255  95.035 118.199  0.00  0.00    -0.090 HD
ENDBRANCH   5  18
BRANCH   3  22
ATOM     22  C   LIG d   1      -6.842  90.753 114.860  0.00  0.00     0.382 C 
ATOM     23  O   LIG d   1      -7.965  91.116 114.434  0.00  0.00    -0.241 OA
ATOM     24  O   LIG d   1      -6.334  89.701 114.430  0.00  0.00    -0.241 OA
ENDBRANCH   3  22
TORSDOF 7
ENDMDL
MODEL 3
REMARK VINA RESULT:      -5.3      1.891      4.830
REMARK  7 active torsions:
REMARK  status: ('A' for Active; 'I' for Inactive)
REMARK    1  A    between atoms: C_2  and  C_3 
REMARK    2  A    between atoms: C_3  and  O_6 
REMARK    3  A    between atoms: C_3  and  C_4 
REMARK    4  A    between atoms: C_7  and  O_6 
REMARK    5  A    between atoms: C_9  and  C_10 
REMARK    6  A    between atoms: N_15  and  C_14 
REMARK    7  A    between atoms: N_20  and  C_19 
REMARK       I    between atoms: C_22  and  N_20 
ROOT
ATOM      1  C   LIG d   1      -6.689  93.642 117.822  0.00  0.00     0.161 C 
ATOM      2  C   LIG d   1      -7.147  92.456 117.223  0.00  0.00     0.016 C 
ATOM      3  C   LIG d   1      -6.298  91.376 116.887  0.00  0.00     0.038 C 
ATOM      4  C   LIG d   1      -4.948  91.348 117.269  0.00  0.00     0.028 C 
ATOM      5  C   LIG d   1      -4.334  92.734 117.425  0.00  0.00    -0.047 C 
ATOM      6  C   LIG d   1      -5.239  93.584 118.346  0.00  0.00     0.091 C 
ENDROOT
BRANCH   1   7
ATOM      7  O   LIG d   1      -7.588  94.034 118.878  0.00  0.00    -0.368 OA
BRANCH   7   8
ATOM      8  C   LIG d   1      -8.395  95.210 118.624  0.00  0.00     0.119 C 
BRANCH   8   9
ATOM      9  C   LIG d   1      -7.933  95.807 117.281  0.00  0.00     0.028 C 
ATOM     10  C   LIG d   1      -7.792  97.338 117.336  0.00  0.00     0.006 C 
ENDBRANCH   8   9
BRANCH   8  11
ATOM     11  C   LIG d   1      -8.132  96.302 119.665  0.00  0.00     0.028 C 
ATOM     12  C   LIG d   1      -7.862  95.735 121.068  0.00  0.00     0.006 C 
ENDBRANCH   8  11
ENDBRANCH   7   8
ENDBRANCH   1   7
BRANCH   6  13
ATOM     13  N   LIG d   1      -4.755  94.982 118.485  0.00  0.00    -0.311 N 
ATOM     14  C   LIG d   1      -4.433  95.534 119.653  0.00  0.00     0.210 C 
ATOM     15  C   LIG d   1      -3.975  96.993 119.575  0.00  0.00     0.109 C 
ATOM     16  O   LIG d   1      -4.452  94.943 120.744  0.00  0.00    -0.276 OA
ATOM     17  H   LIG d   1      -4.679  95.523 117.646  0.00  0.00     0.149 HD
ENDBRANCH   6  13
BRANCH   5  18
ATOM     18  N   LIG d   1      -2.969  92.560 117.957  0.00  0.00     0.381 N 
ATOM     19  H   LIG d   1      -2.737  91.587 117.982  0.00  0.00    -0.090 HD
ATOM     20  H   LIG d   1      -2.938  92.915 118.896  0.00  0.00    -0.090 HD
ATOM     21  H   LIG d   1      -2.315  93.050 117.387  0.00  0.00    -0.090 HD
ENDBRANCH   5  18
BRANCH   3  22
ATOM     22  C   LIG d   1      -6.790  90.326 116.127  0.00  0.00     0.382 C 
ATOM     23  O   LIG d   1      -6.155  89.930 115.120  0.00  0.00    -0.241 OA
ATOM     24  O   LIG d   1      -7.883  89.799 116.409  0.00  0.00    -0.241 OA
ENDBRANCH   3  22
TORSDOF 7
ENDMDL
MODEL 4
REMARK VINA RESULT:      -5.2      2.233      4.646
REMARK  7 active torsions:
REMARK  status: ('A' for Active; 'I' for Inactive)
REMARK    1  A    between atoms: C_2  and  C_3 
REMARK    2  A    between atoms: C_3  and  O_6 
REMARK    3  A    between atoms: C_3  and  C_4 
REMARK    4  A    between atoms: C_7  and  O_6 
REMARK    5  A    between atoms: C_9  and  C_10 
REMARK    6  A    between atoms: N_15  and  C_14 
REMARK    7  A    between atoms: N_20  and  C_19 
REMARK       I    between atoms: C_22  and  N_20 
ROOT
ATOM      1  C   LIG d   1      -4.638  92.769 117.523  0.00  0.00     0.161 C 
ATOM      2  C   LIG d   1      -4.076  93.644 118.467  0.00  0.00     0.016 C 
ATOM      3  C   LIG d   1      -4.768  94.749 119.014  0.00  0.00     0.038 C 
ATOM      4  C   LIG d   1      -6.132  94.965 118.766  0.00  0.00     0.028 C 
ATOM      5  C   LIG d   1      -6.601  94.402 117.429  0.00  0.00    -0.047 C 
ATOM      6  C   LIG d   1      -6.161  92.924 117.324  0.00  0.00     0.091 C 
ENDROOT
BRANCH   1   7
ATOM      7  O   LIG d   1      -4.314  91.407 117.866  0.00  0.00    -0.368 OA
BRANCH   7   8
ATOM      8  C   LIG d   1      -3.186  91.225 118.757  0.00  0.00     0.119 C 
BRANCH   8   9
ATOM      9  C   LIG d   1      -2.170  90.317 118.037  0.00  0.00     0.028 C 
ATOM     10  C   LIG d   1      -2.763  88.945 117.674  0.00  0.00     0.006 C 
ENDBRANCH   8   9
BRANCH   8  11
ATOM     11  C   LIG d   1      -3.591  90.460 120.020  0.00  0.00     0.028 C 
ATOM     12  C   LIG d   1      -3.584  91.341 121.279  0.00  0.00     0.006 C 
ENDBRANCH   8  11
ENDBRANCH   7   8
ENDBRANCH   1   7
BRANCH   6  13
ATOM     13  N   LIG d   1      -6.506  92.321 116.011  0.00  0.00    -0.311 N 
ATOM     14  C   LIG d   1      -6.983  91.085 115.874  0.00  0.00     0.210 C 
ATOM     15  C   LIG d   1      -7.254  90.652 114.430  0.00  0.00     0.109 C 
ATOM     16  O   LIG d   1      -7.236  90.317 116.814  0.00  0.00    -0.276 OA
ATOM     17  H   LIG d   1      -6.361  92.886 115.197  0.00  0.00     0.149 HD
ENDBRANCH   6  13
BRANCH   5  18
ATOM     18  N   LIG d   1      -8.064  94.576 117.361  0.00  0.00     0.381 N 
ATOM     19  H   LIG d   1      -8.470  94.383 118.255  0.00  0.00    -0.090 HD
ATOM     20  H   LIG d   1      -8.439  93.921 116.697  0.00  0.00    -0.090 HD
ATOM     21  H   LIG d   1      -8.285  95.506 117.082  0.00  0.00    -0.090 HD
ENDBRANCH   5  18
BRANCH   3  22
ATOM     22  C   LIG d   1      -4.085  95.673 119.789  0.00  0.00     0.382 C 
ATOM     23  O   LIG d   1      -3.961  95.488 121.024  0.00  0.00    -0.241 OA
ATOM     24  O   LIG d   1      -3.629  96.713 119.277  0.00  0.00    -0.241 OA
ENDBRANCH   3  22
TORSDOF 7
ENDMDL
MODEL 5
REMARK VINA RESULT:      -5.1      2.309      5.008
REMARK  7 active torsions:
REMARK  status: ('A' for Active; 'I' for Inactive)
REMARK    1  A    between atoms: C_2  and  C_3 
REMARK    2  A    between atoms: C_3  and  O_6 
REMARK    3  A    between atoms: C_3  and  C_4 
REMARK    4  A    between atoms: C_7  and  O_6 
REMARK    5  A    between atoms: C_9  and  C_10 
REMARK    6  A    between atoms: N_15  and  C_14 
REMARK    7  A    between atoms: N_20  and  C_19 
REMARK       I    between atoms: C_22  and  N_20 
ROOT
ATOM      1  C   LIG d   1      -4.626  92.769 118.131  0.00  0.00     0.161 C 
ATOM      2  C   LIG d   1      -5.651  92.821 117.172  0.00  0.00     0.016 C 
ATOM      3  C   LIG d   1      -5.917  91.774 116.260  0.00  0.00     0.038 C 
ATOM      4  C   LIG d   1      -5.269  90.533 116.347  0.00  0.00     0.028 C 
ATOM      5  C   LIG d   1      -3.881  90.617 116.973  0.00  0.00    -0.047 C 
ATOM      6  C   LIG d   1      -3.981  91.379 118.314  0.00  0.00     0.091 C 
ENDROOT
BRANCH   1   7
ATOM      7  O   LIG d   1      -5.113  93.265 119.394  0.00  0.00    -0.368 OA
BRANCH   7   8
ATOM      8  C   LIG d   1      -6.378  92.724 119.846  0.00  0.00     0.119 C 
BRANCH   8   9
ATOM      9  C   LIG d   1      -7.301  93.915 120.172  0.00  0.00     0.028 C 
ATOM     10  C   LIG d   1      -8.583  93.913 119.324  0.00  0.00     0.006 C 
ENDBRANCH   8   9
BRANCH   8  11
ATOM     11  C   LIG d   1      -6.219  91.962 121.165  0.00  0.00     0.028 C 
ATOM     12  C   LIG d   1      -4.890  92.268 121.873  0.00  0.00     0.006 C 
ENDBRANCH   8  11
ENDBRANCH   7   8
ENDBRANCH   1   7
BRANCH   6  13
ATOM     13  N   LIG d   1      -2.654  91.580 118.952  0.00  0.00    -0.311 N 
ATOM     14  C   LIG d   1      -2.147  90.752 119.864  0.00  0.00     0.210 C 
ATOM     15  C   LIG d   1      -0.772  91.155 120.409  0.00  0.00     0.109 C 
ATOM     16  O   LIG d   1      -2.690  89.707 120.250  0.00  0.00    -0.276 OA
ATOM     17  H   LIG d   1      -2.131  92.387 118.674  0.00  0.00     0.149 HD
ENDBRANCH   6  13
BRANCH   5  18
ATOM     18  N   LIG d   1      -3.378  89.239 117.127  0.00  0.00     0.381 N 
ATOM     19  H   LIG d   1      -2.700  89.044 116.418  0.00  0.00    -0.090 HD
ATOM     20  H   LIG d   1      -4.144  88.598 117.015  0.00  0.00    -0.090 HD
ATOM     21  H   LIG d   1      -2.969  89.124 118.028  0.00  0.00    -0.090 HD
ENDBRANCH   5  18
BRANCH   3  22
ATOM     22  C   LIG d   1      -6.814  91.978 115.223  0.00  0.00     0.382 C 
ATOM     23  O   LIG d   1      -6.970  93.127 114.745  0.00  0.00    -0.241 OA
ATOM     24  O   LIG d   1      -7.502  91.035 114.788  0.00  0.00    -0.241 OA
ENDBRANCH   3  22
TORSDOF 7
ENDMDL
MODEL 6
REMARK VINA RESULT:      -4.9      1.395      2.140
REMARK  7 active torsions:
REMARK  status: ('A' for Active; 'I' for Inactive)
REMARK    1  A    between atoms: C_2  and  C_3 
REMARK    2  A    between atoms: C_3  and  O_6 
REMARK    3  A    between atoms: C_3  and  C_4 
REMARK    4  A    between atoms: C_7  and  O_6 
REMARK    5  A    between atoms: C_9  and  C_10 
REMARK    6  A    between atoms: N_15  and  C_14 
REMARK    7  A    between atoms: N_20  and  C_19 
REMARK       I    between atoms: C_22  and  N_20 
ROOT
ATOM      1  C   LIG d   1      -5.183  93.011 118.273  0.00  0.00     0.161 C 
ATOM      2  C   LIG d   1      -4.173  93.589 119.059  0.00  0.00     0.016 C 
ATOM      3  C   LIG d   1      -2.870  93.051 119.171  0.00  0.00     0.038 C 
ATOM      4  C   LIG d   1      -2.442  91.975 118.379  0.00  0.00     0.028 C 
ATOM      5  C   LIG d   1      -3.576  91.051 117.948  0.00  0.00    -0.047 C 
ATOM      6  C   LIG d   1      -4.702  91.900 117.316  0.00  0.00     0.091 C 
ENDROOT
BRANCH   1   7
ATOM      7  O   LIG d   1      -5.879  94.038 117.539  0.00  0.00    -0.368 OA
BRANCH   7   8
ATOM      8  C   LIG d   1      -7.250  94.287 117.936  0.00  0.00     0.119 C 
BRANCH   8   9
ATOM      9  C   LIG d   1      -7.330  95.741 118.439  0.00  0.00     0.028 C 
ATOM     10  C   LIG d   1      -8.003  96.677 117.421  0.00  0.00     0.006 C 
ENDBRANCH   8   9
BRANCH   8  11
ATOM     11  C   LIG d   1      -7.649  93.421 119.136  0.00  0.00     0.028 C 
ATOM     12  C   LIG d   1      -8.079  94.253 120.354  0.00  0.00     0.006 C 
ENDBRANCH   8  11
ENDBRANCH   7   8
ENDBRANCH   1   7
BRANCH   6  13
ATOM     13  N   LIG d   1      -5.886  91.083 116.943  0.00  0.00    -0.311 N 
ATOM     14  C   LIG d   1      -6.533  91.215 115.786  0.00  0.00     0.210 C 
ATOM     15  C   LIG d   1      -7.740  90.289 115.611  0.00  0.00     0.109 C 
ATOM     16  O   LIG d   1      -6.202  91.989 114.875  0.00  0.00    -0.276 OA
ATOM     17  H   LIG d   1      -6.204  90.409 117.611  0.00  0.00     0.149 HD
ENDBRANCH   6  13
BRANCH   5  18
ATOM     18  N   LIG d   1      -3.011  90.055 117.018  0.00  0.00     0.381 N 
ATOM     19  H   LIG d   1      -2.057  90.282 116.817  0.00  0.00    -0.090 HD
ATOM     20  H   LIG d   1      -3.529  90.083 116.158  0.00  0.00    -0.090 HD
ATOM     21  H   LIG d   1      -3.066  89.145 117.418  0.00  0.00    -0.090 HD
ENDBRANCH   5  18
BRANCH   3  22
ATOM     22  C   LIG d   1      -1.992  93.566 120.112  0.00  0.00     0.382 C 
ATOM     23  O   LIG d   1      -1.268  92.793 120.784  0.00  0.00    -0.241 OA
ATOM     24  O   LIG d   1      -1.947  94.792 120.329  0.00  0.00    -0.241 OA
ENDBRANCH   3  22
TORSDOF 7
ENDMDL
MODEL 7
REMARK VINA RESULT:      -4.9      2.028      5.081
REMARK  7 active torsions:
REMARK  status: ('A' for Active; 'I' for Inactive)
REMARK    1  A    between atoms: C_2  and  C_3 
REMARK    2  A    between atoms: C_3  and  O_6 
REMARK    3  A    between atoms: C_3  and  C_4 
REMARK    4  A    between atoms: C_7  and  O_6 
REMARK    5  A    between atoms: C_9  and  C_10 
REMARK    6  A    between atoms: N_15  and  C_14 
REMARK    7  A    between atoms: N_20  and  C_19 
REMARK       I    between atoms: C_22  and  N_20 
ROOT
ATOM      1  C   LIG d   1      -5.191  93.299 117.737  0.00  0.00     0.161 C 
ATOM      2  C   LIG d   1      -5.938  92.579 116.790  0.00  0.00     0.016 C 
ATOM      3  C   LIG d   1      -5.675  91.232 116.452  0.00  0.00     0.038 C 
ATOM      4  C   LIG d   1      -4.734  90.462 117.152  0.00  0.00     0.028 C 
ATOM      5  C   LIG d   1      -3.612  91.290 117.769  0.00  0.00    -0.047 C 
ATOM      6  C   LIG d   1      -4.232  92.443 118.591  0.00  0.00     0.091 C 
ENDROOT
BRANCH   1   7
ATOM      7  O   LIG d   1      -6.076  94.057 118.585  0.00  0.00    -0.368 OA
BRANCH   7   8
ATOM      8  C   LIG d   1      -7.021  93.288 119.369  0.00  0.00     0.119 C 
BRANCH   8   9
ATOM      9  C   LIG d   1      -8.410  93.928 119.178  0.00  0.00     0.028 C 
ATOM     10  C   LIG d   1      -8.353  95.211 118.332  0.00  0.00     0.006 C 
ENDBRANCH   8   9
BRANCH   8  11
ATOM     11  C   LIG d   1      -6.725  93.401 120.867  0.00  0.00     0.028 C 
ATOM     12  C   LIG d   1      -6.549  92.032 121.544  0.00  0.00     0.006 C 
ENDBRANCH   8  11
ENDBRANCH   7   8
ENDBRANCH   1   7
BRANCH   6  13
ATOM     13  N   LIG d   1      -3.203  93.351 119.160  0.00  0.00    -0.311 N 
ATOM     14  C   LIG d   1      -2.714  93.225 120.392  0.00  0.00     0.210 C 
ATOM     15  C   LIG d   1      -1.675  94.280 120.787  0.00  0.00     0.109 C 
ATOM     16  O   LIG d   1      -3.018  92.321 121.185  0.00  0.00    -0.276 OA
ATOM     17  H   LIG d   1      -2.877  94.095 118.574  0.00  0.00     0.149 HD
ENDBRANCH   6  13
BRANCH   5  18
ATOM     18  N   LIG d   1      -2.782  90.381 118.582  0.00  0.00     0.381 N 
ATOM     19  H   LIG d   1      -2.210  89.819 117.985  0.00  0.00    -0.090 HD
ATOM     20  H   LIG d   1      -3.386  89.772 119.106  0.00  0.00    -0.090 HD
ATOM     21  H   LIG d   1      -2.209  90.907 119.204  0.00  0.00    -0.090 HD
ENDBRANCH   5  18
BRANCH   3  22
ATOM     22  C   LIG d   1      -6.329  90.653 115.375  0.00  0.00     0.382 C 
ATOM     23  O   LIG d   1      -7.485  91.031 115.067  0.00  0.00    -0.241 OA
ATOM     24  O   LIG d   1      -5.795  89.727 114.735  0.00  0.00    -0.241 OA
ENDBRANCH   3  22
TORSDOF 7
ENDMDL
MODEL 8
REMARK VINA RESULT:      -4.8      2.357      5.640
REMARK  7 active torsions:
REMARK  status: ('A' for Active; 'I' for Inactive)
REMARK    1  A    between atoms: C_2  and  C_3 
REMARK    2  A    between atoms: C_3  and  O_6 
REMARK    3  A    between atoms: C_3  and  C_4 
REMARK    4  A    between atoms: C_7  and  O_6 
REMARK    5  A    between atoms: C_9  and  C_10 
REMARK    6  A    between atoms: N_15  and  C_14 
REMARK    7  A    between atoms: N_20  and  C_19 
REMARK       I    between atoms: C_22  and  N_20 
ROOT
ATOM      1  C   LIG d   1      -6.105  92.220 119.048  0.00  0.00     0.161 C 
ATOM      2  C   LIG d   1      -7.195  92.969 118.574  0.00  0.00     0.016 C 
ATOM      3  C   LIG d   1      -7.190  94.380 118.484  0.00  0.00     0.038 C 
ATOM      4  C   LIG d   1      -6.030  95.133 118.721  0.00  0.00     0.028 C 
ATOM      5  C   LIG d   1      -5.058  94.462 119.685  0.00  0.00    -0.047 C 
ATOM      6  C   LIG d   1      -4.793  93.017 119.206  0.00  0.00     0.091 C 
ENDROOT
BRANCH   1   7
ATOM      7  O   LIG d   1      -5.895  91.073 118.201  0.00  0.00    -0.368 OA
BRANCH   7   8
ATOM      8  C   LIG d   1      -5.124  91.302 116.996  0.00  0.00     0.119 C 
BRANCH   8   9
ATOM      9  C   LIG d   1      -6.122  91.559 115.850  0.00  0.00     0.028 C 
ATOM     10  C   LIG d   1      -7.174  90.444 115.727  0.00  0.00     0.006 C 
ENDBRANCH   8   9
BRANCH   8  11
ATOM     11  C   LIG d   1      -4.348  90.048 116.584  0.00  0.00     0.028 C 
ATOM     12  C   LIG d   1      -3.331  89.601 117.647  0.00  0.00     0.006 C 
ENDBRANCH   8  11
ENDBRANCH   7   8
ENDBRANCH   1   7
BRANCH   6  13
ATOM     13  N   LIG d   1      -3.918  92.261 120.140  0.00  0.00    -0.311 N 
ATOM     14  C   LIG d   1      -2.597  92.167 119.993  0.00  0.00     0.210 C 
ATOM     15  C   LIG d   1      -1.887  91.324 121.056  0.00  0.00     0.109 C 
ATOM     16  O   LIG d   1      -1.943  92.729 119.101  0.00  0.00    -0.276 OA
ATOM     17  H   LIG d   1      -4.362  91.801 120.910  0.00  0.00     0.149 HD
ENDBRANCH   6  13
BRANCH   5  18
ATOM     18  N   LIG d   1      -3.837  95.288 119.734  0.00  0.00     0.381 N 
ATOM     19  H   LIG d   1      -3.772  95.846 118.906  0.00  0.00    -0.090 HD
ATOM     20  H   LIG d   1      -3.036  94.683 119.770  0.00  0.00    -0.090 HD
ATOM     21  H   LIG d   1      -3.855  95.876 120.539  0.00  0.00    -0.090 HD
ENDBRANCH   5  18
BRANCH   3  22
ATOM     22  C   LIG d   1      -8.365  95.054 118.191  0.00  0.00     0.382 C 
ATOM     23  O   LIG d   1      -9.160  95.357 119.113  0.00  0.00    -0.241 OA
ATOM     24  O   LIG d   1      -8.662  95.324 117.012  0.00  0.00    -0.241 OA
ENDBRANCH   3  22
TORSDOF 7
ENDMDL
MODEL 9
REMARK VINA RESULT:      -4.8      2.676      6.058
REMARK  7 active torsions:
REMARK  status: ('A' for Active; 'I' for Inactive)
REMARK    1  A    between atoms: C_2  and  C_3 
REMARK    2  A    between atoms: C_3  and  O_6 
REMARK    3  A    between atoms: C_3  and  C_4 
REMARK    4  A    between atoms: C_7  and  O_6 
REMARK    5  A    between atoms: C_9  and  C_10 
REMARK    6  A    between atoms: N_15  and  C_14 
REMARK    7  A    between atoms: N_20  and  C_19 
REMARK       I    between atoms: C_22  and  N_20 
ROOT
ATOM      1  C   LIG d   1      -5.241  93.098 118.438  0.00  0.00     0.161 C 
ATOM      2  C   LIG d   1      -6.288  93.771 117.787  0.00  0.00     0.016 C 
ATOM      3  C   LIG d   1      -6.611  95.126 118.028  0.00  0.00     0.038 C 
ATOM      4  C   LIG d   1      -5.807  95.948 118.831  0.00  0.00     0.028 C 
ATOM      5  C   LIG d   1      -5.037  95.183 119.901  0.00  0.00    -0.047 C 
ATOM      6  C   LIG d   1      -4.284  94.009 119.235  0.00  0.00     0.091 C 
ENDROOT
BRANCH   1   7
ATOM      7  O   LIG d   1      -4.503  92.305 117.487  0.00  0.00    -0.368 OA
BRANCH   7   8
ATOM      8  C   LIG d   1      -4.945  90.936 117.319  0.00  0.00     0.119 C 
BRANCH   8   9
ATOM      9  C   LIG d   1      -3.691  90.041 117.323  0.00  0.00     0.028 C 
ATOM     10  C   LIG d   1      -2.456  90.762 117.889  0.00  0.00     0.006 C 
ENDBRANCH   8   9
BRANCH   8  11
ATOM     11  C   LIG d   1      -5.592  90.723 115.947  0.00  0.00     0.028 C 
ATOM     12  C   LIG d   1      -7.110  90.498 116.032  0.00  0.00     0.006 C 
ENDBRANCH   8  11
ENDBRANCH   7   8
ENDBRANCH   1   7
BRANCH   6  13
ATOM     13  N   LIG d   1      -3.572  93.158 120.224  0.00  0.00    -0.311 N 
ATOM     14  C   LIG d   1      -2.300  93.346 120.573  0.00  0.00     0.210 C 
ATOM     15  C   LIG d   1      -1.754  92.343 121.594  0.00  0.00     0.109 C 
ATOM     16  O   LIG d   1      -1.582  94.269 120.158  0.00  0.00    -0.276 OA
ATOM     17  H   LIG d   1      -4.089  92.404 120.633  0.00  0.00     0.149 HD
ENDBRANCH   6  13
BRANCH   5  18
ATOM     18  N   LIG d   1      -4.137  96.139 120.573  0.00  0.00     0.381 N 
ATOM     19  H   LIG d   1      -3.620  95.672 121.291  0.00  0.00    -0.090 HD
ATOM     20  H   LIG d   1      -4.691  96.860 121.002  0.00  0.00    -0.090 HD
ATOM     21  H   LIG d   1      -3.511  96.541 119.911  0.00  0.00    -0.090 HD
ENDBRANCH   5  18
BRANCH   3  22
ATOM     22  C   LIG d   1      -7.773  95.661 117.493  0.00  0.00     0.382 C 
ATOM     23  O   LIG d   1      -7.822  96.878 117.192  0.00  0.00    -0.241 OA
ATOM     24  O   LIG d   1      -8.787  94.953 117.349  0.00  0.00    -0.241 OA
ENDBRANCH   3  22
TORSDOF 7
ENDMDL
