MODEL 1
REMARK VINA RESULT:      -5.4      0.000      0.000
REMARK  7 active torsions:
REMARK  status: ('A' for Active; 'I' for Inactive)
REMARK    1  A    between atoms: C_2  and  C_3 
REMARK    2  A    between atoms: C_3  and  O_6 
REMARK    3  A    between atoms: C_3  and  C_4 
REMARK    4  A    between atoms: C_7  and  O_6 
REMARK    5  A    between atoms: C_9  and  C_10 
REMARK    6  A    between atoms: N_15  and  C_14 
REMARK    7  A    between atoms: N_20  and  C_19 
REMARK       I    between atoms: C_22  and  N_20 
ROOT
ATOM      1  C   LIG d   1      -4.947  93.035 117.153  0.00  0.00     0.161 C 
ATOM      2  C   LIG d   1      -5.376  94.238 117.739  0.00  0.00     0.016 C 
ATOM      3  C   LIG d   1      -6.643  94.815 117.490  0.00  0.00     0.038 C 
ATOM      4  C   LIG d   1      -7.630  94.147 116.752  0.00  0.00     0.028 C 
ATOM      5  C   LIG d   1      -7.063  93.169 115.728  0.00  0.00    -0.047 C 
ATOM      6  C   LIG d   1      -6.052  92.235 116.433  0.00  0.00     0.091 C 
ENDROOT
BRANCH   1   7
ATOM      7  O   LIG d   1      -4.299  92.213 118.145  0.00  0.00    -0.368 OA
BRANCH   7   8
ATOM      8  C   LIG d   1      -2.855  92.135 118.063  0.00  0.00     0.119 C 
BRANCH   8   9
ATOM      9  C   LIG d   1      -2.490  90.685 117.690  0.00  0.00     0.028 C 
ATOM     10  C   LIG d   1      -3.276  89.652 118.514  0.00  0.00     0.006 C 
ENDBRANCH   8   9
BRANCH   8  11
ATOM     11  C   LIG d   1      -2.205  92.378 119.429  0.00  0.00     0.028 C 
ATOM     12  C   LIG d   1      -3.208  92.862 120.488  0.00  0.00     0.006 C 
ENDBRANCH   8  11
ENDBRANCH   7   8
ENDBRANCH   1   7
BRANCH   6  13
ATOM     13  N   LIG d   1      -5.388  91.302 115.486  0.00  0.00    -0.311 N 
ATOM     14  C   LIG d   1      -5.482  89.976 115.577  0.00  0.00     0.210 C 
ATOM     15  C   LIG d   1      -4.703  89.199 114.511  0.00  0.00     0.109 C 
ATOM     16  O   LIG d   1      -6.162  89.371 116.419  0.00  0.00    -0.276 OA
ATOM     17  H   LIG d   1      -4.841  91.709 114.753  0.00  0.00     0.149 HD
ENDBRANCH   6  13
BRANCH   5  18
ATOM     18  N   LIG d   1      -8.199  92.443 115.129  0.00  0.00     0.381 N 
ATOM     19  H   LIG d   1      -8.854  92.191 115.842  0.00  0.00    -0.090 HD
ATOM     20  H   LIG d   1      -7.857  91.600 114.702  0.00  0.00    -0.090 HD
ATOM     21  H   LIG d   1      -8.645  93.013 114.444  0.00  0.00    -0.090 HD
ENDBRANCH   5  18
BRANCH   3  22
ATOM     22  C   LIG d   1      -6.917  96.094 117.950  0.00  0.00     0.382 C 
ATOM     23  O   LIG d   1      -7.241  96.996 117.140  0.00  0.00    -0.241 OA
ATOM     24  O   LIG d   1      -6.801  96.369 119.160  0.00  0.00    -0.241 OA
ENDBRANCH   3  22
TORSDOF 7
ENDMDL
MODEL 2
REMARK VINA RESULT:      -5.4      1.752      4.895
REMARK  7 active torsions:
REMARK  status: ('A' for Active; 'I' for Inactive)
REMARK    1  A    between atoms: C_2  and  C_3 
REMARK    2  A    between atoms: C_3  and  O_6 
REMARK    3  A    between atoms: C_3  and  C_4 
REMARK    4  A    between atoms: C_7  and  O_6 
REMARK    5  A    between atoms: C_9  and  C_10 
REMARK    6  A    between atoms: N_15  and  C_14 
REMARK    7  A    between atoms: N_20  and  C_19 
REMARK       I    between atoms: C_22  and  N_20 
ROOT
ATOM      1  C   LIG d   1      -5.338  91.491 118.006  0.00  0.00     0.161 C 
ATOM      2  C   LIG d   1      -4.619  90.469 117.364  0.00  0.00     0.016 C 
ATOM      3  C   LIG d   1      -4.910  90.017 116.056  0.00  0.00     0.038 C 
ATOM      4  C   LIG d   1      -5.848  90.664 115.239  0.00  0.00     0.028 C 
ATOM      5  C   LIG d   1      -6.946  91.375 116.023  0.00  0.00    -0.047 C 
ATOM      6  C   LIG d   1      -6.293  92.284 117.089  0.00  0.00     0.091 C 
ENDROOT
BRANCH   1   7
ATOM      7  O   LIG d   1      -4.425  92.385 118.672  0.00  0.00    -0.368 OA
BRANCH   7   8
ATOM      8  C   LIG d   1      -3.299  92.848 117.887  0.00  0.00     0.119 C 
BRANCH   8   9
ATOM      9  C   LIG d   1      -2.023  92.593 118.713  0.00  0.00     0.028 C 
ATOM     10  C   LIG d   1      -0.812  92.249 117.830  0.00  0.00     0.006 C 
ENDBRANCH   8   9
BRANCH   8  11
ATOM     11  C   LIG d   1      -3.351  94.365 117.679  0.00  0.00     0.028 C 
ATOM     12  C   LIG d   1      -4.225  95.080 118.722  0.00  0.00     0.006 C 
ENDBRANCH   8  11
ENDBRANCH   7   8
ENDBRANCH   1   7
BRANCH   6  13
ATOM     13  N   LIG d   1      -7.297  92.953 117.957  0.00  0.00    -0.311 N 
ATOM     14  C   LIG d   1      -7.752  94.185 117.736  0.00  0.00     0.210 C 
ATOM     15  C   LIG d   1      -8.769  94.692 118.763  0.00  0.00     0.109 C 
ATOM     16  O   LIG d   1      -7.434  94.894 116.770  0.00  0.00    -0.276 OA
ATOM     17  H   LIG d   1      -7.633  92.437 118.747  0.00  0.00     0.149 HD
ENDBRANCH   6  13
BRANCH   5  18
ATOM     18  N   LIG d   1      -7.773  92.121 115.056  0.00  0.00     0.381 N 
ATOM     19  H   LIG d   1      -7.414  93.048 114.947  0.00  0.00    -0.090 HD
ATOM     20  H   LIG d   1      -8.711  92.185 115.412  0.00  0.00    -0.090 HD
ATOM     21  H   LIG d   1      -7.775  91.652 114.177  0.00  0.00    -0.090 HD
ENDBRANCH   5  18
BRANCH   3  22
ATOM     22  C   LIG d   1      -4.285  88.879 115.567  0.00  0.00     0.382 C 
ATOM     23  O   LIG d   1      -4.582  88.440 114.430  0.00  0.00    -0.241 OA
ATOM     24  O   LIG d   1      -3.461  88.261 116.268  0.00  0.00    -0.241 OA
ENDBRANCH   3  22
TORSDOF 7
ENDMDL
MODEL 3
REMARK VINA RESULT:      -5.3      2.244      4.074
REMARK  7 active torsions:
REMARK  status: ('A' for Active; 'I' for Inactive)
REMARK    1  A    between atoms: C_2  and  C_3 
REMARK    2  A    between atoms: C_3  and  O_6 
REMARK    3  A    between atoms: C_3  and  C_4 
REMARK    4  A    between atoms: C_7  and  O_6 
REMARK    5  A    between atoms: C_9  and  C_10 
REMARK    6  A    between atoms: N_15  and  C_14 
REMARK    7  A    between atoms: N_20  and  C_19 
REMARK       I    between atoms: C_22  and  N_20 
ROOT
ATOM      1  C   LIG d   1      -5.653  92.909 116.935  0.00  0.00     0.161 C 
ATOM      2  C   LIG d   1      -6.903  93.348 117.402  0.00  0.00     0.016 C 
ATOM      3  C   LIG d   1      -7.058  94.361 118.376  0.00  0.00     0.038 C 
ATOM      4  C   LIG d   1      -5.969  95.114 118.841  0.00  0.00     0.028 C 
ATOM      5  C   LIG d   1      -4.642  94.366 118.774  0.00  0.00    -0.047 C 
ATOM      6  C   LIG d   1      -4.460  93.795 117.349  0.00  0.00     0.091 C 
ENDROOT
BRANCH   1   7
ATOM      7  O   LIG d   1      -5.693  92.759 115.502  0.00  0.00    -0.368 OA
BRANCH   7   8
ATOM      8  C   LIG d   1      -5.780  91.401 115.005  0.00  0.00     0.119 C 
BRANCH   8   9
ATOM      9  C   LIG d   1      -7.217  91.188 114.490  0.00  0.00     0.028 C 
ATOM     10  C   LIG d   1      -7.900  89.973 115.140  0.00  0.00     0.006 C 
ENDBRANCH   8   9
BRANCH   8  11
ATOM     11  C   LIG d   1      -5.599  90.382 116.134  0.00  0.00     0.028 C 
ATOM     12  C   LIG d   1      -4.388  89.461 115.917  0.00  0.00     0.006 C 
ENDBRANCH   8  11
ENDBRANCH   7   8
ENDBRANCH   1   7
BRANCH   6  13
ATOM     13  N   LIG d   1      -3.226  92.977 117.220  0.00  0.00    -0.311 N 
ATOM     14  C   LIG d   1      -2.911  91.989 118.055  0.00  0.00     0.210 C 
ATOM     15  C   LIG d   1      -1.583  91.286 117.754  0.00  0.00     0.109 C 
ATOM     16  O   LIG d   1      -3.620  91.606 118.998  0.00  0.00    -0.276 OA
ATOM     17  H   LIG d   1      -2.609  93.199 116.464  0.00  0.00     0.149 HD
ENDBRANCH   6  13
BRANCH   5  18
ATOM     18  N   LIG d   1      -3.578  95.312 119.158  0.00  0.00     0.381 N 
ATOM     19  H   LIG d   1      -3.770  95.690 120.064  0.00  0.00    -0.090 HD
ATOM     20  H   LIG d   1      -3.562  96.070 118.498  0.00  0.00    -0.090 HD
ATOM     21  H   LIG d   1      -2.696  94.849 119.164  0.00  0.00    -0.090 HD
ENDBRANCH   5  18
BRANCH   3  22
ATOM     22  C   LIG d   1      -8.308  94.603 118.924  0.00  0.00     0.382 C 
ATOM     23  O   LIG d   1      -8.520  95.664 119.558  0.00  0.00    -0.241 OA
ATOM     24  O   LIG d   1      -9.214  93.753 118.830  0.00  0.00    -0.241 OA
ENDBRANCH   3  22
TORSDOF 7
ENDMDL
MODEL 4
REMARK VINA RESULT:      -5.3      2.352      5.315
REMARK  7 active torsions:
REMARK  status: ('A' for Active; 'I' for Inactive)
REMARK    1  A    between atoms: C_2  and  C_3 
REMARK    2  A    between atoms: C_3  and  O_6 
REMARK    3  A    between atoms: C_3  and  C_4 
REMARK    4  A    between atoms: C_7  and  O_6 
REMARK    5  A    between atoms: C_9  and  C_10 
REMARK    6  A    between atoms: N_15  and  C_14 
REMARK    7  A    between atoms: N_20  and  C_19 
REMARK       I    between atoms: C_22  and  N_20 
ROOT
ATOM      1  C   LIG d   1      -5.596  92.786 117.176  0.00  0.00     0.161 C 
ATOM      2  C   LIG d   1      -6.623  91.914 116.780  0.00  0.00     0.016 C 
ATOM      3  C   LIG d   1      -6.405  90.561 116.431  0.00  0.00     0.038 C 
ATOM      4  C   LIG d   1      -5.157  89.944 116.602  0.00  0.00     0.028 C 
ATOM      5  C   LIG d   1      -3.984  90.915 116.517  0.00  0.00    -0.047 C 
ATOM      6  C   LIG d   1      -4.245  92.101 117.474  0.00  0.00     0.091 C 
ENDROOT
BRANCH   1   7
ATOM      7  O   LIG d   1      -6.025  93.563 118.311  0.00  0.00    -0.368 OA
BRANCH   7   8
ATOM      8  C   LIG d   1      -6.144  94.991 118.097  0.00  0.00     0.119 C 
BRANCH   8   9
ATOM      9  C   LIG d   1      -5.209  95.689 119.104  0.00  0.00     0.028 C 
ATOM     10  C   LIG d   1      -5.068  94.902 120.417  0.00  0.00     0.006 C 
ENDBRANCH   8   9
BRANCH   8  11
ATOM     11  C   LIG d   1      -7.551  95.490 118.437  0.00  0.00     0.028 C 
ATOM     12  C   LIG d   1      -8.477  94.368 118.933  0.00  0.00     0.006 C 
ENDBRANCH   8  11
ENDBRANCH   7   8
ENDBRANCH   1   7
BRANCH   6  13
ATOM     13  N   LIG d   1      -3.186  93.140 117.391  0.00  0.00    -0.311 N 
ATOM     14  C   LIG d   1      -2.350  93.416 118.390  0.00  0.00     0.210 C 
ATOM     15  C   LIG d   1      -1.346  94.537 118.103  0.00  0.00     0.109 C 
ATOM     16  O   LIG d   1      -2.323  92.817 119.476  0.00  0.00    -0.276 OA
ATOM     17  H   LIG d   1      -3.117  93.653 116.534  0.00  0.00     0.149 HD
ENDBRANCH   6  13
BRANCH   5  18
ATOM     18  N   LIG d   1      -2.759  90.164 116.849  0.00  0.00     0.381 N 
ATOM     19  H   LIG d   1      -2.074  90.785 117.231  0.00  0.00    -0.090 HD
ATOM     20  H   LIG d   1      -2.386  89.762 116.007  0.00  0.00    -0.090 HD
ATOM     21  H   LIG d   1      -2.967  89.444 117.505  0.00  0.00    -0.090 HD
ENDBRANCH   5  18
BRANCH   3  22
ATOM     22  C   LIG d   1      -7.434  89.821 115.868  0.00  0.00     0.382 C 
ATOM     23  O   LIG d   1      -7.693  89.937 114.646  0.00  0.00    -0.241 OA
ATOM     24  O   LIG d   1      -8.136  89.074 116.576  0.00  0.00    -0.241 OA
ENDBRANCH   3  22
TORSDOF 7
ENDMDL
MODEL 5
REMARK VINA RESULT:      -5.0      1.949      4.648
REMARK  7 active torsions:
REMARK  status: ('A' for Active; 'I' for Inactive)
REMARK    1  A    between atoms: C_2  and  C_3 
REMARK    2  A    between atoms: C_3  and  O_6 
REMARK    3  A    between atoms: C_3  and  C_4 
REMARK    4  A    between atoms: C_7  and  O_6 
REMARK    5  A    between atoms: C_9  and  C_10 
REMARK    6  A    between atoms: N_15  and  C_14 
REMARK    7  A    between atoms: N_20  and  C_19 
REMARK       I    between atoms: C_22  and  N_20 
ROOT
ATOM      1  C   LIG d   1      -5.198  93.210 117.232  0.00  0.00     0.161 C 
ATOM      2  C   LIG d   1      -5.122  91.823 117.022  0.00  0.00     0.016 C 
ATOM      3  C   LIG d   1      -6.104  91.089 116.318  0.00  0.00     0.038 C 
ATOM      4  C   LIG d   1      -7.158  91.719 115.641  0.00  0.00     0.028 C 
ATOM      5  C   LIG d   1      -7.551  93.062 116.249  0.00  0.00    -0.047 C 
ATOM      6  C   LIG d   1      -6.283  93.932 116.406  0.00  0.00     0.091 C 
ENDROOT
BRANCH   1   7
ATOM      7  O   LIG d   1      -3.908  93.811 116.998  0.00  0.00    -0.368 OA
BRANCH   7   8
ATOM      8  C   LIG d   1      -3.364  94.597 118.087  0.00  0.00     0.119 C 
BRANCH   8   9
ATOM      9  C   LIG d   1      -1.829  94.473 118.025  0.00  0.00     0.028 C 
ATOM     10  C   LIG d   1      -1.347  93.031 118.254  0.00  0.00     0.006 C 
ENDBRANCH   8   9
BRANCH   8  11
ATOM     11  C   LIG d   1      -3.763  94.016 119.447  0.00  0.00     0.028 C 
ATOM     12  C   LIG d   1      -4.126  95.100 120.474  0.00  0.00     0.006 C 
ENDBRANCH   8  11
ENDBRANCH   7   8
ENDBRANCH   1   7
BRANCH   6  13
ATOM     13  N   LIG d   1      -6.566  95.230 117.071  0.00  0.00    -0.311 N 
ATOM     14  C   LIG d   1      -7.115  95.330 118.280  0.00  0.00     0.210 C 
ATOM     15  C   LIG d   1      -7.340  96.764 118.772  0.00  0.00     0.109 C 
ATOM     16  O   LIG d   1      -7.409  94.368 119.006  0.00  0.00    -0.276 OA
ATOM     17  H   LIG d   1      -6.330  96.062 116.567  0.00  0.00     0.149 HD
ENDBRANCH   6  13
BRANCH   5  18
ATOM     18  N   LIG d   1      -8.564  93.671 115.366  0.00  0.00     0.381 N 
ATOM     19  H   LIG d   1      -8.443  93.338 114.431  0.00  0.00    -0.090 HD
ATOM     20  H   LIG d   1      -8.437  94.667 115.365  0.00  0.00    -0.090 HD
ATOM     21  H   LIG d   1      -9.479  93.445 115.690  0.00  0.00    -0.090 HD
ENDBRANCH   5  18
BRANCH   3  22
ATOM     22  C   LIG d   1      -6.057  89.703 116.320  0.00  0.00     0.382 C 
ATOM     23  O   LIG d   1      -7.118  89.040 116.424  0.00  0.00    -0.241 OA
ATOM     24  O   LIG d   1      -4.965  89.107 116.263  0.00  0.00    -0.241 OA
ENDBRANCH   3  22
TORSDOF 7
ENDMDL
MODEL 6
REMARK VINA RESULT:      -4.7      2.144      4.174
REMARK  7 active torsions:
REMARK  status: ('A' for Active; 'I' for Inactive)
REMARK    1  A    between atoms: C_2  and  C_3 
REMARK    2  A    between atoms: C_3  and  O_6 
REMARK    3  A    between atoms: C_3  and  C_4 
REMARK    4  A    between atoms: C_7  and  O_6 
REMARK    5  A    between atoms: C_9  and  C_10 
REMARK    6  A    between atoms: N_15  and  C_14 
REMARK    7  A    between atoms: N_20  and  C_19 
REMARK       I    between atoms: C_22  and  N_20 
ROOT
ATOM      1  C   LIG d   1      -5.630  91.291 117.620  0.00  0.00     0.161 C 
ATOM      2  C   LIG d   1      -6.601  92.244 117.270  0.00  0.00     0.016 C 
ATOM      3  C   LIG d   1      -6.357  93.637 117.263  0.00  0.00     0.038 C 
ATOM      4  C   LIG d   1      -5.073  94.165 117.461  0.00  0.00     0.028 C 
ATOM      5  C   LIG d   1      -4.175  93.274 118.312  0.00  0.00    -0.047 C 
ATOM      6  C   LIG d   1      -4.193  91.842 117.731  0.00  0.00     0.091 C 
ENDROOT
BRANCH   1   7
ATOM      7  O   LIG d   1      -5.674  90.187 116.694  0.00  0.00    -0.368 OA
BRANCH   7   8
ATOM      8  C   LIG d   1      -5.027  90.402 115.416  0.00  0.00     0.119 C 
BRANCH   8   9
ATOM      9  C   LIG d   1      -6.102  90.902 114.431  0.00  0.00     0.028 C 
ATOM     10  C   LIG d   1      -7.388  90.061 114.490  0.00  0.00     0.006 C 
ENDBRANCH   8   9
BRANCH   8  11
ATOM     11  C   LIG d   1      -4.515  89.086 114.822  0.00  0.00     0.028 C 
ATOM     12  C   LIG d   1      -3.600  88.314 115.787  0.00  0.00     0.006 C 
ENDBRANCH   8  11
ENDBRANCH   7   8
ENDBRANCH   1   7
BRANCH   6  13
ATOM     13  N   LIG d   1      -3.407  90.886 118.554  0.00  0.00    -0.311 N 
ATOM     14  C   LIG d   1      -2.148  90.547 118.281  0.00  0.00     0.210 C 
ATOM     15  C   LIG d   1      -1.529  89.530 119.245  0.00  0.00     0.109 C 
ATOM     16  O   LIG d   1      -1.475  91.016 117.352  0.00  0.00    -0.276 OA
ATOM     17  H   LIG d   1      -3.866  90.481 119.346  0.00  0.00     0.149 HD
ENDBRANCH   6  13
BRANCH   5  18
ATOM     18  N   LIG d   1      -2.829  93.877 118.323  0.00  0.00     0.381 N 
ATOM     19  H   LIG d   1      -2.732  94.475 119.119  0.00  0.00    -0.090 HD
ATOM     20  H   LIG d   1      -2.716  94.434 117.494  0.00  0.00    -0.090 HD
ATOM     21  H   LIG d   1      -2.136  93.162 118.349  0.00  0.00    -0.090 HD
ENDBRANCH   5  18
BRANCH   3  22
ATOM     22  C   LIG d   1      -7.414  94.519 117.096  0.00  0.00     0.382 C 
ATOM     23  O   LIG d   1      -8.569  94.079 116.881  0.00  0.00    -0.241 OA
ATOM     24  O   LIG d   1      -7.219  95.749 117.112  0.00  0.00    -0.241 OA
ENDBRANCH   3  22
TORSDOF 7
ENDMDL
MODEL 7
REMARK VINA RESULT:      -4.7      2.675      4.929
REMARK  7 active torsions:
REMARK  status: ('A' for Active; 'I' for Inactive)
REMARK    1  A    between atoms: C_2  and  C_3 
REMARK    2  A    between atoms: C_3  and  O_6 
REMARK    3  A    between atoms: C_3  and  C_4 
REMARK    4  A    between atoms: C_7  and  O_6 
REMARK    5  A    between atoms: C_9  and  C_10 
REMARK    6  A    between atoms: N_15  and  C_14 
REMARK    7  A    between atoms: N_20  and  C_19 
REMARK       I    between atoms: C_22  and  N_20 
ROOT
ATOM      1  C   LIG d   1      -4.153  90.647 117.572  0.00  0.00     0.161 C 
ATOM      2  C   LIG d   1      -5.193  90.014 116.872  0.00  0.00     0.016 C 
ATOM      3  C   LIG d   1      -6.290  90.708 116.313  0.00  0.00     0.038 C 
ATOM      4  C   LIG d   1      -6.345  92.110 116.285  0.00  0.00     0.028 C 
ATOM      5  C   LIG d   1      -5.570  92.768 117.422  0.00  0.00    -0.047 C 
ATOM      6  C   LIG d   1      -4.138  92.186 117.456  0.00  0.00     0.091 C 
ENDROOT
BRANCH   1   7
ATOM      7  O   LIG d   1      -2.884  90.101 117.161  0.00  0.00    -0.368 OA
BRANCH   7   8
ATOM      8  C   LIG d   1      -2.206  89.263 118.129  0.00  0.00     0.119 C 
BRANCH   8   9
ATOM      9  C   LIG d   1      -0.992  90.053 118.656  0.00  0.00     0.028 C 
ATOM     10  C   LIG d   1      -0.299  90.868 117.551  0.00  0.00     0.006 C 
ENDBRANCH   8   9
BRANCH   8  11
ATOM     11  C   LIG d   1      -1.621  88.011 117.470  0.00  0.00     0.028 C 
ATOM     12  C   LIG d   1      -1.948  86.723 118.242  0.00  0.00     0.006 C 
ENDBRANCH   8  11
ENDBRANCH   7   8
ENDBRANCH   1   7
BRANCH   6  13
ATOM     13  N   LIG d   1      -3.338  92.714 118.592  0.00  0.00    -0.311 N 
ATOM     14  C   LIG d   1      -2.531  93.769 118.492  0.00  0.00     0.210 C 
ATOM     15  C   LIG d   1      -1.783  94.136 119.777  0.00  0.00     0.109 C 
ATOM     16  O   LIG d   1      -2.387  94.455 117.468  0.00  0.00    -0.276 OA
ATOM     17  H   LIG d   1      -3.419  92.237 119.468  0.00  0.00     0.149 HD
ENDBRANCH   6  13
BRANCH   5  18
ATOM     18  N   LIG d   1      -5.595  94.225 117.193  0.00  0.00     0.381 N 
ATOM     19  H   LIG d   1      -5.734  94.702 118.062  0.00  0.00    -0.090 HD
ATOM     20  H   LIG d   1      -6.365  94.446 116.586  0.00  0.00    -0.090 HD
ATOM     21  H   LIG d   1      -4.740  94.520 116.777  0.00  0.00    -0.090 HD
ENDBRANCH   5  18
BRANCH   3  22
ATOM     22  C   LIG d   1      -7.368  89.997 115.808  0.00  0.00     0.382 C 
ATOM     23  O   LIG d   1      -7.973  89.174 116.536  0.00  0.00    -0.241 OA
ATOM     24  O   LIG d   1      -7.716  90.136 114.620  0.00  0.00    -0.241 OA
ENDBRANCH   3  22
TORSDOF 7
ENDMDL
MODEL 8
REMARK VINA RESULT:      -4.6      2.236      5.291
REMARK  7 active torsions:
REMARK  status: ('A' for Active; 'I' for Inactive)
REMARK    1  A    between atoms: C_2  and  C_3 
REMARK    2  A    between atoms: C_3  and  O_6 
REMARK    3  A    between atoms: C_3  and  C_4 
REMARK    4  A    between atoms: C_7  and  O_6 
REMARK    5  A    between atoms: C_9  and  C_10 
REMARK    6  A    between atoms: N_15  and  C_14 
REMARK    7  A    between atoms: N_20  and  C_19 
REMARK       I    between atoms: C_22  and  N_20 
ROOT
ATOM      1  C   LIG d   1      -4.789  91.141 117.264  0.00  0.00     0.161 C 
ATOM      2  C   LIG d   1      -3.947  90.615 118.258  0.00  0.00     0.016 C 
ATOM      3  C   LIG d   1      -3.162  89.454 118.077  0.00  0.00     0.038 C 
ATOM      4  C   LIG d   1      -3.050  88.821 116.830  0.00  0.00     0.028 C 
ATOM      5  C   LIG d   1      -4.271  89.019 115.939  0.00  0.00    -0.047 C 
ATOM      6  C   LIG d   1      -4.596  90.528 115.861  0.00  0.00     0.091 C 
ENDROOT
BRANCH   1   7
ATOM      7  O   LIG d   1      -4.645  92.574 117.209  0.00  0.00    -0.368 OA
BRANCH   7   8
ATOM      8  C   LIG d   1      -5.793  93.348 117.634  0.00  0.00     0.119 C 
BRANCH   8   9
ATOM      9  C   LIG d   1      -6.385  94.024 116.383  0.00  0.00     0.028 C 
ATOM     10  C   LIG d   1      -7.923  94.011 116.380  0.00  0.00     0.006 C 
ENDBRANCH   8   9
BRANCH   8  11
ATOM     11  C   LIG d   1      -5.380  94.496 118.559  0.00  0.00     0.028 C 
ATOM     12  C   LIG d   1      -3.911  94.910 118.376  0.00  0.00     0.006 C 
ENDBRANCH   8  11
ENDBRANCH   7   8
ENDBRANCH   1   7
BRANCH   6  13
ATOM     13  N   LIG d   1      -5.828  90.803 115.076  0.00  0.00    -0.311 N 
ATOM     14  C   LIG d   1      -7.020  90.296 115.382  0.00  0.00     0.210 C 
ATOM     15  C   LIG d   1      -8.154  90.690 114.430  0.00  0.00     0.109 C 
ATOM     16  O   LIG d   1      -7.254  89.583 116.370  0.00  0.00    -0.276 OA
ATOM     17  H   LIG d   1      -5.735  91.398 114.276  0.00  0.00     0.149 HD
ENDBRANCH   6  13
BRANCH   5  18
ATOM     18  N   LIG d   1      -3.964  88.425 114.624  0.00  0.00     0.381 N 
ATOM     19  H   LIG d   1      -3.955  89.140 113.923  0.00  0.00    -0.090 HD
ATOM     20  H   LIG d   1      -4.683  87.763 114.390  0.00  0.00    -0.090 HD
ATOM     21  H   LIG d   1      -3.079  87.969 114.654  0.00  0.00    -0.090 HD
ENDBRANCH   5  18
BRANCH   3  22
ATOM     22  C   LIG d   1      -2.508  88.890 119.163  0.00  0.00     0.382 C 
ATOM     23  O   LIG d   1      -1.527  89.478 119.678  0.00  0.00    -0.241 OA
ATOM     24  O   LIG d   1      -2.860  87.781 119.606  0.00  0.00    -0.241 OA
ENDBRANCH   3  22
TORSDOF 7
ENDMDL
MODEL 9
REMARK VINA RESULT:      -4.6      2.548      4.398
REMARK  7 active torsions:
REMARK  status: ('A' for Active; 'I' for Inactive)
REMARK    1  A    between atoms: C_2  and  C_3 
REMARK    2  A    between atoms: C_3  and  O_6 
REMARK    3  A    between atoms: C_3  and  C_4 
REMARK    4  A    between atoms: C_7  and  O_6 
REMARK    5  A    between atoms: C_9  and  C_10 
REMARK    6  A    between atoms: N_15  and  C_14 
REMARK    7  A    between atoms: N_20  and  C_19 
REMARK       I    between atoms: C_22  and  N_20 
ROOT
ATOM      1  C   LIG d   1      -4.721  91.560 117.268  0.00  0.00     0.161 C 
ATOM      2  C   LIG d   1      -5.860  91.543 116.447  0.00  0.00     0.016 C 
ATOM      3  C   LIG d   1      -6.626  92.694 116.155  0.00  0.00     0.038 C 
ATOM      4  C   LIG d   1      -6.214  93.977 116.545  0.00  0.00     0.028 C 
ATOM      5  C   LIG d   1      -5.346  93.980 117.799  0.00  0.00    -0.047 C 
ATOM      6  C   LIG d   1      -4.192  92.968 117.612  0.00  0.00     0.091 C 
ENDROOT
BRANCH   1   7
ATOM      7  O   LIG d   1      -3.677  90.765 116.672  0.00  0.00    -0.368 OA
BRANCH   7   8
ATOM      8  C   LIG d   1      -3.680  89.355 117.005  0.00  0.00     0.119 C 
BRANCH   8   9
ATOM      9  C   LIG d   1      -2.343  89.040 117.703  0.00  0.00     0.028 C 
ATOM     10  C   LIG d   1      -2.425  89.206 119.229  0.00  0.00     0.006 C 
ENDBRANCH   8   9
BRANCH   8  11
ATOM     11  C   LIG d   1      -3.694  88.485 115.744  0.00  0.00     0.028 C 
ATOM     12  C   LIG d   1      -2.785  87.251 115.862  0.00  0.00     0.006 C 
ENDBRANCH   8  11
ENDBRANCH   7   8
ENDBRANCH   1   7
BRANCH   6  13
ATOM     13  N   LIG d   1      -3.343  92.846 118.826  0.00  0.00    -0.311 N 
ATOM     14  C   LIG d   1      -2.014  92.921 118.801  0.00  0.00     0.210 C 
ATOM     15  C   LIG d   1      -1.331  92.750 120.162  0.00  0.00     0.109 C 
ATOM     16  O   LIG d   1      -1.337  93.146 117.787  0.00  0.00    -0.276 OA
ATOM     17  H   LIG d   1      -3.813  92.694 119.697  0.00  0.00     0.149 HD
ENDBRANCH   6  13
BRANCH   5  18
ATOM     18  N   LIG d   1      -4.875  95.361 118.012  0.00  0.00     0.381 N 
ATOM     19  H   LIG d   1      -5.597  95.902 118.445  0.00  0.00    -0.090 HD
ATOM     20  H   LIG d   1      -4.663  95.774 117.121  0.00  0.00    -0.090 HD
ATOM     21  H   LIG d   1      -4.062  95.359 118.587  0.00  0.00    -0.090 HD
ENDBRANCH   5  18
BRANCH   3  22
ATOM     22  C   LIG d   1      -7.841  92.564 115.499  0.00  0.00     0.382 C 
ATOM     23  O   LIG d   1      -8.658  93.515 115.497  0.00  0.00    -0.241 OA
ATOM     24  O   LIG d   1      -8.148  91.491 114.945  0.00  0.00    -0.241 OA
ENDBRANCH   3  22
TORSDOF 7
ENDMDL
