MODEL 1
REMARK VINA RESULT:      -5.2      0.000      0.000
REMARK  7 active torsions:
REMARK  status: ('A' for Active; 'I' for Inactive)
REMARK    1  A    between atoms: C_2  and  C_3 
REMARK    2  A    between atoms: C_3  and  O_6 
REMARK    3  A    between atoms: C_3  and  C_4 
REMARK    4  A    between atoms: C_7  and  O_6 
REMARK    5  A    between atoms: C_9  and  C_10 
REMARK    6  A    between atoms: N_15  and  C_14 
REMARK    7  A    between atoms: N_20  and  C_19 
REMARK       I    between atoms: C_22  and  N_20 
ROOT
ATOM      1  C   LIG d   1      -5.157  91.848 118.500  0.00  0.00     0.161 C 
ATOM      2  C   LIG d   1      -5.464  91.019 117.409  0.00  0.00     0.016 C 
ATOM      3  C   LIG d   1      -6.359  91.389 116.378  0.00  0.00     0.038 C 
ATOM      4  C   LIG d   1      -6.895  92.682 116.291  0.00  0.00     0.028 C 
ATOM      5  C   LIG d   1      -7.010  93.383 117.640  0.00  0.00    -0.047 C 
ATOM      6  C   LIG d   1      -5.646  93.305 118.364  0.00  0.00     0.091 C 
ENDROOT
BRANCH   1   7
ATOM      7  O   LIG d   1      -3.738  91.817 118.753  0.00  0.00    -0.368 OA
BRANCH   7   8
ATOM      8  C   LIG d   1      -3.313  91.050 119.906  0.00  0.00     0.119 C 
BRANCH   8   9
ATOM      9  C   LIG d   1      -2.614  92.022 120.877  0.00  0.00     0.028 C 
ATOM     10  C   LIG d   1      -1.595  92.929 120.166  0.00  0.00     0.006 C 
ENDBRANCH   8   9
BRANCH   8  11
ATOM     11  C   LIG d   1      -2.246  90.019 119.527  0.00  0.00     0.028 C 
ATOM     12  C   LIG d   1      -2.836  88.780 118.834  0.00  0.00     0.006 C 
ENDBRANCH   8  11
ENDBRANCH   7   8
ENDBRANCH   1   7
BRANCH   6  13
ATOM     13  N   LIG d   1      -5.694  93.894 119.728  0.00  0.00    -0.311 N 
ATOM     14  C   LIG d   1      -4.865  94.851 120.143  0.00  0.00     0.210 C 
ATOM     15  C   LIG d   1      -5.073  95.301 121.592  0.00  0.00     0.109 C 
ATOM     16  O   LIG d   1      -4.000  95.391 119.438  0.00  0.00    -0.276 OA
ATOM     17  H   LIG d   1      -6.386  93.535 120.355  0.00  0.00     0.149 HD
ENDBRANCH   6  13
BRANCH   5  18
ATOM     18  N   LIG d   1      -7.452  94.768 117.387  0.00  0.00     0.381 N 
ATOM     19  H   LIG d   1      -8.411  94.871 117.652  0.00  0.00    -0.090 HD
ATOM     20  H   LIG d   1      -7.373  94.959 116.404  0.00  0.00    -0.090 HD
ATOM     21  H   LIG d   1      -6.887  95.406 117.904  0.00  0.00    -0.090 HD
ENDBRANCH   5  18
BRANCH   3  22
ATOM     22  C   LIG d   1      -6.757  90.446 115.443  0.00  0.00     0.382 C 
ATOM     23  O   LIG d   1      -7.873  90.555 114.879  0.00  0.00    -0.241 OA
ATOM     24  O   LIG d   1      -6.034  89.465 115.188  0.00  0.00    -0.241 OA
ENDBRANCH   3  22
TORSDOF 7
ENDMDL
MODEL 2
REMARK VINA RESULT:      -5.1      2.226      4.472
REMARK  7 active torsions:
REMARK  status: ('A' for Active; 'I' for Inactive)
REMARK    1  A    between atoms: C_2  and  C_3 
REMARK    2  A    between atoms: C_3  and  O_6 
REMARK    3  A    between atoms: C_3  and  C_4 
REMARK    4  A    between atoms: C_7  and  O_6 
REMARK    5  A    between atoms: C_9  and  C_10 
REMARK    6  A    between atoms: N_15  and  C_14 
REMARK    7  A    between atoms: N_20  and  C_19 
REMARK       I    between atoms: C_22  and  N_20 
ROOT
ATOM      1  C   LIG d   1      -6.485  93.498 117.907  0.00  0.00     0.161 C 
ATOM      2  C   LIG d   1      -7.039  92.389 117.246  0.00  0.00     0.016 C 
ATOM      3  C   LIG d   1      -6.335  91.181 117.031  0.00  0.00     0.038 C 
ATOM      4  C   LIG d   1      -5.075  90.946 117.599  0.00  0.00     0.028 C 
ATOM      5  C   LIG d   1      -4.274  92.220 117.845  0.00  0.00    -0.047 C 
ATOM      6  C   LIG d   1      -5.151  93.220 118.631  0.00  0.00     0.091 C 
ENDROOT
BRANCH   1   7
ATOM      7  O   LIG d   1      -7.449  94.049 118.826  0.00  0.00    -0.368 OA
BRANCH   7   8
ATOM      8  C   LIG d   1      -8.371  95.022 118.276  0.00  0.00     0.119 C 
BRANCH   8   9
ATOM      9  C   LIG d   1      -7.602  96.347 118.110  0.00  0.00     0.028 C 
ATOM     10  C   LIG d   1      -7.504  97.137 119.426  0.00  0.00     0.006 C 
ENDBRANCH   8   9
BRANCH   8  11
ATOM     11  C   LIG d   1      -9.505  95.332 119.257  0.00  0.00     0.028 C 
ATOM     12  C   LIG d   1      -9.823  94.154 120.192  0.00  0.00     0.006 C 
ENDBRANCH   8  11
ENDBRANCH   7   8
ENDBRANCH   1   7
BRANCH   6  13
ATOM     13  N   LIG d   1      -4.473  94.526 118.841  0.00  0.00    -0.311 N 
ATOM     14  C   LIG d   1      -4.406  95.136 120.023  0.00  0.00     0.210 C 
ATOM     15  C   LIG d   1      -3.678  96.484 120.015  0.00  0.00     0.109 C 
ATOM     16  O   LIG d   1      -4.851  94.673 121.084  0.00  0.00    -0.276 OA
ATOM     17  H   LIG d   1      -4.057  94.958 118.039  0.00  0.00     0.149 HD
ENDBRANCH   6  13
BRANCH   5  18
ATOM     18  N   LIG d   1      -3.043  91.841 118.564  0.00  0.00     0.381 N 
ATOM     19  H   LIG d   1      -2.417  91.372 117.940  0.00  0.00    -0.090 HD
ATOM     20  H   LIG d   1      -3.282  91.207 119.306  0.00  0.00    -0.090 HD
ATOM     21  H   LIG d   1      -2.604  92.652 118.939  0.00  0.00    -0.090 HD
ENDBRANCH   5  18
BRANCH   3  22
ATOM     22  C   LIG d   1      -6.878  90.208 116.206  0.00  0.00     0.382 C 
ATOM     23  O   LIG d   1      -8.104  89.947 116.265  0.00  0.00    -0.241 OA
ATOM     24  O   LIG d   1      -6.149  89.556 115.434  0.00  0.00    -0.241 OA
ENDBRANCH   3  22
TORSDOF 7
ENDMDL
MODEL 3
REMARK VINA RESULT:      -5.0      2.456      6.157
REMARK  7 active torsions:
REMARK  status: ('A' for Active; 'I' for Inactive)
REMARK    1  A    between atoms: C_2  and  C_3 
REMARK    2  A    between atoms: C_3  and  O_6 
REMARK    3  A    between atoms: C_3  and  C_4 
REMARK    4  A    between atoms: C_7  and  O_6 
REMARK    5  A    between atoms: C_9  and  C_10 
REMARK    6  A    between atoms: N_15  and  C_14 
REMARK    7  A    between atoms: N_20  and  C_19 
REMARK       I    between atoms: C_22  and  N_20 
ROOT
ATOM      1  C   LIG d   1      -6.231  93.187 118.303  0.00  0.00     0.161 C 
ATOM      2  C   LIG d   1      -5.238  93.908 118.986  0.00  0.00     0.016 C 
ATOM      3  C   LIG d   1      -3.912  93.443 119.149  0.00  0.00     0.038 C 
ATOM      4  C   LIG d   1      -3.448  92.287 118.504  0.00  0.00     0.028 C 
ATOM      5  C   LIG d   1      -4.546  91.268 118.222  0.00  0.00    -0.047 C 
ATOM      6  C   LIG d   1      -5.714  91.976 117.498  0.00  0.00     0.091 C 
ENDROOT
BRANCH   1   7
ATOM      7  O   LIG d   1      -6.978  94.075 117.448  0.00  0.00    -0.368 OA
BRANCH   7   8
ATOM      8  C   LIG d   1      -8.184  94.643 118.015  0.00  0.00     0.119 C 
BRANCH   8   9
ATOM      9  C   LIG d   1      -8.024  96.175 118.006  0.00  0.00     0.028 C 
ATOM     10  C   LIG d   1      -7.346  96.702 119.282  0.00  0.00     0.006 C 
ENDBRANCH   8   9
BRANCH   8  11
ATOM     11  C   LIG d   1      -8.339  94.260 119.490  0.00  0.00     0.028 C 
ATOM     12  C   LIG d   1      -9.808  94.101 119.914  0.00  0.00     0.006 C 
ENDBRANCH   8  11
ENDBRANCH   7   8
ENDBRANCH   1   7
BRANCH   6  13
ATOM     13  N   LIG d   1      -6.867  91.069 117.260  0.00  0.00    -0.311 N 
ATOM     14  C   LIG d   1      -7.007  90.336 116.157  0.00  0.00     0.210 C 
ATOM     15  C   LIG d   1      -8.279  89.484 116.104  0.00  0.00     0.109 C 
ATOM     16  O   LIG d   1      -6.183  90.286 115.231  0.00  0.00    -0.276 OA
ATOM     17  H   LIG d   1      -7.568  91.025 117.974  0.00  0.00     0.149 HD
ENDBRANCH   6  13
BRANCH   5  18
ATOM     18  N   LIG d   1      -3.950  90.178 117.427  0.00  0.00     0.381 N 
ATOM     19  H   LIG d   1      -3.151  90.519 116.930  0.00  0.00    -0.090 HD
ATOM     20  H   LIG d   1      -4.626  89.857 116.756  0.00  0.00    -0.090 HD
ATOM     21  H   LIG d   1      -3.682  89.427 118.025  0.00  0.00    -0.090 HD
ENDBRANCH   5  18
BRANCH   3  22
ATOM     22  C   LIG d   1      -3.047  94.118 119.996  0.00  0.00     0.382 C 
ATOM     23  O   LIG d   1      -1.908  93.648 120.233  0.00  0.00    -0.241 OA
ATOM     24  O   LIG d   1      -3.407  95.167 120.563  0.00  0.00    -0.241 OA
ENDBRANCH   3  22
TORSDOF 7
ENDMDL
MODEL 4
REMARK VINA RESULT:      -4.6      1.586      4.892
REMARK  7 active torsions:
REMARK  status: ('A' for Active; 'I' for Inactive)
REMARK    1  A    between atoms: C_2  and  C_3 
REMARK    2  A    between atoms: C_3  and  O_6 
REMARK    3  A    between atoms: C_3  and  C_4 
REMARK    4  A    between atoms: C_7  and  O_6 
REMARK    5  A    between atoms: C_9  and  C_10 
REMARK    6  A    between atoms: N_15  and  C_14 
REMARK    7  A    between atoms: N_20  and  C_19 
REMARK       I    between atoms: C_22  and  N_20 
ROOT
ATOM      1  C   LIG d   1      -4.415  92.227 118.376  0.00  0.00     0.161 C 
ATOM      2  C   LIG d   1      -4.223  93.270 119.297  0.00  0.00     0.016 C 
ATOM      3  C   LIG d   1      -5.145  94.327 119.479  0.00  0.00     0.038 C 
ATOM      4  C   LIG d   1      -6.401  94.331 118.854  0.00  0.00     0.028 C 
ATOM      5  C   LIG d   1      -6.425  93.563 117.537  0.00  0.00    -0.047 C 
ATOM      6  C   LIG d   1      -5.831  92.155 117.766  0.00  0.00     0.091 C 
ENDROOT
BRANCH   1   7
ATOM      7  O   LIG d   1      -4.067  90.968 118.984  0.00  0.00    -0.368 OA
BRANCH   7   8
ATOM      8  C   LIG d   1      -2.787  90.407 118.601  0.00  0.00     0.119 C 
BRANCH   8   9
ATOM      9  C   LIG d   1      -3.064  89.244 117.629  0.00  0.00     0.028 C 
ATOM     10  C   LIG d   1      -2.221  87.998 117.949  0.00  0.00     0.006 C 
ENDBRANCH   8   9
BRANCH   8  11
ATOM     11  C   LIG d   1      -2.075  89.773 119.799  0.00  0.00     0.028 C 
ATOM     12  C   LIG d   1      -2.591  90.301 121.147  0.00  0.00     0.006 C 
ENDBRANCH   8  11
ENDBRANCH   7   8
ENDBRANCH   1   7
BRANCH   6  13
ATOM     13  N   LIG d   1      -5.739  91.367 116.509  0.00  0.00    -0.311 N 
ATOM     14  C   LIG d   1      -6.696  90.540 116.092  0.00  0.00     0.210 C 
ATOM     15  C   LIG d   1      -6.392  89.809 114.780  0.00  0.00     0.109 C 
ATOM     16  O   LIG d   1      -7.781  90.366 116.666  0.00  0.00    -0.276 OA
ATOM     17  H   LIG d   1      -4.906  91.472 115.965  0.00  0.00     0.149 HD
ENDBRANCH   6  13
BRANCH   5  18
ATOM     18  N   LIG d   1      -7.822  93.531 117.065  0.00  0.00     0.381 N 
ATOM     19  H   LIG d   1      -8.306  92.765 117.490  0.00  0.00    -0.090 HD
ATOM     20  H   LIG d   1      -7.826  93.394 116.070  0.00  0.00    -0.090 HD
ATOM     21  H   LIG d   1      -8.278  94.388 117.292  0.00  0.00    -0.090 HD
ENDBRANCH   5  18
BRANCH   3  22
ATOM     22  C   LIG d   1      -4.796  95.416 120.263  0.00  0.00     0.382 C 
ATOM     23  O   LIG d   1      -5.680  96.212 120.660  0.00  0.00    -0.241 OA
ATOM     24  O   LIG d   1      -3.602  95.638 120.541  0.00  0.00    -0.241 OA
ENDBRANCH   3  22
TORSDOF 7
ENDMDL
MODEL 5
REMARK VINA RESULT:      -4.6      1.763      2.527
REMARK  7 active torsions:
REMARK  status: ('A' for Active; 'I' for Inactive)
REMARK    1  A    between atoms: C_2  and  C_3 
REMARK    2  A    between atoms: C_3  and  O_6 
REMARK    3  A    between atoms: C_3  and  C_4 
REMARK    4  A    between atoms: C_7  and  O_6 
REMARK    5  A    between atoms: C_9  and  C_10 
REMARK    6  A    between atoms: N_15  and  C_14 
REMARK    7  A    between atoms: N_20  and  C_19 
REMARK       I    between atoms: C_22  and  N_20 
ROOT
ATOM      1  C   LIG d   1      -4.186  90.749 118.469  0.00  0.00     0.161 C 
ATOM      2  C   LIG d   1      -5.100  90.397 117.461  0.00  0.00     0.016 C 
ATOM      3  C   LIG d   1      -6.029  91.304 116.903  0.00  0.00     0.038 C 
ATOM      4  C   LIG d   1      -6.005  92.673 117.209  0.00  0.00     0.028 C 
ATOM      5  C   LIG d   1      -5.434  92.975 118.591  0.00  0.00    -0.047 C 
ATOM      6  C   LIG d   1      -4.070  92.264 118.736  0.00  0.00     0.091 C 
ENDROOT
BRANCH   1   7
ATOM      7  O   LIG d   1      -2.890  90.192 118.169  0.00  0.00    -0.368 OA
BRANCH   7   8
ATOM      8  C   LIG d   1      -2.610  88.889 118.737  0.00  0.00     0.119 C 
BRANCH   8   9
ATOM      9  C   LIG d   1      -1.606  89.092 119.888  0.00  0.00     0.028 C 
ATOM     10  C   LIG d   1      -2.288  89.105 121.266  0.00  0.00     0.006 C 
ENDBRANCH   8   9
BRANCH   8  11
ATOM     11  C   LIG d   1      -1.894  87.984 117.729  0.00  0.00     0.028 C 
ATOM     12  C   LIG d   1      -1.194  86.789 118.394  0.00  0.00     0.006 C 
ENDBRANCH   8  11
ENDBRANCH   7   8
ENDBRANCH   1   7
BRANCH   6  13
ATOM     13  N   LIG d   1      -3.481  92.438 120.090  0.00  0.00    -0.311 N 
ATOM     14  C   LIG d   1      -2.199  92.727 120.300  0.00  0.00     0.210 C 
ATOM     15  C   LIG d   1      -1.795  92.844 121.773  0.00  0.00     0.109 C 
ATOM     16  O   LIG d   1      -1.364  92.931 119.406  0.00  0.00    -0.276 OA
ATOM     17  H   LIG d   1      -4.095  92.321 120.872  0.00  0.00     0.149 HD
ENDBRANCH   6  13
BRANCH   5  18
ATOM     18  N   LIG d   1      -5.340  94.441 118.723  0.00  0.00     0.381 N 
ATOM     19  H   LIG d   1      -4.420  94.745 118.476  0.00  0.00    -0.090 HD
ATOM     20  H   LIG d   1      -5.508  94.692 119.682  0.00  0.00    -0.090 HD
ATOM     21  H   LIG d   1      -6.012  94.880 118.134  0.00  0.00    -0.090 HD
ENDBRANCH   5  18
BRANCH   3  22
ATOM     22  C   LIG d   1      -7.022  90.836 116.056  0.00  0.00     0.382 C 
ATOM     23  O   LIG d   1      -7.541  89.712 116.260  0.00  0.00    -0.241 OA
ATOM     24  O   LIG d   1      -7.375  91.504 115.066  0.00  0.00    -0.241 OA
ENDBRANCH   3  22
TORSDOF 7
ENDMDL
MODEL 6
REMARK VINA RESULT:      -4.4      5.436      8.447
REMARK  7 active torsions:
REMARK  status: ('A' for Active; 'I' for Inactive)
REMARK    1  A    between atoms: C_2  and  C_3 
REMARK    2  A    between atoms: C_3  and  O_6 
REMARK    3  A    between atoms: C_3  and  C_4 
REMARK    4  A    between atoms: C_7  and  O_6 
REMARK    5  A    between atoms: C_9  and  C_10 
REMARK    6  A    between atoms: N_15  and  C_14 
REMARK    7  A    between atoms: N_20  and  C_19 
REMARK       I    between atoms: C_22  and  N_20 
ROOT
ATOM      1  C   LIG d   1       0.713  90.264 117.871  0.00  0.00     0.161 C 
ATOM      2  C   LIG d   1       0.195  91.331 118.625  0.00  0.00     0.016 C 
ATOM      3  C   LIG d   1       0.859  92.570 118.777  0.00  0.00     0.038 C 
ATOM      4  C   LIG d   1       2.021  92.882 118.056  0.00  0.00     0.028 C 
ATOM      5  C   LIG d   1       2.846  91.657 117.678  0.00  0.00    -0.047 C 
ATOM      6  C   LIG d   1       1.925  90.625 116.988  0.00  0.00     0.091 C 
ENDROOT
BRANCH   1   7
ATOM      7  O   LIG d   1      -0.333  89.678 117.071  0.00  0.00    -0.368 OA
BRANCH   7   8
ATOM      8  C   LIG d   1      -0.894  88.437 117.565  0.00  0.00     0.119 C 
BRANCH   8   9
ATOM      9  C   LIG d   1      -0.364  87.301 116.668  0.00  0.00     0.028 C 
ATOM     10  C   LIG d   1       0.461  86.268 117.455  0.00  0.00     0.006 C 
ENDBRANCH   8   9
BRANCH   8  11
ATOM     11  C   LIG d   1      -2.416  88.407 117.398  0.00  0.00     0.028 C 
ATOM     12  C   LIG d   1      -3.127  89.487 118.230  0.00  0.00     0.006 C 
ENDBRANCH   8  11
ENDBRANCH   7   8
ENDBRANCH   1   7
BRANCH   6  13
ATOM     13  N   LIG d   1       2.635  89.361 116.661  0.00  0.00    -0.311 N 
ATOM     14  C   LIG d   1       3.123  89.086 115.453  0.00  0.00     0.210 C 
ATOM     15  C   LIG d   1       3.802  87.718 115.325  0.00  0.00     0.109 C 
ATOM     16  O   LIG d   1       3.087  89.858 114.483  0.00  0.00    -0.276 OA
ATOM     17  H   LIG d   1       2.737  88.691 117.398  0.00  0.00     0.149 HD
ENDBRANCH   6  13
BRANCH   5  18
ATOM     18  N   LIG d   1       3.952  92.113 116.815  0.00  0.00     0.381 N 
ATOM     19  H   LIG d   1       4.801  92.149 117.343  0.00  0.00    -0.090 HD
ATOM     20  H   LIG d   1       3.746  93.039 116.486  0.00  0.00    -0.090 HD
ATOM     21  H   LIG d   1       4.059  91.494 116.042  0.00  0.00    -0.090 HD
ENDBRANCH   5  18
BRANCH   3  22
ATOM     22  C   LIG d   1       0.380  93.498 119.689  0.00  0.00     0.382 C 
ATOM     23  O   LIG d   1      -0.580  93.202 120.440  0.00  0.00    -0.241 OA
ATOM     24  O   LIG d   1       0.867  94.644 119.739  0.00  0.00    -0.241 OA
ENDBRANCH   3  22
TORSDOF 7
ENDMDL
MODEL 7
REMARK VINA RESULT:      -4.3      4.501      7.095
REMARK  7 active torsions:
REMARK  status: ('A' for Active; 'I' for Inactive)
REMARK    1  A    between atoms: C_2  and  C_3 
REMARK    2  A    between atoms: C_3  and  O_6 
REMARK    3  A    between atoms: C_3  and  C_4 
REMARK    4  A    between atoms: C_7  and  O_6 
REMARK    5  A    between atoms: C_9  and  C_10 
REMARK    6  A    between atoms: N_15  and  C_14 
REMARK    7  A    between atoms: N_20  and  C_19 
REMARK       I    between atoms: C_22  and  N_20 
ROOT
ATOM      1  C   LIG d   1       0.161  90.939 116.981  0.00  0.00     0.161 C 
ATOM      2  C   LIG d   1       1.536  91.056 116.717  0.00  0.00     0.016 C 
ATOM      3  C   LIG d   1       2.402  91.894 117.457  0.00  0.00     0.038 C 
ATOM      4  C   LIG d   1       1.976  92.563 118.614  0.00  0.00     0.028 C 
ATOM      5  C   LIG d   1       0.483  92.872 118.621  0.00  0.00    -0.047 C 
ATOM      6  C   LIG d   1      -0.299  91.576 118.309  0.00  0.00     0.091 C 
ENDROOT
BRANCH   1   7
ATOM      7  O   LIG d   1      -0.231  89.553 116.927  0.00  0.00    -0.368 OA
BRANCH   7   8
ATOM      8  C   LIG d   1       0.008  88.776 118.126  0.00  0.00     0.119 C 
BRANCH   8   9
ATOM      9  C   LIG d   1       0.946  87.614 117.746  0.00  0.00     0.028 C 
ATOM     10  C   LIG d   1       0.869  87.264 116.250  0.00  0.00     0.006 C 
ENDBRANCH   8   9
BRANCH   8  11
ATOM     11  C   LIG d   1      -1.278  88.113 118.626  0.00  0.00     0.028 C 
ATOM     12  C   LIG d   1      -2.443  88.249 117.633  0.00  0.00     0.006 C 
ENDBRANCH   8  11
ENDBRANCH   7   8
ENDBRANCH   1   7
BRANCH   6  13
ATOM     13  N   LIG d   1      -1.764  91.807 118.213  0.00  0.00    -0.311 N 
ATOM     14  C   LIG d   1      -2.607  91.596 119.222  0.00  0.00     0.210 C 
ATOM     15  C   LIG d   1      -4.079  91.877 118.905  0.00  0.00     0.109 C 
ATOM     16  O   LIG d   1      -2.272  91.233 120.360  0.00  0.00    -0.276 OA
ATOM     17  H   LIG d   1      -2.118  92.132 117.334  0.00  0.00     0.149 HD
ENDBRANCH   6  13
BRANCH   5  18
ATOM     18  N   LIG d   1       0.152  93.444 119.940  0.00  0.00     0.381 N 
ATOM     19  H   LIG d   1       0.967  93.863 120.341  0.00  0.00    -0.090 HD
ATOM     20  H   LIG d   1      -0.155  92.704 120.547  0.00  0.00    -0.090 HD
ATOM     21  H   LIG d   1      -0.568  94.126 119.845  0.00  0.00    -0.090 HD
ENDBRANCH   5  18
BRANCH   3  22
ATOM     22  C   LIG d   1       3.700  92.102 117.016  0.00  0.00     0.382 C 
ATOM     23  O   LIG d   1       4.299  93.164 117.309  0.00  0.00    -0.241 OA
ATOM     24  O   LIG d   1       4.264  91.259 116.292  0.00  0.00    -0.241 OA
ENDBRANCH   3  22
TORSDOF 7
ENDMDL
MODEL 8
REMARK VINA RESULT:      -4.3      2.362      4.628
REMARK  7 active torsions:
REMARK  status: ('A' for Active; 'I' for Inactive)
REMARK    1  A    between atoms: C_2  and  C_3 
REMARK    2  A    between atoms: C_3  and  O_6 
REMARK    3  A    between atoms: C_3  and  C_4 
REMARK    4  A    between atoms: C_7  and  O_6 
REMARK    5  A    between atoms: C_9  and  C_10 
REMARK    6  A    between atoms: N_15  and  C_14 
REMARK    7  A    between atoms: N_20  and  C_19 
REMARK       I    between atoms: C_22  and  N_20 
ROOT
ATOM      1  C   LIG d   1      -6.458  93.600 118.827  0.00  0.00     0.161 C 
ATOM      2  C   LIG d   1      -6.924  93.251 117.549  0.00  0.00     0.016 C 
ATOM      3  C   LIG d   1      -6.421  92.155 116.810  0.00  0.00     0.038 C 
ATOM      4  C   LIG d   1      -5.518  91.237 117.367  0.00  0.00     0.028 C 
ATOM      5  C   LIG d   1      -4.645  91.836 118.465  0.00  0.00    -0.047 C 
ATOM      6  C   LIG d   1      -5.552  92.545 119.496  0.00  0.00     0.091 C 
ENDROOT
BRANCH   1   7
ATOM      7  O   LIG d   1      -7.573  93.918 119.683  0.00  0.00    -0.368 OA
BRANCH   7   8
ATOM      8  C   LIG d   1      -7.638  95.283 120.165  0.00  0.00     0.119 C 
BRANCH   8   9
ATOM      9  C   LIG d   1      -9.124  95.687 120.214  0.00  0.00     0.028 C 
ATOM     10  C   LIG d   1     -10.065  94.472 120.163  0.00  0.00     0.006 C 
ENDBRANCH   8   9
BRANCH   8  11
ATOM     11  C   LIG d   1      -6.985  96.255 119.177  0.00  0.00     0.028 C 
ATOM     12  C   LIG d   1      -8.009  96.967 118.279  0.00  0.00     0.006 C 
ENDBRANCH   8  11
ENDBRANCH   7   8
ENDBRANCH   1   7
BRANCH   6  13
ATOM     13  N   LIG d   1      -4.773  93.231 120.560  0.00  0.00    -0.311 N 
ATOM     14  C   LIG d   1      -3.953  94.254 120.324  0.00  0.00     0.210 C 
ATOM     15  C   LIG d   1      -3.231  94.801 121.559  0.00  0.00     0.109 C 
ATOM     16  O   LIG d   1      -3.780  94.780 119.215  0.00  0.00    -0.276 OA
ATOM     17  H   LIG d   1      -4.878  92.888 121.495  0.00  0.00     0.149 HD
ENDBRANCH   6  13
BRANCH   5  18
ATOM     18  N   LIG d   1      -3.851  90.740 119.050  0.00  0.00     0.381 N 
ATOM     19  H   LIG d   1      -2.878  90.899 118.882  0.00  0.00    -0.090 HD
ATOM     20  H   LIG d   1      -4.111  89.877 118.606  0.00  0.00    -0.090 HD
ATOM     21  H   LIG d   1      -4.020  90.682 120.030  0.00  0.00    -0.090 HD
ENDBRANCH   5  18
BRANCH   3  22
ATOM     22  C   LIG d   1      -6.793  91.992 115.484  0.00  0.00     0.382 C 
ATOM     23  O   LIG d   1      -6.548  90.912 114.893  0.00  0.00    -0.241 OA
ATOM     24  O   LIG d   1      -7.329  92.926 114.859  0.00  0.00    -0.241 OA
ENDBRANCH   3  22
TORSDOF 7
ENDMDL
MODEL 9
REMARK VINA RESULT:      -4.2      6.208      8.272
REMARK  7 active torsions:
REMARK  status: ('A' for Active; 'I' for Inactive)
REMARK    1  A    between atoms: C_2  and  C_3 
REMARK    2  A    between atoms: C_3  and  O_6 
REMARK    3  A    between atoms: C_3  and  C_4 
REMARK    4  A    between atoms: C_7  and  O_6 
REMARK    5  A    between atoms: C_9  and  C_10 
REMARK    6  A    between atoms: N_15  and  C_14 
REMARK    7  A    between atoms: N_20  and  C_19 
REMARK       I    between atoms: C_22  and  N_20 
ROOT
ATOM      1  C   LIG d   1       1.425  88.979 116.888  0.00  0.00     0.161 C 
ATOM      2  C   LIG d   1       0.056  88.809 117.151  0.00  0.00     0.016 C 
ATOM      3  C   LIG d   1      -0.811  89.877 117.482  0.00  0.00     0.038 C 
ATOM      4  C   LIG d   1      -0.395  91.215 117.423  0.00  0.00     0.028 C 
ATOM      5  C   LIG d   1       1.102  91.395 117.654  0.00  0.00    -0.047 C 
ATOM      6  C   LIG d   1       1.873  90.444 116.710  0.00  0.00     0.091 C 
ENDROOT
BRANCH   1   7
ATOM      7  O   LIG d   1       1.801  88.196 115.737  0.00  0.00    -0.368 OA
BRANCH   7   8
ATOM      8  C   LIG d   1       2.433  86.922 116.012  0.00  0.00     0.119 C 
BRANCH   8   9
ATOM      9  C   LIG d   1       3.887  87.008 115.511  0.00  0.00     0.028 C 
ATOM     10  C   LIG d   1       4.910  86.900 116.655  0.00  0.00     0.006 C 
ENDBRANCH   8   9
BRANCH   8  11
ATOM     11  C   LIG d   1       1.790  85.794 115.198  0.00  0.00     0.028 C 
ATOM     12  C   LIG d   1       0.540  86.252 114.430  0.00  0.00     0.006 C 
ENDBRANCH   8  11
ENDBRANCH   7   8
ENDBRANCH   1   7
BRANCH   6  13
ATOM     13  N   LIG d   1       3.342  90.496 116.930  0.00  0.00    -0.311 N 
ATOM     14  C   LIG d   1       4.230  90.554 115.939  0.00  0.00     0.210 C 
ATOM     15  C   LIG d   1       5.695  90.579 116.385  0.00  0.00     0.109 C 
ATOM     16  O   LIG d   1       3.943  90.619 114.734  0.00  0.00    -0.276 OA
ATOM     17  H   LIG d   1       3.662  90.478 117.878  0.00  0.00     0.149 HD
ENDBRANCH   6  13
BRANCH   5  18
ATOM     18  N   LIG d   1       1.420  92.817 117.428  0.00  0.00     0.381 N 
ATOM     19  H   LIG d   1       1.072  93.367 118.189  0.00  0.00    -0.090 HD
ATOM     20  H   LIG d   1       0.966  93.122 116.585  0.00  0.00    -0.090 HD
ATOM     21  H   LIG d   1       2.405  92.938 117.345  0.00  0.00    -0.090 HD
ENDBRANCH   5  18
BRANCH   3  22
ATOM     22  C   LIG d   1      -2.100  89.606 117.916  0.00  0.00     0.382 C 
ATOM     23  O   LIG d   1      -2.658  88.530 117.591  0.00  0.00    -0.241 OA
ATOM     24  O   LIG d   1      -2.728  90.443 118.591  0.00  0.00    -0.241 OA
ENDBRANCH   3  22
TORSDOF 7
ENDMDL
