MODEL 1
REMARK VINA RESULT:      -5.3      0.000      0.000
REMARK  7 active torsions:
REMARK  status: ('A' for Active; 'I' for Inactive)
REMARK    1  A    between atoms: C_2  and  C_3 
REMARK    2  A    between atoms: C_3  and  O_6 
REMARK    3  A    between atoms: C_3  and  C_4 
REMARK    4  A    between atoms: C_7  and  O_6 
REMARK    5  A    between atoms: C_9  and  C_10 
REMARK    6  A    between atoms: N_15  and  C_14 
REMARK    7  A    between atoms: N_20  and  C_19 
REMARK       I    between atoms: C_22  and  N_20 
ROOT
ATOM      1  C   LIG d   1      -6.121  93.384 118.438  0.00  0.00     0.161 C 
ATOM      2  C   LIG d   1      -6.820  92.364 117.774  0.00  0.00     0.016 C 
ATOM      3  C   LIG d   1      -6.185  91.285 117.116  0.00  0.00     0.038 C 
ATOM      4  C   LIG d   1      -4.801  91.072 117.209  0.00  0.00     0.028 C 
ATOM      5  C   LIG d   1      -4.006  92.352 117.443  0.00  0.00    -0.047 C 
ATOM      6  C   LIG d   1      -4.617  93.109 118.645  0.00  0.00     0.091 C 
ENDROOT
BRANCH   1   7
ATOM      7  O   LIG d   1      -6.756  93.670 119.700  0.00  0.00    -0.368 OA
BRANCH   7   8
ATOM      8  C   LIG d   1      -7.148  95.048 119.919  0.00  0.00     0.119 C 
BRANCH   8   9
ATOM      9  C   LIG d   1      -8.532  95.033 120.596  0.00  0.00     0.028 C 
ATOM     10  C   LIG d   1      -9.666  94.722 119.604  0.00  0.00     0.006 C 
ENDBRANCH   8   9
BRANCH   8  11
ATOM     11  C   LIG d   1      -7.352  95.786 118.593  0.00  0.00     0.028 C 
ATOM     12  C   LIG d   1      -6.715  97.185 118.587  0.00  0.00     0.006 C 
ENDBRANCH   8  11
ENDBRANCH   7   8
ENDBRANCH   1   7
BRANCH   6  13
ATOM     13  N   LIG d   1      -3.950  94.415 118.890  0.00  0.00    -0.311 N 
ATOM     14  C   LIG d   1      -2.948  94.576 119.753  0.00  0.00     0.210 C 
ATOM     15  C   LIG d   1      -2.418  96.008 119.868  0.00  0.00     0.109 C 
ATOM     16  O   LIG d   1      -2.427  93.662 120.409  0.00  0.00    -0.276 OA
ATOM     17  H   LIG d   1      -4.290  95.204 118.376  0.00  0.00     0.149 HD
ENDBRANCH   6  13
BRANCH   5  18
ATOM     18  N   LIG d   1      -2.598  91.968 117.657  0.00  0.00     0.381 N 
ATOM     19  H   LIG d   1      -2.451  91.743 118.621  0.00  0.00    -0.090 HD
ATOM     20  H   LIG d   1      -2.009  92.748 117.423  0.00  0.00    -0.090 HD
ATOM     21  H   LIG d   1      -2.367  91.185 117.086  0.00  0.00    -0.090 HD
ENDBRANCH   5  18
BRANCH   3  22
ATOM     22  C   LIG d   1      -6.932  90.428 116.322  0.00  0.00     0.382 C 
ATOM     23  O   LIG d   1      -8.052  90.024 116.717  0.00  0.00    -0.241 OA
ATOM     24  O   LIG d   1      -6.480  90.018 115.236  0.00  0.00    -0.241 OA
ENDBRANCH   3  22
TORSDOF 7
ENDMDL
MODEL 2
REMARK VINA RESULT:      -5.3      0.849      1.818
REMARK  7 active torsions:
REMARK  status: ('A' for Active; 'I' for Inactive)
REMARK    1  A    between atoms: C_2  and  C_3 
REMARK    2  A    between atoms: C_3  and  O_6 
REMARK    3  A    between atoms: C_3  and  C_4 
REMARK    4  A    between atoms: C_7  and  O_6 
REMARK    5  A    between atoms: C_9  and  C_10 
REMARK    6  A    between atoms: N_15  and  C_14 
REMARK    7  A    between atoms: N_20  and  C_19 
REMARK       I    between atoms: C_22  and  N_20 
ROOT
ATOM      1  C   LIG d   1      -6.142  93.162 117.887  0.00  0.00     0.161 C 
ATOM      2  C   LIG d   1      -6.991  92.265 117.217  0.00  0.00     0.016 C 
ATOM      3  C   LIG d   1      -6.542  91.060 116.630  0.00  0.00     0.038 C 
ATOM      4  C   LIG d   1      -5.230  90.593 116.806  0.00  0.00     0.028 C 
ATOM      5  C   LIG d   1      -4.217  91.708 117.044  0.00  0.00    -0.047 C 
ATOM      6  C   LIG d   1      -4.730  92.616 118.185  0.00  0.00     0.091 C 
ENDROOT
BRANCH   1   7
ATOM      7  O   LIG d   1      -6.771  93.615 119.103  0.00  0.00    -0.368 OA
BRANCH   7   8
ATOM      8  C   LIG d   1      -7.791  94.633 118.952  0.00  0.00     0.119 C 
BRANCH   8   9
ATOM      9  C   LIG d   1      -7.079  95.953 118.600  0.00  0.00     0.028 C 
ATOM     10  C   LIG d   1      -6.076  96.385 119.683  0.00  0.00     0.006 C 
ENDBRANCH   8   9
BRANCH   8  11
ATOM     11  C   LIG d   1      -8.511  94.901 120.277  0.00  0.00     0.028 C 
ATOM     12  C   LIG d   1     -10.037  94.753 120.166  0.00  0.00     0.006 C 
ENDBRANCH   8  11
ENDBRANCH   7   8
ENDBRANCH   1   7
BRANCH   6  13
ATOM     13  N   LIG d   1      -3.839  93.781 118.426  0.00  0.00    -0.311 N 
ATOM     14  C   LIG d   1      -2.873  93.789 119.343  0.00  0.00     0.210 C 
ATOM     15  C   LIG d   1      -2.085  95.098 119.441  0.00  0.00     0.109 C 
ATOM     16  O   LIG d   1      -2.574  92.824 120.063  0.00  0.00    -0.276 OA
ATOM     17  H   LIG d   1      -3.992  94.596 117.864  0.00  0.00     0.149 HD
ENDBRANCH   6  13
BRANCH   5  18
ATOM     18  N   LIG d   1      -2.920  91.075 117.348  0.00  0.00     0.381 N 
ATOM     19  H   LIG d   1      -2.554  90.642 116.524  0.00  0.00    -0.090 HD
ATOM     20  H   LIG d   1      -3.061  90.362 118.042  0.00  0.00    -0.090 HD
ATOM     21  H   LIG d   1      -2.279  91.757 117.687  0.00  0.00    -0.090 HD
ENDBRANCH   5  18
BRANCH   3  22
ATOM     22  C   LIG d   1      -7.399  90.327 115.824  0.00  0.00     0.382 C 
ATOM     23  O   LIG d   1      -7.413  90.521 114.584  0.00  0.00    -0.241 OA
ATOM     24  O   LIG d   1      -8.190  89.506 116.325  0.00  0.00    -0.241 OA
ENDBRANCH   3  22
TORSDOF 7
ENDMDL
MODEL 3
REMARK VINA RESULT:      -5.0      2.338      4.837
REMARK  7 active torsions:
REMARK  status: ('A' for Active; 'I' for Inactive)
REMARK    1  A    between atoms: C_2  and  C_3 
REMARK    2  A    between atoms: C_3  and  O_6 
REMARK    3  A    between atoms: C_3  and  C_4 
REMARK    4  A    between atoms: C_7  and  O_6 
REMARK    5  A    between atoms: C_9  and  C_10 
REMARK    6  A    between atoms: N_15  and  C_14 
REMARK    7  A    between atoms: N_20  and  C_19 
REMARK       I    between atoms: C_22  and  N_20 
ROOT
ATOM      1  C   LIG d   1      -4.361  91.651 118.131  0.00  0.00     0.161 C 
ATOM      2  C   LIG d   1      -4.894  90.923 117.054  0.00  0.00     0.016 C 
ATOM      3  C   LIG d   1      -6.027  91.340 116.318  0.00  0.00     0.038 C 
ATOM      4  C   LIG d   1      -6.618  92.597 116.515  0.00  0.00     0.028 C 
ATOM      5  C   LIG d   1      -6.426  93.142 117.926  0.00  0.00    -0.047 C 
ATOM      6  C   LIG d   1      -4.925  93.079 118.288  0.00  0.00     0.091 C 
ENDROOT
BRANCH   1   7
ATOM      7  O   LIG d   1      -2.924  91.687 118.032  0.00  0.00    -0.368 OA
BRANCH   7   8
ATOM      8  C   LIG d   1      -2.198  90.868 118.981  0.00  0.00     0.119 C 
BRANCH   8   9
ATOM      9  C   LIG d   1      -1.522  89.731 118.190  0.00  0.00     0.028 C 
ATOM     10  C   LIG d   1      -0.290  90.214 117.407  0.00  0.00     0.006 C 
ENDBRANCH   8   9
BRANCH   8  11
ATOM     11  C   LIG d   1      -3.151  90.171 119.958  0.00  0.00     0.028 C 
ATOM     12  C   LIG d   1      -3.027  88.640 119.921  0.00  0.00     0.006 C 
ENDBRANCH   8  11
ENDBRANCH   7   8
ENDBRANCH   1   7
BRANCH   6  13
ATOM     13  N   LIG d   1      -4.659  93.515 119.684  0.00  0.00    -0.311 N 
ATOM     14  C   LIG d   1      -3.698  94.377 120.013  0.00  0.00     0.210 C 
ATOM     15  C   LIG d   1      -3.582  94.676 121.510  0.00  0.00     0.109 C 
ATOM     16  O   LIG d   1      -2.952  94.946 119.202  0.00  0.00    -0.276 OA
ATOM     17  H   LIG d   1      -5.239  93.126 120.402  0.00  0.00     0.149 HD
ENDBRANCH   6  13
BRANCH   5  18
ATOM     18  N   LIG d   1      -6.969  94.513 117.952  0.00  0.00     0.381 N 
ATOM     19  H   LIG d   1      -6.483  95.083 117.289  0.00  0.00    -0.090 HD
ATOM     20  H   LIG d   1      -6.827  94.902 118.867  0.00  0.00    -0.090 HD
ATOM     21  H   LIG d   1      -7.942  94.498 117.737  0.00  0.00    -0.090 HD
ENDBRANCH   5  18
BRANCH   3  22
ATOM     22  C   LIG d   1      -6.606  90.476 115.400  0.00  0.00     0.382 C 
ATOM     23  O   LIG d   1      -7.827  90.576 115.129  0.00  0.00    -0.241 OA
ATOM     24  O   LIG d   1      -5.932  89.571 114.873  0.00  0.00    -0.241 OA
ENDBRANCH   3  22
TORSDOF 7
ENDMDL
MODEL 4
REMARK VINA RESULT:      -5.0      2.545      6.617
REMARK  7 active torsions:
REMARK  status: ('A' for Active; 'I' for Inactive)
REMARK    1  A    between atoms: C_2  and  C_3 
REMARK    2  A    between atoms: C_3  and  O_6 
REMARK    3  A    between atoms: C_3  and  C_4 
REMARK    4  A    between atoms: C_7  and  O_6 
REMARK    5  A    between atoms: C_9  and  C_10 
REMARK    6  A    between atoms: N_15  and  C_14 
REMARK    7  A    between atoms: N_20  and  C_19 
REMARK       I    between atoms: C_22  and  N_20 
ROOT
ATOM      1  C   LIG d   1      -4.141  92.152 117.448  0.00  0.00     0.161 C 
ATOM      2  C   LIG d   1      -3.561  92.980 118.423  0.00  0.00     0.016 C 
ATOM      3  C   LIG d   1      -4.313  93.814 119.283  0.00  0.00     0.038 C 
ATOM      4  C   LIG d   1      -5.714  93.761 119.328  0.00  0.00     0.028 C 
ATOM      5  C   LIG d   1      -6.346  93.312 118.015  0.00  0.00    -0.047 C 
ATOM      6  C   LIG d   1      -5.673  91.998 117.558  0.00  0.00     0.091 C 
ENDROOT
BRANCH   1   7
ATOM      7  O   LIG d   1      -3.506  90.858 117.465  0.00  0.00    -0.368 OA
BRANCH   7   8
ATOM      8  C   LIG d   1      -2.613  90.601 118.577  0.00  0.00     0.119 C 
BRANCH   8   9
ATOM      9  C   LIG d   1      -1.277  90.102 117.992  0.00  0.00     0.028 C 
ATOM     10  C   LIG d   1      -0.182  91.181 118.026  0.00  0.00     0.006 C 
ENDBRANCH   8   9
BRANCH   8  11
ATOM     11  C   LIG d   1      -3.127  89.454 119.451  0.00  0.00     0.028 C 
ATOM     12  C   LIG d   1      -2.164  88.256 119.489  0.00  0.00     0.006 C 
ENDBRANCH   8  11
ENDBRANCH   7   8
ENDBRANCH   1   7
BRANCH   6  13
ATOM     13  N   LIG d   1      -6.174  91.534 116.238  0.00  0.00    -0.311 N 
ATOM     14  C   LIG d   1      -7.200  90.697 116.096  0.00  0.00     0.210 C 
ATOM     15  C   LIG d   1      -7.541  90.331 114.648  0.00  0.00     0.109 C 
ATOM     16  O   LIG d   1      -7.881  90.249 117.031  0.00  0.00    -0.276 OA
ATOM     17  H   LIG d   1      -5.699  91.874 115.424  0.00  0.00     0.149 HD
ENDBRANCH   6  13
BRANCH   5  18
ATOM     18  N   LIG d   1      -7.796  93.170 118.244  0.00  0.00     0.381 N 
ATOM     19  H   LIG d   1      -7.963  92.880 119.187  0.00  0.00    -0.090 HD
ATOM     20  H   LIG d   1      -8.155  92.461 117.628  0.00  0.00    -0.090 HD
ATOM     21  H   LIG d   1      -8.256  94.036 118.069  0.00  0.00    -0.090 HD
ENDBRANCH   5  18
BRANCH   3  22
ATOM     22  C   LIG d   1      -3.662  94.741 120.082  0.00  0.00     0.382 C 
ATOM     23  O   LIG d   1      -3.705  95.960 119.790  0.00  0.00    -0.241 OA
ATOM     24  O   LIG d   1      -2.996  94.370 121.067  0.00  0.00    -0.241 OA
ENDBRANCH   3  22
TORSDOF 7
ENDMDL
MODEL 5
REMARK VINA RESULT:      -4.9      2.177      4.253
REMARK  7 active torsions:
REMARK  status: ('A' for Active; 'I' for Inactive)
REMARK    1  A    between atoms: C_2  and  C_3 
REMARK    2  A    between atoms: C_3  and  O_6 
REMARK    3  A    between atoms: C_3  and  C_4 
REMARK    4  A    between atoms: C_7  and  O_6 
REMARK    5  A    between atoms: C_9  and  C_10 
REMARK    6  A    between atoms: N_15  and  C_14 
REMARK    7  A    between atoms: N_20  and  C_19 
REMARK       I    between atoms: C_22  and  N_20 
ROOT
ATOM      1  C   LIG d   1      -4.854  91.990 119.085  0.00  0.00     0.161 C 
ATOM      2  C   LIG d   1      -5.204  91.111 118.047  0.00  0.00     0.016 C 
ATOM      3  C   LIG d   1      -6.143  91.431 117.039  0.00  0.00     0.038 C 
ATOM      4  C   LIG d   1      -6.687  92.718 116.914  0.00  0.00     0.028 C 
ATOM      5  C   LIG d   1      -6.747  93.481 118.234  0.00  0.00    -0.047 C 
ATOM      6  C   LIG d   1      -5.354  93.439 118.902  0.00  0.00     0.091 C 
ENDROOT
BRANCH   1   7
ATOM      7  O   LIG d   1      -3.426  91.974 119.279  0.00  0.00    -0.368 OA
BRANCH   7   8
ATOM      8  C   LIG d   1      -2.620  92.160 118.090  0.00  0.00     0.119 C 
BRANCH   8   9
ATOM      9  C   LIG d   1      -1.485  91.117 118.132  0.00  0.00     0.028 C 
ATOM     10  C   LIG d   1      -1.743  90.012 119.170  0.00  0.00     0.006 C 
ENDBRANCH   8   9
BRANCH   8  11
ATOM     11  C   LIG d   1      -1.919  93.522 118.099  0.00  0.00     0.028 C 
ATOM     12  C   LIG d   1      -1.617  94.026 119.519  0.00  0.00     0.006 C 
ENDBRANCH   8  11
ENDBRANCH   7   8
ENDBRANCH   1   7
BRANCH   6  13
ATOM     13  N   LIG d   1      -5.346  94.089 120.238  0.00  0.00    -0.311 N 
ATOM     14  C   LIG d   1      -4.996  95.359 120.433  0.00  0.00     0.210 C 
ATOM     15  C   LIG d   1      -5.039  95.825 121.892  0.00  0.00     0.109 C 
ATOM     16  O   LIG d   1      -4.685  96.153 119.533  0.00  0.00    -0.276 OA
ATOM     17  H   LIG d   1      -5.616  93.526 121.021  0.00  0.00     0.149 HD
ENDBRANCH   6  13
BRANCH   5  18
ATOM     18  N   LIG d   1      -7.205  94.851 117.936  0.00  0.00     0.381 N 
ATOM     19  H   LIG d   1      -7.994  94.819 117.322  0.00  0.00    -0.090 HD
ATOM     20  H   LIG d   1      -6.464  95.347 117.473  0.00  0.00    -0.090 HD
ATOM     21  H   LIG d   1      -7.451  95.319 118.780  0.00  0.00    -0.090 HD
ENDBRANCH   5  18
BRANCH   3  22
ATOM     22  C   LIG d   1      -6.577  90.445 116.166  0.00  0.00     0.382 C 
ATOM     23  O   LIG d   1      -7.719  89.945 116.302  0.00  0.00    -0.241 OA
ATOM     24  O   LIG d   1      -5.824  90.019 115.270  0.00  0.00    -0.241 OA
ENDBRANCH   3  22
TORSDOF 7
ENDMDL
MODEL 6
REMARK VINA RESULT:      -4.4      2.342      5.004
REMARK  7 active torsions:
REMARK  status: ('A' for Active; 'I' for Inactive)
REMARK    1  A    between atoms: C_2  and  C_3 
REMARK    2  A    between atoms: C_3  and  O_6 
REMARK    3  A    between atoms: C_3  and  C_4 
REMARK    4  A    between atoms: C_7  and  O_6 
REMARK    5  A    between atoms: C_9  and  C_10 
REMARK    6  A    between atoms: N_15  and  C_14 
REMARK    7  A    between atoms: N_20  and  C_19 
REMARK       I    between atoms: C_22  and  N_20 
ROOT
ATOM      1  C   LIG d   1      -3.804  92.708 118.761  0.00  0.00     0.161 C 
ATOM      2  C   LIG d   1      -5.004  93.426 118.897  0.00  0.00     0.016 C 
ATOM      3  C   LIG d   1      -6.160  93.163 118.127  0.00  0.00     0.038 C 
ATOM      4  C   LIG d   1      -6.243  92.057 117.267  0.00  0.00     0.028 C 
ATOM      5  C   LIG d   1      -4.890  91.610 116.725  0.00  0.00    -0.047 C 
ATOM      6  C   LIG d   1      -3.911  91.427 117.907  0.00  0.00     0.091 C 
ENDROOT
BRANCH   1   7
ATOM      7  O   LIG d   1      -3.269  92.400 120.063  0.00  0.00    -0.368 OA
BRANCH   7   8
ATOM      8  C   LIG d   1      -2.154  93.214 120.502  0.00  0.00     0.119 C 
BRANCH   8   9
ATOM      9  C   LIG d   1      -1.677  94.039 119.292  0.00  0.00     0.028 C 
ATOM     10  C   LIG d   1      -1.793  95.554 119.532  0.00  0.00     0.006 C 
ENDBRANCH   8   9
BRANCH   8  11
ATOM     11  C   LIG d   1      -0.954  92.348 120.900  0.00  0.00     0.028 C 
ATOM     12  C   LIG d   1       0.273  92.584 120.006  0.00  0.00     0.006 C 
ENDBRANCH   8  11
ENDBRANCH   7   8
ENDBRANCH   1   7
BRANCH   6  13
ATOM     13  N   LIG d   1      -2.539  91.071 117.458  0.00  0.00    -0.311 N 
ATOM     14  C   LIG d   1      -1.801  90.126 118.036  0.00  0.00     0.210 C 
ATOM     15  C   LIG d   1      -0.407  89.933 117.429  0.00  0.00     0.109 C 
ATOM     16  O   LIG d   1      -2.179  89.408 118.973  0.00  0.00    -0.276 OA
ATOM     17  H   LIG d   1      -2.166  91.584 116.683  0.00  0.00     0.149 HD
ENDBRANCH   6  13
BRANCH   5  18
ATOM     18  N   LIG d   1      -5.106  90.369 115.956  0.00  0.00     0.381 N 
ATOM     19  H   LIG d   1      -5.770  90.535 115.226  0.00  0.00    -0.090 HD
ATOM     20  H   LIG d   1      -5.480  89.668 116.570  0.00  0.00    -0.090 HD
ATOM     21  H   LIG d   1      -4.244  90.055 115.567  0.00  0.00    -0.090 HD
ENDBRANCH   5  18
BRANCH   3  22
ATOM     22  C   LIG d   1      -7.237  94.035 118.183  0.00  0.00     0.382 C 
ATOM     23  O   LIG d   1      -7.039  95.271 118.270  0.00  0.00    -0.241 OA
ATOM     24  O   LIG d   1      -8.404  93.599 118.193  0.00  0.00    -0.241 OA
ENDBRANCH   3  22
TORSDOF 7
ENDMDL
MODEL 7
REMARK VINA RESULT:      -4.3      2.690      4.204
REMARK  7 active torsions:
REMARK  status: ('A' for Active; 'I' for Inactive)
REMARK    1  A    between atoms: C_2  and  C_3 
REMARK    2  A    between atoms: C_3  and  O_6 
REMARK    3  A    between atoms: C_3  and  C_4 
REMARK    4  A    between atoms: C_7  and  O_6 
REMARK    5  A    between atoms: C_9  and  C_10 
REMARK    6  A    between atoms: N_15  and  C_14 
REMARK    7  A    between atoms: N_20  and  C_19 
REMARK       I    between atoms: C_22  and  N_20 
ROOT
ATOM      1  C   LIG d   1      -3.524  92.275 117.899  0.00  0.00     0.161 C 
ATOM      2  C   LIG d   1      -3.344  90.885 117.993  0.00  0.00     0.016 C 
ATOM      3  C   LIG d   1      -3.156  90.205 119.219  0.00  0.00     0.038 C 
ATOM      4  C   LIG d   1      -3.288  90.856 120.455  0.00  0.00     0.028 C 
ATOM      5  C   LIG d   1      -2.967  92.346 120.392  0.00  0.00    -0.047 C 
ATOM      6  C   LIG d   1      -3.781  92.986 119.244  0.00  0.00     0.091 C 
ENDROOT
BRANCH   1   7
ATOM      7  O   LIG d   1      -4.583  92.568 116.967  0.00  0.00    -0.368 OA
BRANCH   7   8
ATOM      8  C   LIG d   1      -5.647  91.589 116.882  0.00  0.00     0.119 C 
BRANCH   8   9
ATOM      9  C   LIG d   1      -6.120  91.544 115.416  0.00  0.00     0.028 C 
ATOM     10  C   LIG d   1      -7.233  90.508 115.189  0.00  0.00     0.006 C 
ENDBRANCH   8   9
BRANCH   8  11
ATOM     11  C   LIG d   1      -6.873  92.025 117.690  0.00  0.00     0.028 C 
ATOM     12  C   LIG d   1      -7.014  93.553 117.779  0.00  0.00     0.006 C 
ENDBRANCH   8  11
ENDBRANCH   7   8
ENDBRANCH   1   7
BRANCH   6  13
ATOM     13  N   LIG d   1      -3.464  94.426 119.059  0.00  0.00    -0.311 N 
ATOM     14  C   LIG d   1      -4.100  95.405 119.701  0.00  0.00     0.210 C 
ATOM     15  C   LIG d   1      -3.630  96.820 119.349  0.00  0.00     0.109 C 
ATOM     16  O   LIG d   1      -4.986  95.234 120.551  0.00  0.00    -0.276 OA
ATOM     17  H   LIG d   1      -2.736  94.653 118.410  0.00  0.00     0.149 HD
ENDBRANCH   6  13
BRANCH   5  18
ATOM     18  N   LIG d   1      -3.277  92.924 121.713  0.00  0.00     0.381 N 
ATOM     19  H   LIG d   1      -3.920  92.332 122.200  0.00  0.00    -0.090 HD
ATOM     20  H   LIG d   1      -3.712  93.821 121.582  0.00  0.00    -0.090 HD
ATOM     21  H   LIG d   1      -2.441  93.027 122.245  0.00  0.00    -0.090 HD
ENDBRANCH   5  18
BRANCH   3  22
ATOM     22  C   LIG d   1      -2.794  88.867 119.214  0.00  0.00     0.382 C 
ATOM     23  O   LIG d   1      -1.908  88.460 118.425  0.00  0.00    -0.241 OA
ATOM     24  O   LIG d   1      -3.373  88.053 119.958  0.00  0.00    -0.241 OA
ENDBRANCH   3  22
TORSDOF 7
ENDMDL
MODEL 8
REMARK VINA RESULT:      -4.3      4.082      7.531
REMARK  7 active torsions:
REMARK  status: ('A' for Active; 'I' for Inactive)
REMARK    1  A    between atoms: C_2  and  C_3 
REMARK    2  A    between atoms: C_3  and  O_6 
REMARK    3  A    between atoms: C_3  and  C_4 
REMARK    4  A    between atoms: C_7  and  O_6 
REMARK    5  A    between atoms: C_9  and  C_10 
REMARK    6  A    between atoms: N_15  and  C_14 
REMARK    7  A    between atoms: N_20  and  C_19 
REMARK       I    between atoms: C_22  and  N_20 
ROOT
ATOM      1  C   LIG d   1      -0.851  91.428 117.988  0.00  0.00     0.161 C 
ATOM      2  C   LIG d   1       0.517  91.712 118.135  0.00  0.00     0.016 C 
ATOM      3  C   LIG d   1       1.038  93.025 118.185  0.00  0.00     0.038 C 
ATOM      4  C   LIG d   1       0.205  94.152 118.243  0.00  0.00     0.028 C 
ATOM      5  C   LIG d   1      -1.155  93.934 117.589  0.00  0.00    -0.047 C 
ATOM      6  C   LIG d   1      -1.786  92.644 118.161  0.00  0.00     0.091 C 
ENDROOT
BRANCH   1   7
ATOM      7  O   LIG d   1      -1.232  90.371 118.891  0.00  0.00    -0.368 OA
BRANCH   7   8
ATOM      8  C   LIG d   1      -1.641  89.125 118.277  0.00  0.00     0.119 C 
BRANCH   8   9
ATOM      9  C   LIG d   1      -2.046  88.162 119.409  0.00  0.00     0.028 C 
ATOM     10  C   LIG d   1      -3.213  88.705 120.251  0.00  0.00     0.006 C 
ENDBRANCH   8   9
BRANCH   8  11
ATOM     11  C   LIG d   1      -0.468  88.443 117.566  0.00  0.00     0.028 C 
ATOM     12  C   LIG d   1       0.268  87.434 118.462  0.00  0.00     0.006 C 
ENDBRANCH   8  11
ENDBRANCH   7   8
ENDBRANCH   1   7
BRANCH   6  13
ATOM     13  N   LIG d   1      -3.082  92.311 117.513  0.00  0.00    -0.311 N 
ATOM     14  C   LIG d   1      -4.263  92.690 117.998  0.00  0.00     0.210 C 
ATOM     15  C   LIG d   1      -5.475  92.223 117.186  0.00  0.00     0.109 C 
ATOM     16  O   LIG d   1      -4.420  93.395 119.006  0.00  0.00    -0.276 OA
ATOM     17  H   LIG d   1      -3.045  91.768 116.673  0.00  0.00     0.149 HD
ENDBRANCH   6  13
BRANCH   5  18
ATOM     18  N   LIG d   1      -1.970  95.137 117.842  0.00  0.00     0.381 N 
ATOM     19  H   LIG d   1      -2.461  95.038 118.708  0.00  0.00    -0.090 HD
ATOM     20  H   LIG d   1      -2.646  95.233 117.105  0.00  0.00    -0.090 HD
ATOM     21  H   LIG d   1      -1.386  95.944 117.874  0.00  0.00    -0.090 HD
ENDBRANCH   5  18
BRANCH   3  22
ATOM     22  C   LIG d   1       2.410  93.222 118.137  0.00  0.00     0.382 C 
ATOM     23  O   LIG d   1       3.008  93.206 117.034  0.00  0.00    -0.241 OA
ATOM     24  O   LIG d   1       3.064  93.371 119.187  0.00  0.00    -0.241 OA
ENDBRANCH   3  22
TORSDOF 7
ENDMDL
MODEL 9
REMARK VINA RESULT:      -4.2      1.487      2.111
REMARK  7 active torsions:
REMARK  status: ('A' for Active; 'I' for Inactive)
REMARK    1  A    between atoms: C_2  and  C_3 
REMARK    2  A    between atoms: C_3  and  O_6 
REMARK    3  A    between atoms: C_3  and  C_4 
REMARK    4  A    between atoms: C_7  and  O_6 
REMARK    5  A    between atoms: C_9  and  C_10 
REMARK    6  A    between atoms: N_15  and  C_14 
REMARK    7  A    between atoms: N_20  and  C_19 
REMARK       I    between atoms: C_22  and  N_20 
ROOT
ATOM      1  C   LIG d   1      -4.875  93.216 118.550  0.00  0.00     0.161 C 
ATOM      2  C   LIG d   1      -5.612  92.628 117.509  0.00  0.00     0.016 C 
ATOM      3  C   LIG d   1      -5.213  91.446 116.843  0.00  0.00     0.038 C 
ATOM      4  C   LIG d   1      -4.119  90.683 117.279  0.00  0.00     0.028 C 
ATOM      5  C   LIG d   1      -3.057  91.505 118.002  0.00  0.00    -0.047 C 
ATOM      6  C   LIG d   1      -3.738  92.337 119.113  0.00  0.00     0.091 C 
ENDROOT
BRANCH   1   7
ATOM      7  O   LIG d   1      -5.764  93.623 119.609  0.00  0.00    -0.368 OA
BRANCH   7   8
ATOM      8  C   LIG d   1      -6.618  94.758 119.323  0.00  0.00     0.119 C 
BRANCH   8   9
ATOM      9  C   LIG d   1      -5.909  96.017 119.858  0.00  0.00     0.028 C 
ATOM     10  C   LIG d   1      -5.308  95.803 121.257  0.00  0.00     0.006 C 
ENDBRANCH   8   9
BRANCH   8  11
ATOM     11  C   LIG d   1      -7.935  94.674 120.099  0.00  0.00     0.028 C 
ATOM     12  C   LIG d   1      -9.167  94.894 119.207  0.00  0.00     0.006 C 
ENDBRANCH   8  11
ENDBRANCH   7   8
ENDBRANCH   1   7
BRANCH   6  13
ATOM     13  N   LIG d   1      -2.782  93.234 119.815  0.00  0.00    -0.311 N 
ATOM     14  C   LIG d   1      -2.634  93.255 121.138  0.00  0.00     0.210 C 
ATOM     15  C   LIG d   1      -1.610  94.269 121.658  0.00  0.00     0.109 C 
ATOM     16  O   LIG d   1      -3.231  92.509 121.929  0.00  0.00    -0.276 OA
ATOM     17  H   LIG d   1      -2.235  93.851 119.248  0.00  0.00     0.149 HD
ENDBRANCH   6  13
BRANCH   5  18
ATOM     18  N   LIG d   1      -2.044  90.567 118.521  0.00  0.00     0.381 N 
ATOM     19  H   LIG d   1      -2.102  89.699 118.027  0.00  0.00    -0.090 HD
ATOM     20  H   LIG d   1      -2.233  90.389 119.492  0.00  0.00    -0.090 HD
ATOM     21  H   LIG d   1      -1.133  90.957 118.418  0.00  0.00    -0.090 HD
ENDBRANCH   5  18
BRANCH   3  22
ATOM     22  C   LIG d   1      -5.888  91.037 115.704  0.00  0.00     0.382 C 
ATOM     23  O   LIG d   1      -6.116  89.818 115.513  0.00  0.00    -0.241 OA
ATOM     24  O   LIG d   1      -6.234  91.868 114.842  0.00  0.00    -0.241 OA
ENDBRANCH   3  22
TORSDOF 7
ENDMDL
