MODEL 1
REMARK VINA RESULT:      -5.2      0.000      0.000
REMARK  7 active torsions:
REMARK  status: ('A' for Active; 'I' for Inactive)
REMARK    1  A    between atoms: C_2  and  C_3 
REMARK    2  A    between atoms: C_3  and  O_6 
REMARK    3  A    between atoms: C_3  and  C_4 
REMARK    4  A    between atoms: C_7  and  O_6 
REMARK    5  A    between atoms: C_9  and  C_10 
REMARK    6  A    between atoms: N_15  and  C_14 
REMARK    7  A    between atoms: N_20  and  C_19 
REMARK       I    between atoms: C_22  and  N_20 
ROOT
ATOM      1  C   LIG d   1      -4.817  92.464 117.478  0.00  0.00     0.161 C 
ATOM      2  C   LIG d   1      -5.987  91.807 117.062  0.00  0.00     0.016 C 
ATOM      3  C   LIG d   1      -6.040  90.426 116.761  0.00  0.00     0.038 C 
ATOM      4  C   LIG d   1      -4.954  89.573 117.004  0.00  0.00     0.028 C 
ATOM      5  C   LIG d   1      -3.603  90.279 116.945  0.00  0.00    -0.047 C 
ATOM      6  C   LIG d   1      -3.650  91.528 117.855  0.00  0.00     0.091 C 
ENDROOT
BRANCH   1   7
ATOM      7  O   LIG d   1      -5.119  93.354 118.571  0.00  0.00    -0.368 OA
BRANCH   7   8
ATOM      8  C   LIG d   1      -6.514  93.706 118.739  0.00  0.00     0.119 C 
BRANCH   8   9
ATOM      9  C   LIG d   1      -6.659  95.200 118.387  0.00  0.00     0.028 C 
ATOM     10  C   LIG d   1      -8.104  95.702 118.545  0.00  0.00     0.006 C 
ENDBRANCH   8   9
BRANCH   8  11
ATOM     11  C   LIG d   1      -6.945  93.592 120.204  0.00  0.00     0.028 C 
ATOM     12  C   LIG d   1      -5.972  92.754 121.048  0.00  0.00     0.006 C 
ENDBRANCH   8  11
ENDBRANCH   7   8
ENDBRANCH   1   7
BRANCH   6  13
ATOM     13  N   LIG d   1      -2.396  92.324 117.790  0.00  0.00    -0.311 N 
ATOM     14  C   LIG d   1      -1.379  92.159 118.633  0.00  0.00     0.210 C 
ATOM     15  C   LIG d   1      -0.190  93.096 118.403  0.00  0.00     0.109 C 
ATOM     16  O   LIG d   1      -1.335  91.303 119.530  0.00  0.00    -0.276 OA
ATOM     17  H   LIG d   1      -2.335  93.019 117.073  0.00  0.00     0.149 HD
ENDBRANCH   6  13
BRANCH   5  18
ATOM     18  N   LIG d   1      -2.573  89.305 117.351  0.00  0.00     0.381 N 
ATOM     19  H   LIG d   1      -2.124  89.617 118.189  0.00  0.00    -0.090 HD
ATOM     20  H   LIG d   1      -1.879  89.245 116.626  0.00  0.00    -0.090 HD
ATOM     21  H   LIG d   1      -2.987  88.412 117.499  0.00  0.00    -0.090 HD
ENDBRANCH   5  18
BRANCH   3  22
ATOM     22  C   LIG d   1      -7.178  89.894 116.174  0.00  0.00     0.382 C 
ATOM     23  O   LIG d   1      -7.742  88.899 116.690  0.00  0.00    -0.241 OA
ATOM     24  O   LIG d   1      -7.621  90.368 115.111  0.00  0.00    -0.241 OA
ENDBRANCH   3  22
TORSDOF 7
ENDMDL
MODEL 2
REMARK VINA RESULT:      -5.1      2.414      4.731
REMARK  7 active torsions:
REMARK  status: ('A' for Active; 'I' for Inactive)
REMARK    1  A    between atoms: C_2  and  C_3 
REMARK    2  A    between atoms: C_3  and  O_6 
REMARK    3  A    between atoms: C_3  and  C_4 
REMARK    4  A    between atoms: C_7  and  O_6 
REMARK    5  A    between atoms: C_9  and  C_10 
REMARK    6  A    between atoms: N_15  and  C_14 
REMARK    7  A    between atoms: N_20  and  C_19 
REMARK       I    between atoms: C_22  and  N_20 
ROOT
ATOM      1  C   LIG d   1      -3.845  90.579 117.809  0.00  0.00     0.161 C 
ATOM      2  C   LIG d   1      -4.584  90.047 116.739  0.00  0.00     0.016 C 
ATOM      3  C   LIG d   1      -5.637  90.741 116.100  0.00  0.00     0.038 C 
ATOM      4  C   LIG d   1      -5.925  92.082 116.391  0.00  0.00     0.028 C 
ATOM      5  C   LIG d   1      -5.540  92.491 117.809  0.00  0.00    -0.047 C 
ATOM      6  C   LIG d   1      -4.072  92.083 118.067  0.00  0.00     0.091 C 
ENDROOT
BRANCH   1   7
ATOM      7  O   LIG d   1      -2.443  90.309 117.617  0.00  0.00    -0.368 OA
BRANCH   7   8
ATOM      8  C   LIG d   1      -1.876  89.260 118.440  0.00  0.00     0.119 C 
BRANCH   8   9
ATOM      9  C   LIG d   1      -1.752  87.999 117.564  0.00  0.00     0.028 C 
ATOM     10  C   LIG d   1      -0.312  87.763 117.076  0.00  0.00     0.006 C 
ENDBRANCH   8   9
BRANCH   8  11
ATOM     11  C   LIG d   1      -2.825  88.871 119.578  0.00  0.00     0.028 C 
ATOM     12  C   LIG d   1      -2.892  87.353 119.805  0.00  0.00     0.006 C 
ENDBRANCH   8  11
ENDBRANCH   7   8
ENDBRANCH   1   7
BRANCH   6  13
ATOM     13  N   LIG d   1      -3.640  92.370 119.460  0.00  0.00    -0.311 N 
ATOM     14  C   LIG d   1      -2.970  93.468 119.808  0.00  0.00     0.210 C 
ATOM     15  C   LIG d   1      -2.605  93.558 121.293  0.00  0.00     0.109 C 
ATOM     16  O   LIG d   1      -2.672  94.390 119.034  0.00  0.00    -0.276 OA
ATOM     17  H   LIG d   1      -3.868  91.690 120.158  0.00  0.00     0.149 HD
ENDBRANCH   6  13
BRANCH   5  18
ATOM     18  N   LIG d   1      -5.767  93.943 117.932  0.00  0.00     0.381 N 
ATOM     19  H   LIG d   1      -6.288  94.136 118.764  0.00  0.00    -0.090 HD
ATOM     20  H   LIG d   1      -6.305  94.256 117.143  0.00  0.00    -0.090 HD
ATOM     21  H   LIG d   1      -4.894  94.423 117.959  0.00  0.00    -0.090 HD
ENDBRANCH   5  18
BRANCH   3  22
ATOM     22  C   LIG d   1      -6.441  90.078 115.185  0.00  0.00     0.382 C 
ATOM     23  O   LIG d   1      -7.672  90.316 115.145  0.00  0.00    -0.241 OA
ATOM     24  O   LIG d   1      -5.958  89.213 114.430  0.00  0.00    -0.241 OA
ENDBRANCH   3  22
TORSDOF 7
ENDMDL
MODEL 3
REMARK VINA RESULT:      -4.9      1.221      1.803
REMARK  7 active torsions:
REMARK  status: ('A' for Active; 'I' for Inactive)
REMARK    1  A    between atoms: C_2  and  C_3 
REMARK    2  A    between atoms: C_3  and  O_6 
REMARK    3  A    between atoms: C_3  and  C_4 
REMARK    4  A    between atoms: C_7  and  O_6 
REMARK    5  A    between atoms: C_9  and  C_10 
REMARK    6  A    between atoms: N_15  and  C_14 
REMARK    7  A    between atoms: N_20  and  C_19 
REMARK       I    between atoms: C_22  and  N_20 
ROOT
ATOM      1  C   LIG d   1      -4.770  92.277 117.925  0.00  0.00     0.161 C 
ATOM      2  C   LIG d   1      -5.938  91.659 117.449  0.00  0.00     0.016 C 
ATOM      3  C   LIG d   1      -5.959  90.359 116.893  0.00  0.00     0.038 C 
ATOM      4  C   LIG d   1      -4.831  89.526 116.912  0.00  0.00     0.028 C 
ATOM      5  C   LIG d   1      -3.512  90.292 116.922  0.00  0.00    -0.047 C 
ATOM      6  C   LIG d   1      -3.550  91.341 118.056  0.00  0.00     0.091 C 
ENDROOT
BRANCH   1   7
ATOM      7  O   LIG d   1      -5.039  92.929 119.182  0.00  0.00    -0.368 OA
BRANCH   7   8
ATOM      8  C   LIG d   1      -4.958  94.375 119.180  0.00  0.00     0.119 C 
BRANCH   8   9
ATOM      9  C   LIG d   1      -3.914  94.782 120.239  0.00  0.00     0.028 C 
ATOM     10  C   LIG d   1      -2.719  95.532 119.627  0.00  0.00     0.006 C 
ENDBRANCH   8   9
BRANCH   8  11
ATOM     11  C   LIG d   1      -6.273  95.008 119.644  0.00  0.00     0.028 C 
ATOM     12  C   LIG d   1      -7.073  95.633 118.490  0.00  0.00     0.006 C 
ENDBRANCH   8  11
ENDBRANCH   7   8
ENDBRANCH   1   7
BRANCH   6  13
ATOM     13  N   LIG d   1      -2.331  92.191 118.083  0.00  0.00    -0.311 N 
ATOM     14  C   LIG d   1      -1.270  91.928 118.843  0.00  0.00     0.210 C 
ATOM     15  C   LIG d   1      -0.128  92.944 118.734  0.00  0.00     0.109 C 
ATOM     16  O   LIG d   1      -1.152  90.932 119.573  0.00  0.00    -0.276 OA
ATOM     17  H   LIG d   1      -2.329  93.003 117.497  0.00  0.00     0.149 HD
ENDBRANCH   6  13
BRANCH   5  18
ATOM     18  N   LIG d   1      -2.426  89.307 117.082  0.00  0.00     0.381 N 
ATOM     19  H   LIG d   1      -1.841  89.569 117.850  0.00  0.00    -0.090 HD
ATOM     20  H   LIG d   1      -1.866  89.302 116.247  0.00  0.00    -0.090 HD
ATOM     21  H   LIG d   1      -2.808  88.400 117.240  0.00  0.00    -0.090 HD
ENDBRANCH   5  18
BRANCH   3  22
ATOM     22  C   LIG d   1      -7.109  89.896 116.272  0.00  0.00     0.382 C 
ATOM     23  O   LIG d   1      -7.714  88.899 116.735  0.00  0.00    -0.241 OA
ATOM     24  O   LIG d   1      -7.525  90.436 115.229  0.00  0.00    -0.241 OA
ENDBRANCH   3  22
TORSDOF 7
ENDMDL
MODEL 4
REMARK VINA RESULT:      -4.9      1.634      2.058
REMARK  7 active torsions:
REMARK  status: ('A' for Active; 'I' for Inactive)
REMARK    1  A    between atoms: C_2  and  C_3 
REMARK    2  A    between atoms: C_3  and  O_6 
REMARK    3  A    between atoms: C_3  and  C_4 
REMARK    4  A    between atoms: C_7  and  O_6 
REMARK    5  A    between atoms: C_9  and  C_10 
REMARK    6  A    between atoms: N_15  and  C_14 
REMARK    7  A    between atoms: N_20  and  C_19 
REMARK       I    between atoms: C_22  and  N_20 
ROOT
ATOM      1  C   LIG d   1      -5.504  92.881 117.859  0.00  0.00     0.161 C 
ATOM      2  C   LIG d   1      -6.204  91.818 117.266  0.00  0.00     0.016 C 
ATOM      3  C   LIG d   1      -5.656  90.526 117.092  0.00  0.00     0.038 C 
ATOM      4  C   LIG d   1      -4.416  90.167 117.641  0.00  0.00     0.028 C 
ATOM      5  C   LIG d   1      -3.462  91.345 117.805  0.00  0.00    -0.047 C 
ATOM      6  C   LIG d   1      -4.191  92.479 118.563  0.00  0.00     0.091 C 
ENDROOT
BRANCH   1   7
ATOM      7  O   LIG d   1      -6.367  93.586 118.773  0.00  0.00    -0.368 OA
BRANCH   7   8
ATOM      8  C   LIG d   1      -6.613  94.981 118.471  0.00  0.00     0.119 C 
BRANCH   8   9
ATOM      9  C   LIG d   1      -6.154  95.806 119.689  0.00  0.00     0.028 C 
ATOM     10  C   LIG d   1      -5.164  96.918 119.306  0.00  0.00     0.006 C 
ENDBRANCH   8   9
BRANCH   8  11
ATOM     11  C   LIG d   1      -8.111  95.266 118.330  0.00  0.00     0.028 C 
ATOM     12  C   LIG d   1      -8.912  94.874 119.582  0.00  0.00     0.006 C 
ENDBRANCH   8  11
ENDBRANCH   7   8
ENDBRANCH   1   7
BRANCH   6  13
ATOM     13  N   LIG d   1      -3.357  93.702 118.693  0.00  0.00    -0.311 N 
ATOM     14  C   LIG d   1      -2.600  93.963 119.757  0.00  0.00     0.210 C 
ATOM     15  C   LIG d   1      -1.835  95.289 119.697  0.00  0.00     0.109 C 
ATOM     16  O   LIG d   1      -2.465  93.208 120.732  0.00  0.00    -0.276 OA
ATOM     17  H   LIG d   1      -3.383  94.354 117.934  0.00  0.00     0.149 HD
ENDBRANCH   6  13
BRANCH   5  18
ATOM     18  N   LIG d   1      -2.265  90.854 118.513  0.00  0.00     0.381 N 
ATOM     19  H   LIG d   1      -1.459  91.365 118.210  0.00  0.00    -0.090 HD
ATOM     20  H   LIG d   1      -2.128  89.885 118.285  0.00  0.00    -0.090 HD
ATOM     21  H   LIG d   1      -2.383  90.959 119.496  0.00  0.00    -0.090 HD
ENDBRANCH   5  18
BRANCH   3  22
ATOM     22  C   LIG d   1      -6.335  89.589 116.328  0.00  0.00     0.382 C 
ATOM     23  O   LIG d   1      -5.838  89.180 115.251  0.00  0.00    -0.241 OA
ATOM     24  O   LIG d   1      -7.457  89.180 116.680  0.00  0.00    -0.241 OA
ENDBRANCH   3  22
TORSDOF 7
ENDMDL
MODEL 5
REMARK VINA RESULT:      -4.7      2.270      4.382
REMARK  7 active torsions:
REMARK  status: ('A' for Active; 'I' for Inactive)
REMARK    1  A    between atoms: C_2  and  C_3 
REMARK    2  A    between atoms: C_3  and  O_6 
REMARK    3  A    between atoms: C_3  and  C_4 
REMARK    4  A    between atoms: C_7  and  O_6 
REMARK    5  A    between atoms: C_9  and  C_10 
REMARK    6  A    between atoms: N_15  and  C_14 
REMARK    7  A    between atoms: N_20  and  C_19 
REMARK       I    between atoms: C_22  and  N_20 
ROOT
ATOM      1  C   LIG d   1      -3.567  90.944 118.175  0.00  0.00     0.161 C 
ATOM      2  C   LIG d   1      -4.287  90.137 117.278  0.00  0.00     0.016 C 
ATOM      3  C   LIG d   1      -5.461  90.565 116.617  0.00  0.00     0.038 C 
ATOM      4  C   LIG d   1      -5.915  91.890 116.694  0.00  0.00     0.028 C 
ATOM      5  C   LIG d   1      -5.507  92.596 117.983  0.00  0.00    -0.047 C 
ATOM      6  C   LIG d   1      -3.984  92.430 118.186  0.00  0.00     0.091 C 
ENDROOT
BRANCH   1   7
ATOM      7  O   LIG d   1      -2.154  90.822 117.917  0.00  0.00    -0.368 OA
BRANCH   7   8
ATOM      8  C   LIG d   1      -1.413  89.968 118.823  0.00  0.00     0.119 C 
BRANCH   8   9
ATOM      9  C   LIG d   1      -2.401  89.452 119.887  0.00  0.00     0.028 C 
ATOM     10  C   LIG d   1      -2.568  87.924 119.841  0.00  0.00     0.006 C 
ENDBRANCH   8   9
BRANCH   8  11
ATOM     11  C   LIG d   1      -0.359  90.762 119.600  0.00  0.00     0.028 C 
ATOM     12  C   LIG d   1      -0.714  90.928 121.086  0.00  0.00     0.006 C 
ENDBRANCH   8  11
ENDBRANCH   7   8
ENDBRANCH   1   7
BRANCH   6  13
ATOM     13  N   LIG d   1      -3.516  93.019 119.468  0.00  0.00    -0.311 N 
ATOM     14  C   LIG d   1      -2.511  93.889 119.551  0.00  0.00     0.210 C 
ATOM     15  C   LIG d   1      -2.176  94.357 120.971  0.00  0.00     0.109 C 
ATOM     16  O   LIG d   1      -1.885  94.342 118.580  0.00  0.00    -0.276 OA
ATOM     17  H   LIG d   1      -3.988  92.730 120.302  0.00  0.00     0.149 HD
ENDBRANCH   6  13
BRANCH   5  18
ATOM     18  N   LIG d   1      -5.925  94.006 117.870  0.00  0.00     0.381 N 
ATOM     19  H   LIG d   1      -5.279  94.591 118.362  0.00  0.00    -0.090 HD
ATOM     20  H   LIG d   1      -6.831  94.112 118.293  0.00  0.00    -0.090 HD
ATOM     21  H   LIG d   1      -5.965  94.274 116.912  0.00  0.00    -0.090 HD
ENDBRANCH   5  18
BRANCH   3  22
ATOM     22  C   LIG d   1      -6.218  89.651 115.900  0.00  0.00     0.382 C 
ATOM     23  O   LIG d   1      -7.213  89.104 116.435  0.00  0.00    -0.241 OA
ATOM     24  O   LIG d   1      -5.892  89.332 114.741  0.00  0.00    -0.241 OA
ENDBRANCH   3  22
TORSDOF 7
ENDMDL
MODEL 6
REMARK VINA RESULT:      -4.7      2.752      6.501
REMARK  7 active torsions:
REMARK  status: ('A' for Active; 'I' for Inactive)
REMARK    1  A    between atoms: C_2  and  C_3 
REMARK    2  A    between atoms: C_3  and  O_6 
REMARK    3  A    between atoms: C_3  and  C_4 
REMARK    4  A    between atoms: C_7  and  O_6 
REMARK    5  A    between atoms: C_9  and  C_10 
REMARK    6  A    between atoms: N_15  and  C_14 
REMARK    7  A    between atoms: N_20  and  C_19 
REMARK       I    between atoms: C_22  and  N_20 
ROOT
ATOM      1  C   LIG d   1      -3.402  90.397 117.627  0.00  0.00     0.161 C 
ATOM      2  C   LIG d   1      -2.641  90.911 118.690  0.00  0.00     0.016 C 
ATOM      3  C   LIG d   1      -3.155  91.812 119.650  0.00  0.00     0.038 C 
ATOM      4  C   LIG d   1      -4.516  92.147 119.700  0.00  0.00     0.028 C 
ATOM      5  C   LIG d   1      -5.213  92.049 118.347  0.00  0.00    -0.047 C 
ATOM      6  C   LIG d   1      -4.918  90.663 117.729  0.00  0.00     0.091 C 
ENDROOT
BRANCH   1   7
ATOM      7  O   LIG d   1      -3.150  88.985 117.482  0.00  0.00    -0.368 OA
BRANCH   7   8
ATOM      8  C   LIG d   1      -2.001  88.467 118.197  0.00  0.00     0.119 C 
BRANCH   8   9
ATOM      9  C   LIG d   1      -1.059  87.829 117.157  0.00  0.00     0.028 C 
ATOM     10  C   LIG d   1       0.425  88.009 117.521  0.00  0.00     0.006 C 
ENDBRANCH   8   9
BRANCH   8  11
ATOM     11  C   LIG d   1      -2.398  87.326 119.138  0.00  0.00     0.028 C 
ATOM     12  C   LIG d   1      -2.639  87.800 120.580  0.00  0.00     0.006 C 
ENDBRANCH   8  11
ENDBRANCH   7   8
ENDBRANCH   1   7
BRANCH   6  13
ATOM     13  N   LIG d   1      -5.494  90.516 116.367  0.00  0.00    -0.311 N 
ATOM     14  C   LIG d   1      -6.689  89.978 116.130  0.00  0.00     0.210 C 
ATOM     15  C   LIG d   1      -7.083  89.903 114.651  0.00  0.00     0.109 C 
ATOM     16  O   LIG d   1      -7.474  89.585 117.006  0.00  0.00    -0.276 OA
ATOM     17  H   LIG d   1      -4.937  90.838 115.599  0.00  0.00     0.149 HD
ENDBRANCH   6  13
BRANCH   5  18
ATOM     18  N   LIG d   1      -6.652  92.289 118.568  0.00  0.00     0.381 N 
ATOM     19  H   LIG d   1      -6.823  92.446 119.541  0.00  0.00    -0.090 HD
ATOM     20  H   LIG d   1      -7.165  91.473 118.285  0.00  0.00    -0.090 HD
ATOM     21  H   LIG d   1      -6.951  93.079 118.040  0.00  0.00    -0.090 HD
ENDBRANCH   5  18
BRANCH   3  22
ATOM     22  C   LIG d   1      -2.294  92.421 120.551  0.00  0.00     0.382 C 
ATOM     23  O   LIG d   1      -2.652  93.461 121.155  0.00  0.00    -0.241 OA
ATOM     24  O   LIG d   1      -1.148  91.970 120.733  0.00  0.00    -0.241 OA
ENDBRANCH   3  22
TORSDOF 7
ENDMDL
MODEL 7
REMARK VINA RESULT:      -4.7      1.976      4.770
REMARK  7 active torsions:
REMARK  status: ('A' for Active; 'I' for Inactive)
REMARK    1  A    between atoms: C_2  and  C_3 
REMARK    2  A    between atoms: C_3  and  O_6 
REMARK    3  A    between atoms: C_3  and  C_4 
REMARK    4  A    between atoms: C_7  and  O_6 
REMARK    5  A    between atoms: C_9  and  C_10 
REMARK    6  A    between atoms: N_15  and  C_14 
REMARK    7  A    between atoms: N_20  and  C_19 
REMARK       I    between atoms: C_22  and  N_20 
ROOT
ATOM      1  C   LIG d   1      -6.027  92.487 118.627  0.00  0.00     0.161 C 
ATOM      2  C   LIG d   1      -5.082  93.014 119.523  0.00  0.00     0.016 C 
ATOM      3  C   LIG d   1      -3.708  92.683 119.489  0.00  0.00     0.038 C 
ATOM      4  C   LIG d   1      -3.156  91.914 118.453  0.00  0.00     0.028 C 
ATOM      5  C   LIG d   1      -4.152  90.951 117.817  0.00  0.00    -0.047 C 
ATOM      6  C   LIG d   1      -5.425  91.734 117.422  0.00  0.00     0.091 C 
ENDROOT
BRANCH   1   7
ATOM      7  O   LIG d   1      -6.908  93.534 118.174  0.00  0.00    -0.368 OA
BRANCH   7   8
ATOM      8  C   LIG d   1      -7.151  94.612 119.111  0.00  0.00     0.119 C 
BRANCH   8   9
ATOM      9  C   LIG d   1      -8.676  94.822 119.190  0.00  0.00     0.028 C 
ATOM     10  C   LIG d   1      -9.331  93.956 120.280  0.00  0.00     0.006 C 
ENDBRANCH   8   9
BRANCH   8  11
ATOM     11  C   LIG d   1      -6.586  95.938 118.594  0.00  0.00     0.028 C 
ATOM     12  C   LIG d   1      -5.758  96.686 119.651  0.00  0.00     0.006 C 
ENDBRANCH   8  11
ENDBRANCH   7   8
ENDBRANCH   1   7
BRANCH   6  13
ATOM     13  N   LIG d   1      -6.485  90.851 116.869  0.00  0.00    -0.311 N 
ATOM     14  C   LIG d   1      -6.690  90.681 115.564  0.00  0.00     0.210 C 
ATOM     15  C   LIG d   1      -7.848  89.743 115.208  0.00  0.00     0.109 C 
ATOM     16  O   LIG d   1      -6.003  91.192 114.667  0.00  0.00    -0.276 OA
ATOM     17  H   LIG d   1      -7.069  90.372 117.526  0.00  0.00     0.149 HD
ENDBRANCH   6  13
BRANCH   5  18
ATOM     18  N   LIG d   1      -3.484  90.315 116.666  0.00  0.00     0.381 N 
ATOM     19  H   LIG d   1      -3.669  90.839 115.834  0.00  0.00    -0.090 HD
ATOM     20  H   LIG d   1      -3.857  89.389 116.545  0.00  0.00    -0.090 HD
ATOM     21  H   LIG d   1      -2.502  90.267 116.825  0.00  0.00    -0.090 HD
ENDBRANCH   5  18
BRANCH   3  22
ATOM     22  C   LIG d   1      -2.877  93.091 120.521  0.00  0.00     0.382 C 
ATOM     23  O   LIG d   1      -2.620  92.306 121.466  0.00  0.00    -0.241 OA
ATOM     24  O   LIG d   1      -2.417  94.248 120.542  0.00  0.00    -0.241 OA
ENDBRANCH   3  22
TORSDOF 7
ENDMDL
MODEL 8
REMARK VINA RESULT:      -4.6      2.010      2.395
REMARK  7 active torsions:
REMARK  status: ('A' for Active; 'I' for Inactive)
REMARK    1  A    between atoms: C_2  and  C_3 
REMARK    2  A    between atoms: C_3  and  O_6 
REMARK    3  A    between atoms: C_3  and  C_4 
REMARK    4  A    between atoms: C_7  and  O_6 
REMARK    5  A    between atoms: C_9  and  C_10 
REMARK    6  A    between atoms: N_15  and  C_14 
REMARK    7  A    between atoms: N_20  and  C_19 
REMARK       I    between atoms: C_22  and  N_20 
ROOT
ATOM      1  C   LIG d   1      -4.856  91.713 118.514  0.00  0.00     0.161 C 
ATOM      2  C   LIG d   1      -5.675  91.906 117.389  0.00  0.00     0.016 C 
ATOM      3  C   LIG d   1      -5.661  91.054 116.261  0.00  0.00     0.038 C 
ATOM      4  C   LIG d   1      -4.930  89.857 116.245  0.00  0.00     0.028 C 
ATOM      5  C   LIG d   1      -3.704  89.883 117.151  0.00  0.00    -0.047 C 
ATOM      6  C   LIG d   1      -4.133  90.351 118.561  0.00  0.00     0.091 C 
ENDROOT
BRANCH   1   7
ATOM      7  O   LIG d   1      -5.622  91.916 119.718  0.00  0.00    -0.368 OA
BRANCH   7   8
ATOM      8  C   LIG d   1      -5.400  93.168 120.411  0.00  0.00     0.119 C 
BRANCH   8   9
ATOM      9  C   LIG d   1      -6.591  94.092 120.091  0.00  0.00     0.028 C 
ATOM     10  C   LIG d   1      -6.202  95.246 119.151  0.00  0.00     0.006 C 
ENDBRANCH   8   9
BRANCH   8  11
ATOM     11  C   LIG d   1      -4.166  93.894 119.869  0.00  0.00     0.028 C 
ATOM     12  C   LIG d   1      -2.993  93.898 120.862  0.00  0.00     0.006 C 
ENDBRANCH   8  11
ENDBRANCH   7   8
ENDBRANCH   1   7
BRANCH   6  13
ATOM     13  N   LIG d   1      -2.979  90.486 119.489  0.00  0.00    -0.311 N 
ATOM     14  C   LIG d   1      -2.535  89.491 120.255  0.00  0.00     0.210 C 
ATOM     15  C   LIG d   1      -1.346  89.849 121.153  0.00  0.00     0.109 C 
ATOM     16  O   LIG d   1      -2.991  88.338 120.253  0.00  0.00    -0.276 OA
ATOM     17  H   LIG d   1      -2.530  91.379 119.530  0.00  0.00     0.149 HD
ENDBRANCH   6  13
BRANCH   5  18
ATOM     18  N   LIG d   1      -3.115  88.531 117.145  0.00  0.00     0.381 N 
ATOM     19  H   LIG d   1      -3.728  87.897 116.672  0.00  0.00    -0.090 HD
ATOM     20  H   LIG d   1      -3.009  88.218 118.093  0.00  0.00    -0.090 HD
ATOM     21  H   LIG d   1      -2.229  88.547 116.691  0.00  0.00    -0.090 HD
ENDBRANCH   5  18
BRANCH   3  22
ATOM     22  C   LIG d   1      -6.354  91.418 115.117  0.00  0.00     0.382 C 
ATOM     23  O   LIG d   1      -6.291  92.597 114.694  0.00  0.00    -0.241 OA
ATOM     24  O   LIG d   1      -7.078  90.593 114.527  0.00  0.00    -0.241 OA
ENDBRANCH   3  22
TORSDOF 7
ENDMDL
MODEL 9
REMARK VINA RESULT:      -4.6      3.623      7.730
REMARK  7 active torsions:
REMARK  status: ('A' for Active; 'I' for Inactive)
REMARK    1  A    between atoms: C_2  and  C_3 
REMARK    2  A    between atoms: C_3  and  O_6 
REMARK    3  A    between atoms: C_3  and  C_4 
REMARK    4  A    between atoms: C_7  and  O_6 
REMARK    5  A    between atoms: C_9  and  C_10 
REMARK    6  A    between atoms: N_15  and  C_14 
REMARK    7  A    between atoms: N_20  and  C_19 
REMARK       I    between atoms: C_22  and  N_20 
ROOT
ATOM      1  C   LIG d   1       0.175  90.381 116.857  0.00  0.00     0.161 C 
ATOM      2  C   LIG d   1       1.563  90.167 116.880  0.00  0.00     0.016 C 
ATOM      3  C   LIG d   1       2.431  90.790 117.806  0.00  0.00     0.038 C 
ATOM      4  C   LIG d   1       1.947  91.559 118.875  0.00  0.00     0.028 C 
ATOM      5  C   LIG d   1       0.598  92.211 118.590  0.00  0.00    -0.047 C 
ATOM      6  C   LIG d   1      -0.385  91.130 118.085  0.00  0.00     0.091 C 
ENDROOT
BRANCH   1   7
ATOM      7  O   LIG d   1      -0.511  89.126 116.680  0.00  0.00    -0.368 OA
BRANCH   7   8
ATOM      8  C   LIG d   1      -0.784  88.373 117.888  0.00  0.00     0.119 C 
BRANCH   8   9
ATOM      9  C   LIG d   1      -0.014  87.042 117.788  0.00  0.00     0.028 C 
ATOM     10  C   LIG d   1       0.358  86.686 116.339  0.00  0.00     0.006 C 
ENDBRANCH   8   9
BRANCH   8  11
ATOM     11  C   LIG d   1      -2.262  87.981 117.978  0.00  0.00     0.028 C 
ATOM     12  C   LIG d   1      -2.709  87.668 119.414  0.00  0.00     0.006 C 
ENDBRANCH   8  11
ENDBRANCH   7   8
ENDBRANCH   1   7
BRANCH   6  13
ATOM     13  N   LIG d   1      -1.704  91.697 117.703  0.00  0.00    -0.311 N 
ATOM     14  C   LIG d   1      -2.762  91.701 118.512  0.00  0.00     0.210 C 
ATOM     15  C   LIG d   1      -4.031  92.317 117.913  0.00  0.00     0.109 C 
ATOM     16  O   LIG d   1      -2.762  91.283 119.679  0.00  0.00    -0.276 OA
ATOM     17  H   LIG d   1      -1.785  92.086 116.784  0.00  0.00     0.149 HD
ENDBRANCH   6  13
BRANCH   5  18
ATOM     18  N   LIG d   1       0.148  92.866 119.833  0.00  0.00     0.381 N 
ATOM     19  H   LIG d   1       0.929  93.011 120.441  0.00  0.00    -0.090 HD
ATOM     20  H   LIG d   1      -0.507  92.263 120.299  0.00  0.00    -0.090 HD
ATOM     21  H   LIG d   1      -0.284  93.738 119.621  0.00  0.00    -0.090 HD
ENDBRANCH   5  18
BRANCH   3  22
ATOM     22  C   LIG d   1       3.804  90.679 117.643  0.00  0.00     0.382 C 
ATOM     23  O   LIG d   1       4.503  90.166 118.549  0.00  0.00    -0.241 OA
ATOM     24  O   LIG d   1       4.357  91.126 116.621  0.00  0.00    -0.241 OA
ENDBRANCH   3  22
TORSDOF 7
ENDMDL
