MODEL 1
REMARK VINA RESULT:      -6.0      0.000      0.000
REMARK  7 active torsions:
REMARK  status: ('A' for Active; 'I' for Inactive)
REMARK    1  A    between atoms: C_2  and  C_3 
REMARK    2  A    between atoms: C_3  and  O_6 
REMARK    3  A    between atoms: C_3  and  C_4 
REMARK    4  A    between atoms: C_7  and  O_6 
REMARK    5  A    between atoms: C_9  and  C_10 
REMARK    6  A    between atoms: N_15  and  C_14 
REMARK    7  A    between atoms: N_20  and  C_19 
REMARK       I    between atoms: C_22  and  N_20 
ROOT
ATOM      1  C   LIG d   1      -6.182  93.278 117.526  0.00  0.00     0.161 C 
ATOM      2  C   LIG d   1      -7.509  93.090 117.106  0.00  0.00     0.016 C 
ATOM      3  C   LIG d   1      -7.948  91.943 116.405  0.00  0.00     0.038 C 
ATOM      4  C   LIG d   1      -7.116  90.831 116.208  0.00  0.00     0.028 C 
ATOM      5  C   LIG d   1      -5.633  91.183 116.170  0.00  0.00    -0.047 C 
ATOM      6  C   LIG d   1      -5.286  92.027 117.418  0.00  0.00     0.091 C 
ENDROOT
BRANCH   1   7
ATOM      7  O   LIG d   1      -6.164  93.793 118.872  0.00  0.00    -0.368 OA
BRANCH   7   8
ATOM      8  C   LIG d   1      -7.453  94.119 119.447  0.00  0.00     0.119 C 
BRANCH   8   9
ATOM      9  C   LIG d   1      -7.404  95.595 119.885  0.00  0.00     0.028 C 
ATOM     10  C   LIG d   1      -7.236  96.555 118.696  0.00  0.00     0.006 C 
ENDBRANCH   8   9
BRANCH   8  11
ATOM     11  C   LIG d   1      -7.708  93.323 120.730  0.00  0.00     0.028 C 
ATOM     12  C   LIG d   1      -6.533  92.407 121.107  0.00  0.00     0.006 C 
ENDBRANCH   8  11
ENDBRANCH   7   8
ENDBRANCH   1   7
BRANCH   6  13
ATOM     13  N   LIG d   1      -3.872  92.485 117.416  0.00  0.00    -0.311 N 
ATOM     14  C   LIG d   1      -2.998  92.168 118.370  0.00  0.00     0.210 C 
ATOM     15  C   LIG d   1      -1.597  92.761 118.186  0.00  0.00     0.109 C 
ATOM     16  O   LIG d   1      -3.240  91.426 119.333  0.00  0.00    -0.276 OA
ATOM     17  H   LIG d   1      -3.581  93.066 116.654  0.00  0.00     0.149 HD
ENDBRANCH   6  13
BRANCH   5  18
ATOM     18  N   LIG d   1      -4.877  89.918 116.098  0.00  0.00     0.381 N 
ATOM     19  H   LIG d   1      -5.053  89.468 115.223  0.00  0.00    -0.090 HD
ATOM     20  H   LIG d   1      -5.189  89.310 116.835  0.00  0.00    -0.090 HD
ATOM     21  H   LIG d   1      -3.902  90.098 116.197  0.00  0.00    -0.090 HD
ENDBRANCH   5  18
BRANCH   3  22
ATOM     22  C   LIG d   1      -9.222  91.918 115.858  0.00  0.00     0.382 C 
ATOM     23  O   LIG d   1      -9.616  90.904 115.232  0.00  0.00    -0.241 OA
ATOM     24  O   LIG d   1      -9.966  92.913 115.944  0.00  0.00    -0.241 OA
ENDBRANCH   3  22
TORSDOF 7
ENDMDL
MODEL 2
REMARK VINA RESULT:      -5.9      1.150      1.927
REMARK  7 active torsions:
REMARK  status: ('A' for Active; 'I' for Inactive)
REMARK    1  A    between atoms: C_2  and  C_3 
REMARK    2  A    between atoms: C_3  and  O_6 
REMARK    3  A    between atoms: C_3  and  C_4 
REMARK    4  A    between atoms: C_7  and  O_6 
REMARK    5  A    between atoms: C_9  and  C_10 
REMARK    6  A    between atoms: N_15  and  C_14 
REMARK    7  A    between atoms: N_20  and  C_19 
REMARK       I    between atoms: C_22  and  N_20 
ROOT
ATOM      1  C   LIG d   1      -6.052  92.943 117.585  0.00  0.00     0.161 C 
ATOM      2  C   LIG d   1      -7.383  92.828 117.150  0.00  0.00     0.016 C 
ATOM      3  C   LIG d   1      -7.847  91.766 116.339  0.00  0.00     0.038 C 
ATOM      4  C   LIG d   1      -7.040  90.661 116.031  0.00  0.00     0.028 C 
ATOM      5  C   LIG d   1      -5.549  90.982 116.026  0.00  0.00    -0.047 C 
ATOM      6  C   LIG d   1      -5.184  91.689 117.351  0.00  0.00     0.091 C 
ENDROOT
BRANCH   1   7
ATOM      7  O   LIG d   1      -6.023  93.320 118.976  0.00  0.00    -0.368 OA
BRANCH   7   8
ATOM      8  C   LIG d   1      -5.621  94.683 119.258  0.00  0.00     0.119 C 
BRANCH   8   9
ATOM      9  C   LIG d   1      -4.724  94.650 120.511  0.00  0.00     0.028 C 
ATOM     10  C   LIG d   1      -3.299  95.153 120.225  0.00  0.00     0.006 C 
ENDBRANCH   8   9
BRANCH   8  11
ATOM     11  C   LIG d   1      -6.823  95.551 119.643  0.00  0.00     0.028 C 
ATOM     12  C   LIG d   1      -7.101  96.668 118.626  0.00  0.00     0.006 C 
ENDBRANCH   8  11
ENDBRANCH   7   8
ENDBRANCH   1   7
BRANCH   6  13
ATOM     13  N   LIG d   1      -3.760  92.113 117.393  0.00  0.00    -0.311 N 
ATOM     14  C   LIG d   1      -2.952  91.868 118.423  0.00  0.00     0.210 C 
ATOM     15  C   LIG d   1      -1.528  92.410 118.271  0.00  0.00     0.109 C 
ATOM     16  O   LIG d   1      -3.271  91.225 119.435  0.00  0.00    -0.276 OA
ATOM     17  H   LIG d   1      -3.410  92.614 116.600  0.00  0.00     0.149 HD
ENDBRANCH   6  13
BRANCH   5  18
ATOM     18  N   LIG d   1      -4.821  89.714 115.827  0.00  0.00     0.381 N 
ATOM     19  H   LIG d   1      -4.924  89.135 116.636  0.00  0.00    -0.090 HD
ATOM     20  H   LIG d   1      -3.845  89.916 115.705  0.00  0.00    -0.090 HD
ATOM     21  H   LIG d   1      -5.173  89.242 115.024  0.00  0.00    -0.090 HD
ENDBRANCH   5  18
BRANCH   3  22
ATOM     22  C   LIG d   1      -9.121  91.825 115.794  0.00  0.00     0.382 C 
ATOM     23  O   LIG d   1      -9.816  92.860 115.934  0.00  0.00    -0.241 OA
ATOM     24  O   LIG d   1      -9.600  90.839 115.202  0.00  0.00    -0.241 OA
ENDBRANCH   3  22
TORSDOF 7
ENDMDL
MODEL 3
REMARK VINA RESULT:      -5.5      2.436      4.327
REMARK  7 active torsions:
REMARK  status: ('A' for Active; 'I' for Inactive)
REMARK    1  A    between atoms: C_2  and  C_3 
REMARK    2  A    between atoms: C_3  and  O_6 
REMARK    3  A    between atoms: C_3  and  C_4 
REMARK    4  A    between atoms: C_7  and  O_6 
REMARK    5  A    between atoms: C_9  and  C_10 
REMARK    6  A    between atoms: N_15  and  C_14 
REMARK    7  A    between atoms: N_20  and  C_19 
REMARK       I    between atoms: C_22  and  N_20 
ROOT
ATOM      1  C   LIG d   1      -6.069  92.410 118.102  0.00  0.00     0.161 C 
ATOM      2  C   LIG d   1      -5.641  91.373 117.256  0.00  0.00     0.016 C 
ATOM      3  C   LIG d   1      -6.377  90.931 116.133  0.00  0.00     0.038 C 
ATOM      4  C   LIG d   1      -7.526  91.602 115.689  0.00  0.00     0.028 C 
ATOM      5  C   LIG d   1      -8.267  92.335 116.802  0.00  0.00    -0.047 C 
ATOM      6  C   LIG d   1      -7.265  93.227 117.569  0.00  0.00     0.091 C 
ENDROOT
BRANCH   1   7
ATOM      7  O   LIG d   1      -4.962  93.282 118.405  0.00  0.00    -0.368 OA
BRANCH   7   8
ATOM      8  C   LIG d   1      -4.036  92.809 119.414  0.00  0.00     0.119 C 
BRANCH   8   9
ATOM      9  C   LIG d   1      -4.690  93.044 120.789  0.00  0.00     0.028 C 
ATOM     10  C   LIG d   1      -4.825  94.538 121.127  0.00  0.00     0.006 C 
ENDBRANCH   8   9
BRANCH   8  11
ATOM     11  C   LIG d   1      -2.752  93.644 119.427  0.00  0.00     0.028 C 
ATOM     12  C   LIG d   1      -2.002  93.605 118.086  0.00  0.00     0.006 C 
ENDBRANCH   8  11
ENDBRANCH   7   8
ENDBRANCH   1   7
BRANCH   6  13
ATOM     13  N   LIG d   1      -7.890  93.916 118.728  0.00  0.00    -0.311 N 
ATOM     14  C   LIG d   1      -7.733  95.214 118.981  0.00  0.00     0.210 C 
ATOM     15  C   LIG d   1      -8.449  95.719 120.238  0.00  0.00     0.109 C 
ATOM     16  O   LIG d   1      -7.096  96.002 118.266  0.00  0.00    -0.276 OA
ATOM     17  H   LIG d   1      -8.450  93.358 119.342  0.00  0.00     0.149 HD
ENDBRANCH   6  13
BRANCH   5  18
ATOM     18  N   LIG d   1      -9.363  93.102 116.178  0.00  0.00     0.381 N 
ATOM     19  H   LIG d   1      -9.305  94.061 116.454  0.00  0.00    -0.090 HD
ATOM     20  H   LIG d   1     -10.241  92.733 116.499  0.00  0.00    -0.090 HD
ATOM     21  H   LIG d   1      -9.307  93.030 115.186  0.00  0.00    -0.090 HD
ENDBRANCH   5  18
BRANCH   3  22
ATOM     22  C   LIG d   1      -5.986  89.781 115.464  0.00  0.00     0.382 C 
ATOM     23  O   LIG d   1      -6.597  89.418 114.430  0.00  0.00    -0.241 OA
ATOM     24  O   LIG d   1      -5.059  89.077 115.907  0.00  0.00    -0.241 OA
ENDBRANCH   3  22
TORSDOF 7
ENDMDL
MODEL 4
REMARK VINA RESULT:      -5.5      1.866      2.607
REMARK  7 active torsions:
REMARK  status: ('A' for Active; 'I' for Inactive)
REMARK    1  A    between atoms: C_2  and  C_3 
REMARK    2  A    between atoms: C_3  and  O_6 
REMARK    3  A    between atoms: C_3  and  C_4 
REMARK    4  A    between atoms: C_7  and  O_6 
REMARK    5  A    between atoms: C_9  and  C_10 
REMARK    6  A    between atoms: N_15  and  C_14 
REMARK    7  A    between atoms: N_20  and  C_19 
REMARK       I    between atoms: C_22  and  N_20 
ROOT
ATOM      1  C   LIG d   1      -5.458  91.831 118.055  0.00  0.00     0.161 C 
ATOM      2  C   LIG d   1      -6.782  92.212 117.782  0.00  0.00     0.016 C 
ATOM      3  C   LIG d   1      -7.526  91.711 116.690  0.00  0.00     0.038 C 
ATOM      4  C   LIG d   1      -7.044  90.673 115.878  0.00  0.00     0.028 C 
ATOM      5  C   LIG d   1      -5.522  90.615 115.809  0.00  0.00    -0.047 C 
ATOM      6  C   LIG d   1      -4.954  90.617 117.247  0.00  0.00     0.091 C 
ENDROOT
BRANCH   1   7
ATOM      7  O   LIG d   1      -5.300  91.593 119.468  0.00  0.00    -0.368 OA
BRANCH   7   8
ATOM      8  C   LIG d   1      -4.494  92.556 120.191  0.00  0.00     0.119 C 
BRANCH   8   9
ATOM      9  C   LIG d   1      -4.166  93.707 119.220  0.00  0.00     0.028 C 
ATOM     10  C   LIG d   1      -4.774  95.046 119.669  0.00  0.00     0.006 C 
ENDBRANCH   8   9
BRANCH   8  11
ATOM     11  C   LIG d   1      -3.140  91.963 120.590  0.00  0.00     0.028 C 
ATOM     12  C   LIG d   1      -1.953  92.714 119.966  0.00  0.00     0.006 C 
ENDBRANCH   8  11
ENDBRANCH   7   8
ENDBRANCH   1   7
BRANCH   6  13
ATOM     13  N   LIG d   1      -3.468  90.647 117.270  0.00  0.00    -0.311 N 
ATOM     14  C   LIG d   1      -2.721  89.637 117.713  0.00  0.00     0.210 C 
ATOM     15  C   LIG d   1      -1.210  89.882 117.668  0.00  0.00     0.109 C 
ATOM     16  O   LIG d   1      -3.166  88.550 118.110  0.00  0.00    -0.276 OA
ATOM     17  H   LIG d   1      -3.024  91.480 116.936  0.00  0.00     0.149 HD
ENDBRANCH   6  13
BRANCH   5  18
ATOM     18  N   LIG d   1      -5.156  89.407 115.045  0.00  0.00     0.381 N 
ATOM     19  H   LIG d   1      -5.539  89.461 114.123  0.00  0.00    -0.090 HD
ATOM     20  H   LIG d   1      -5.548  88.602 115.502  0.00  0.00    -0.090 HD
ATOM     21  H   LIG d   1      -4.165  89.321 114.997  0.00  0.00    -0.090 HD
ENDBRANCH   5  18
BRANCH   3  22
ATOM     22  C   LIG d   1      -8.752  92.277 116.375  0.00  0.00     0.382 C 
ATOM     23  O   LIG d   1      -9.191  93.238 117.052  0.00  0.00    -0.241 OA
ATOM     24  O   LIG d   1      -9.445  91.811 115.452  0.00  0.00    -0.241 OA
ENDBRANCH   3  22
TORSDOF 7
ENDMDL
MODEL 5
REMARK VINA RESULT:      -5.4      2.540      4.350
REMARK  7 active torsions:
REMARK  status: ('A' for Active; 'I' for Inactive)
REMARK    1  A    between atoms: C_2  and  C_3 
REMARK    2  A    between atoms: C_3  and  O_6 
REMARK    3  A    between atoms: C_3  and  C_4 
REMARK    4  A    between atoms: C_7  and  O_6 
REMARK    5  A    between atoms: C_9  and  C_10 
REMARK    6  A    between atoms: N_15  and  C_14 
REMARK    7  A    between atoms: N_20  and  C_19 
REMARK       I    between atoms: C_22  and  N_20 
ROOT
ATOM      1  C   LIG d   1      -6.339  92.642 118.293  0.00  0.00     0.161 C 
ATOM      2  C   LIG d   1      -6.059  91.440 117.620  0.00  0.00     0.016 C 
ATOM      3  C   LIG d   1      -6.836  90.951 116.545  0.00  0.00     0.038 C 
ATOM      4  C   LIG d   1      -7.864  91.711 115.967  0.00  0.00     0.028 C 
ATOM      5  C   LIG d   1      -8.503  92.701 116.935  0.00  0.00    -0.047 C 
ATOM      6  C   LIG d   1      -7.389  93.538 117.604  0.00  0.00     0.091 C 
ENDROOT
BRANCH   1   7
ATOM      7  O   LIG d   1      -5.118  93.376 118.509  0.00  0.00    -0.368 OA
BRANCH   7   8
ATOM      8  C   LIG d   1      -4.628  93.411 119.873  0.00  0.00     0.119 C 
BRANCH   8   9
ATOM      9  C   LIG d   1      -3.388  92.500 119.942  0.00  0.00     0.028 C 
ATOM     10  C   LIG d   1      -3.684  91.158 120.633  0.00  0.00     0.006 C 
ENDBRANCH   8   9
BRANCH   8  11
ATOM     11  C   LIG d   1      -5.640  92.795 120.844  0.00  0.00     0.028 C 
ATOM     12  C   LIG d   1      -6.134  93.793 121.903  0.00  0.00     0.006 C 
ENDBRANCH   8  11
ENDBRANCH   7   8
ENDBRANCH   1   7
BRANCH   6  13
ATOM     13  N   LIG d   1      -7.922  94.474 118.628  0.00  0.00    -0.311 N 
ATOM     14  C   LIG d   1      -8.904  94.158 119.471  0.00  0.00     0.210 C 
ATOM     15  C   LIG d   1      -9.316  95.276 120.434  0.00  0.00     0.109 C 
ATOM     16  O   LIG d   1      -9.451  93.047 119.534  0.00  0.00    -0.276 OA
ATOM     17  H   LIG d   1      -7.514  95.388 118.668  0.00  0.00     0.149 HD
ENDBRANCH   6  13
BRANCH   5  18
ATOM     18  N   LIG d   1      -9.460  93.520 116.168  0.00  0.00     0.381 N 
ATOM     19  H   LIG d   1      -9.810  92.994 115.392  0.00  0.00    -0.090 HD
ATOM     20  H   LIG d   1      -8.983  94.328 115.810  0.00  0.00    -0.090 HD
ATOM     21  H   LIG d   1     -10.214  93.802 116.754  0.00  0.00    -0.090 HD
ENDBRANCH   5  18
BRANCH   3  22
ATOM     22  C   LIG d   1      -6.612  89.670 116.063  0.00  0.00     0.382 C 
ATOM     23  O   LIG d   1      -7.583  88.910 115.829  0.00  0.00    -0.241 OA
ATOM     24  O   LIG d   1      -5.451  89.250 115.901  0.00  0.00    -0.241 OA
ENDBRANCH   3  22
TORSDOF 7
ENDMDL
MODEL 6
REMARK VINA RESULT:      -5.3      2.164      4.593
REMARK  7 active torsions:
REMARK  status: ('A' for Active; 'I' for Inactive)
REMARK    1  A    between atoms: C_2  and  C_3 
REMARK    2  A    between atoms: C_3  and  O_6 
REMARK    3  A    between atoms: C_3  and  C_4 
REMARK    4  A    between atoms: C_7  and  O_6 
REMARK    5  A    between atoms: C_9  and  C_10 
REMARK    6  A    between atoms: N_15  and  C_14 
REMARK    7  A    between atoms: N_20  and  C_19 
REMARK       I    between atoms: C_22  and  N_20 
ROOT
ATOM      1  C   LIG d   1      -6.058  92.552 118.215  0.00  0.00     0.161 C 
ATOM      2  C   LIG d   1      -6.584  93.543 119.061  0.00  0.00     0.016 C 
ATOM      3  C   LIG d   1      -7.880  94.087 118.911  0.00  0.00     0.038 C 
ATOM      4  C   LIG d   1      -8.801  93.565 117.990  0.00  0.00     0.028 C 
ATOM      5  C   LIG d   1      -8.142  92.909 116.781  0.00  0.00    -0.047 C 
ATOM      6  C   LIG d   1      -7.087  91.892 117.274  0.00  0.00     0.091 C 
ENDROOT
BRANCH   1   7
ATOM      7  O   LIG d   1      -5.380  91.549 118.998  0.00  0.00    -0.368 OA
BRANCH   7   8
ATOM      8  C   LIG d   1      -3.944  91.698 119.120  0.00  0.00     0.119 C 
BRANCH   8   9
ATOM      9  C   LIG d   1      -3.448  92.441 117.864  0.00  0.00     0.028 C 
ATOM     10  C   LIG d   1      -2.258  93.368 118.163  0.00  0.00     0.006 C 
ENDBRANCH   8   9
BRANCH   8  11
ATOM     11  C   LIG d   1      -3.239  90.339 119.093  0.00  0.00     0.028 C 
ATOM     12  C   LIG d   1      -3.263  89.683 117.703  0.00  0.00     0.006 C 
ENDBRANCH   8  11
ENDBRANCH   7   8
ENDBRANCH   1   7
BRANCH   6  13
ATOM     13  N   LIG d   1      -6.337  91.266 116.154  0.00  0.00    -0.311 N 
ATOM     14  C   LIG d   1      -6.451  89.981 115.824  0.00  0.00     0.210 C 
ATOM     15  C   LIG d   1      -5.573  89.535 114.650  0.00  0.00     0.109 C 
ATOM     16  O   LIG d   1      -7.220  89.175 116.370  0.00  0.00    -0.276 OA
ATOM     17  H   LIG d   1      -5.713  91.855 115.638  0.00  0.00     0.149 HD
ENDBRANCH   6  13
BRANCH   5  18
ATOM     18  N   LIG d   1      -9.210  92.289 115.974  0.00  0.00     0.381 N 
ATOM     19  H   LIG d   1      -8.822  91.575 115.390  0.00  0.00    -0.090 HD
ATOM     20  H   LIG d   1      -9.621  92.991 115.384  0.00  0.00    -0.090 HD
ATOM     21  H   LIG d   1      -9.905  91.898 116.571  0.00  0.00    -0.090 HD
ENDBRANCH   5  18
BRANCH   3  22
ATOM     22  C   LIG d   1      -8.253  95.191 119.661  0.00  0.00     0.382 C 
ATOM     23  O   LIG d   1      -7.485  96.180 119.744  0.00  0.00    -0.241 OA
ATOM     24  O   LIG d   1      -9.327  95.194 120.291  0.00  0.00    -0.241 OA
ENDBRANCH   3  22
TORSDOF 7
ENDMDL
MODEL 7
REMARK VINA RESULT:      -5.2      2.429      5.546
REMARK  7 active torsions:
REMARK  status: ('A' for Active; 'I' for Inactive)
REMARK    1  A    between atoms: C_2  and  C_3 
REMARK    2  A    between atoms: C_3  and  O_6 
REMARK    3  A    between atoms: C_3  and  C_4 
REMARK    4  A    between atoms: C_7  and  O_6 
REMARK    5  A    between atoms: C_9  and  C_10 
REMARK    6  A    between atoms: N_15  and  C_14 
REMARK    7  A    between atoms: N_20  and  C_19 
REMARK       I    between atoms: C_22  and  N_20 
ROOT
ATOM      1  C   LIG d   1      -5.891  92.994 117.513  0.00  0.00     0.161 C 
ATOM      2  C   LIG d   1      -4.858  92.063 117.315  0.00  0.00     0.016 C 
ATOM      3  C   LIG d   1      -4.406  91.176 118.320  0.00  0.00     0.038 C 
ATOM      4  C   LIG d   1      -5.064  91.055 119.553  0.00  0.00     0.028 C 
ATOM      5  C   LIG d   1      -5.792  92.326 119.978  0.00  0.00    -0.047 C 
ATOM      6  C   LIG d   1      -6.695  92.800 118.816  0.00  0.00     0.091 C 
ENDROOT
BRANCH   1   7
ATOM      7  O   LIG d   1      -6.775  92.992 116.375  0.00  0.00    -0.368 OA
BRANCH   7   8
ATOM      8  C   LIG d   1      -7.281  91.699 115.962  0.00  0.00     0.119 C 
BRANCH   8   9
ATOM      9  C   LIG d   1      -6.622  91.352 114.613  0.00  0.00     0.028 C 
ATOM     10  C   LIG d   1      -6.059  89.921 114.585  0.00  0.00     0.006 C 
ENDBRANCH   8   9
BRANCH   8  11
ATOM     11  C   LIG d   1      -8.785  91.754 115.677  0.00  0.00     0.028 C 
ATOM     12  C   LIG d   1      -9.441  93.046 116.189  0.00  0.00     0.006 C 
ENDBRANCH   8  11
ENDBRANCH   7   8
ENDBRANCH   1   7
BRANCH   6  13
ATOM     13  N   LIG d   1      -7.379  94.085 119.118  0.00  0.00    -0.311 N 
ATOM     14  C   LIG d   1      -8.616  94.159 119.605  0.00  0.00     0.210 C 
ATOM     15  C   LIG d   1      -9.140  95.582 119.825  0.00  0.00     0.109 C 
ATOM     16  O   LIG d   1      -9.318  93.182 119.907  0.00  0.00    -0.276 OA
ATOM     17  H   LIG d   1      -6.870  94.927 118.932  0.00  0.00     0.149 HD
ENDBRANCH   6  13
BRANCH   5  18
ATOM     18  N   LIG d   1      -6.546  92.018 121.208  0.00  0.00     0.381 N 
ATOM     19  H   LIG d   1      -6.026  92.317 122.008  0.00  0.00    -0.090 HD
ATOM     20  H   LIG d   1      -6.675  91.023 121.269  0.00  0.00    -0.090 HD
ATOM     21  H   LIG d   1      -7.431  92.474 121.188  0.00  0.00    -0.090 HD
ENDBRANCH   5  18
BRANCH   3  22
ATOM     22  C   LIG d   1      -3.259  90.426 118.109  0.00  0.00     0.382 C 
ATOM     23  O   LIG d   1      -3.350  89.239 117.713  0.00  0.00    -0.241 OA
ATOM     24  O   LIG d   1      -2.136  90.907 118.352  0.00  0.00    -0.241 OA
ENDBRANCH   3  22
TORSDOF 7
ENDMDL
MODEL 8
REMARK VINA RESULT:      -5.2      2.147      4.314
REMARK  7 active torsions:
REMARK  status: ('A' for Active; 'I' for Inactive)
REMARK    1  A    between atoms: C_2  and  C_3 
REMARK    2  A    between atoms: C_3  and  O_6 
REMARK    3  A    between atoms: C_3  and  C_4 
REMARK    4  A    between atoms: C_7  and  O_6 
REMARK    5  A    between atoms: C_9  and  C_10 
REMARK    6  A    between atoms: N_15  and  C_14 
REMARK    7  A    between atoms: N_20  and  C_19 
REMARK       I    between atoms: C_22  and  N_20 
ROOT
ATOM      1  C   LIG d   1      -5.974  92.609 117.742  0.00  0.00     0.161 C 
ATOM      2  C   LIG d   1      -7.250  93.049 118.130  0.00  0.00     0.016 C 
ATOM      3  C   LIG d   1      -7.483  93.854 119.268  0.00  0.00     0.038 C 
ATOM      4  C   LIG d   1      -6.431  94.403 120.015  0.00  0.00     0.028 C 
ATOM      5  C   LIG d   1      -5.151  93.575 119.959  0.00  0.00    -0.047 C 
ATOM      6  C   LIG d   1      -4.803  93.289 118.481  0.00  0.00     0.091 C 
ENDROOT
BRANCH   1   7
ATOM      7  O   LIG d   1      -5.819  92.755 116.316  0.00  0.00    -0.368 OA
BRANCH   7   8
ATOM      8  C   LIG d   1      -6.086  91.573 115.522  0.00  0.00     0.119 C 
BRANCH   8   9
ATOM      9  C   LIG d   1      -7.568  91.622 115.102  0.00  0.00     0.028 C 
ATOM     10  C   LIG d   1      -8.340  90.362 115.526  0.00  0.00     0.006 C 
ENDBRANCH   8   9
BRANCH   8  11
ATOM     11  C   LIG d   1      -5.943  90.296 116.356  0.00  0.00     0.028 C 
ATOM     12  C   LIG d   1      -4.553  89.654 116.229  0.00  0.00     0.006 C 
ENDBRANCH   8  11
ENDBRANCH   7   8
ENDBRANCH   1   7
BRANCH   6  13
ATOM     13  N   LIG d   1      -3.611  92.413 118.339  0.00  0.00    -0.311 N 
ATOM     14  C   LIG d   1      -2.374  92.879 118.172  0.00  0.00     0.210 C 
ATOM     15  C   LIG d   1      -1.293  91.804 118.026  0.00  0.00     0.109 C 
ATOM     16  O   LIG d   1      -2.066  94.080 118.163  0.00  0.00    -0.276 OA
ATOM     17  H   LIG d   1      -3.766  91.424 118.366  0.00  0.00     0.149 HD
ENDBRANCH   6  13
BRANCH   5  18
ATOM     18  N   LIG d   1      -4.100  94.331 120.666  0.00  0.00     0.381 N 
ATOM     19  H   LIG d   1      -4.481  95.181 121.030  0.00  0.00    -0.090 HD
ATOM     20  H   LIG d   1      -3.373  94.565 120.012  0.00  0.00    -0.090 HD
ATOM     21  H   LIG d   1      -3.725  93.782 121.407  0.00  0.00    -0.090 HD
ENDBRANCH   5  18
BRANCH   3  22
ATOM     22  C   LIG d   1      -8.783  94.085 119.692  0.00  0.00     0.382 C 
ATOM     23  O   LIG d   1      -9.647  93.181 119.587  0.00  0.00    -0.241 OA
ATOM     24  O   LIG d   1      -9.113  95.200 120.139  0.00  0.00    -0.241 OA
ENDBRANCH   3  22
TORSDOF 7
ENDMDL
MODEL 9
REMARK VINA RESULT:      -5.0      2.347      4.597
REMARK  7 active torsions:
REMARK  status: ('A' for Active; 'I' for Inactive)
REMARK    1  A    between atoms: C_2  and  C_3 
REMARK    2  A    between atoms: C_3  and  O_6 
REMARK    3  A    between atoms: C_3  and  C_4 
REMARK    4  A    between atoms: C_7  and  O_6 
REMARK    5  A    between atoms: C_9  and  C_10 
REMARK    6  A    between atoms: N_15  and  C_14 
REMARK    7  A    between atoms: N_20  and  C_19 
REMARK       I    between atoms: C_22  and  N_20 
ROOT
ATOM      1  C   LIG d   1      -5.182  92.344 118.598  0.00  0.00     0.161 C 
ATOM      2  C   LIG d   1      -6.568  92.410 118.377  0.00  0.00     0.016 C 
ATOM      3  C   LIG d   1      -7.357  93.533 118.716  0.00  0.00     0.038 C 
ATOM      4  C   LIG d   1      -6.785  94.734 119.163  0.00  0.00     0.028 C 
ATOM      5  C   LIG d   1      -5.451  94.540 119.876  0.00  0.00    -0.047 C 
ATOM      6  C   LIG d   1      -4.524  93.685 118.982  0.00  0.00     0.091 C 
ENDROOT
BRANCH   1   7
ATOM      7  O   LIG d   1      -4.530  91.777 117.444  0.00  0.00    -0.368 OA
BRANCH   7   8
ATOM      8  C   LIG d   1      -4.566  90.333 117.337  0.00  0.00     0.119 C 
BRANCH   8   9
ATOM      9  C   LIG d   1      -3.122  89.821 117.500  0.00  0.00     0.028 C 
ATOM     10  C   LIG d   1      -2.729  89.637 118.976  0.00  0.00     0.006 C 
ENDBRANCH   8   9
BRANCH   8  11
ATOM     11  C   LIG d   1      -4.997  89.889 115.936  0.00  0.00     0.028 C 
ATOM     12  C   LIG d   1      -6.524  89.810 115.779  0.00  0.00     0.006 C 
ENDBRANCH   8  11
ENDBRANCH   7   8
ENDBRANCH   1   7
BRANCH   6  13
ATOM     13  N   LIG d   1      -3.228  93.378 119.641  0.00  0.00    -0.311 N 
ATOM     14  C   LIG d   1      -2.051  93.469 119.022  0.00  0.00     0.210 C 
ATOM     15  C   LIG d   1      -0.840  93.087 119.878  0.00  0.00     0.109 C 
ATOM     16  O   LIG d   1      -1.894  93.861 117.856  0.00  0.00    -0.276 OA
ATOM     17  H   LIG d   1      -3.260  93.082 120.597  0.00  0.00     0.149 HD
ENDBRANCH   6  13
BRANCH   5  18
ATOM     18  N   LIG d   1      -4.902  95.879 120.165  0.00  0.00     0.381 N 
ATOM     19  H   LIG d   1      -4.260  96.144 119.445  0.00  0.00    -0.090 HD
ATOM     20  H   LIG d   1      -4.403  95.844 121.036  0.00  0.00    -0.090 HD
ATOM     21  H   LIG d   1      -5.641  96.545 120.223  0.00  0.00    -0.090 HD
ENDBRANCH   5  18
BRANCH   3  22
ATOM     22  C   LIG d   1      -8.740  93.448 118.646  0.00  0.00     0.382 C 
ATOM     23  O   LIG d   1      -9.422  93.453 119.699  0.00  0.00    -0.241 OA
ATOM     24  O   LIG d   1      -9.310  93.323 117.546  0.00  0.00    -0.241 OA
ENDBRANCH   3  22
TORSDOF 7
ENDMDL
