MODEL 1
REMARK VINA RESULT:      -5.5      0.000      0.000
REMARK  7 active torsions:
REMARK  status: ('A' for Active; 'I' for Inactive)
REMARK    1  A    between atoms: C_2  and  C_3 
REMARK    2  A    between atoms: C_3  and  O_6 
REMARK    3  A    between atoms: C_3  and  C_4 
REMARK    4  A    between atoms: C_7  and  O_6 
REMARK    5  A    between atoms: C_9  and  C_10 
REMARK    6  A    between atoms: N_15  and  C_14 
REMARK    7  A    between atoms: N_20  and  C_19 
REMARK       I    between atoms: C_22  and  N_20 
ROOT
ATOM      1  C   LIG d   1      -6.026  93.500 117.942  0.00  0.00     0.161 C 
ATOM      2  C   LIG d   1      -6.536  92.623 116.969  0.00  0.00     0.016 C 
ATOM      3  C   LIG d   1      -5.749  91.655 116.305  0.00  0.00     0.038 C 
ATOM      4  C   LIG d   1      -4.423  91.394 116.680  0.00  0.00     0.028 C 
ATOM      5  C   LIG d   1      -3.722  92.595 117.306  0.00  0.00    -0.047 C 
ATOM      6  C   LIG d   1      -4.608  93.155 118.443  0.00  0.00     0.091 C 
ENDROOT
BRANCH   1   7
ATOM      7  O   LIG d   1      -6.942  93.586 119.051  0.00  0.00    -0.368 OA
BRANCH   7   8
ATOM      8  C   LIG d   1      -7.942  94.631 118.972  0.00  0.00     0.119 C 
BRANCH   8   9
ATOM      9  C   LIG d   1      -7.221  95.933 118.571  0.00  0.00     0.028 C 
ATOM     10  C   LIG d   1      -8.203  97.076 118.263  0.00  0.00     0.006 C 
ENDBRANCH   8   9
BRANCH   8  11
ATOM     11  C   LIG d   1      -8.561  94.915 120.344  0.00  0.00     0.028 C 
ATOM     12  C   LIG d   1     -10.084  94.712 120.365  0.00  0.00     0.006 C 
ENDBRANCH   8  11
ENDBRANCH   7   8
ENDBRANCH   1   7
BRANCH   6  13
ATOM     13  N   LIG d   1      -4.036  94.383 119.054  0.00  0.00    -0.311 N 
ATOM     14  C   LIG d   1      -3.259  94.370 120.135  0.00  0.00     0.210 C 
ATOM     15  C   LIG d   1      -2.792  95.749 120.613  0.00  0.00     0.109 C 
ATOM     16  O   LIG d   1      -2.886  93.345 120.726  0.00  0.00    -0.276 OA
ATOM     17  H   LIG d   1      -4.262  95.257 118.620  0.00  0.00     0.149 HD
ENDBRANCH   6  13
BRANCH   5  18
ATOM     18  N   LIG d   1      -2.398  92.144 117.774  0.00  0.00     0.381 N 
ATOM     19  H   LIG d   1      -2.078  91.385 117.206  0.00  0.00    -0.090 HD
ATOM     20  H   LIG d   1      -2.481  91.817 118.720  0.00  0.00    -0.090 HD
ATOM     21  H   LIG d   1      -1.747  92.897 117.731  0.00  0.00    -0.090 HD
ENDBRANCH   5  18
BRANCH   3  22
ATOM     22  C   LIG d   1      -6.277  90.962 115.226  0.00  0.00     0.382 C 
ATOM     23  O   LIG d   1      -7.340  91.356 114.688  0.00  0.00    -0.241 OA
ATOM     24  O   LIG d   1      -5.728  89.924 114.812  0.00  0.00    -0.241 OA
ENDBRANCH   3  22
TORSDOF 7
ENDMDL
MODEL 2
REMARK VINA RESULT:      -5.3      2.276      4.753
REMARK  7 active torsions:
REMARK  status: ('A' for Active; 'I' for Inactive)
REMARK    1  A    between atoms: C_2  and  C_3 
REMARK    2  A    between atoms: C_3  and  O_6 
REMARK    3  A    between atoms: C_3  and  C_4 
REMARK    4  A    between atoms: C_7  and  O_6 
REMARK    5  A    between atoms: C_9  and  C_10 
REMARK    6  A    between atoms: N_15  and  C_14 
REMARK    7  A    between atoms: N_20  and  C_19 
REMARK       I    between atoms: C_22  and  N_20 
ROOT
ATOM      1  C   LIG d   1      -4.567  92.395 117.859  0.00  0.00     0.161 C 
ATOM      2  C   LIG d   1      -4.847  91.616 116.724  0.00  0.00     0.016 C 
ATOM      3  C   LIG d   1      -6.070  91.682 116.018  0.00  0.00     0.038 C 
ATOM      4  C   LIG d   1      -7.045  92.646 116.312  0.00  0.00     0.028 C 
ATOM      5  C   LIG d   1      -7.017  93.114 117.763  0.00  0.00    -0.047 C 
ATOM      6  C   LIG d   1      -5.574  93.533 118.127  0.00  0.00     0.091 C 
ENDROOT
BRANCH   1   7
ATOM      7  O   LIG d   1      -3.228  92.923 117.771  0.00  0.00    -0.368 OA
BRANCH   7   8
ATOM      8  C   LIG d   1      -2.154  91.971 117.972  0.00  0.00     0.119 C 
BRANCH   8   9
ATOM      9  C   LIG d   1      -2.345  91.345 119.367  0.00  0.00     0.028 C 
ATOM     10  C   LIG d   1      -2.344  89.807 119.325  0.00  0.00     0.006 C 
ENDBRANCH   8   9
BRANCH   8  11
ATOM     11  C   LIG d   1      -0.793  92.671 118.025  0.00  0.00     0.028 C 
ATOM     12  C   LIG d   1      -0.906  94.201 117.943  0.00  0.00     0.006 C 
ENDBRANCH   8  11
ENDBRANCH   7   8
ENDBRANCH   1   7
BRANCH   6  13
ATOM     13  N   LIG d   1      -5.441  93.924 119.555  0.00  0.00    -0.311 N 
ATOM     14  C   LIG d   1      -5.571  95.177 119.987  0.00  0.00     0.210 C 
ATOM     15  C   LIG d   1      -5.376  95.365 121.495  0.00  0.00     0.109 C 
ATOM     16  O   LIG d   1      -5.862  96.146 119.269  0.00  0.00    -0.276 OA
ATOM     17  H   LIG d   1      -5.237  93.195 120.211  0.00  0.00     0.149 HD
ENDBRANCH   6  13
BRANCH   5  18
ATOM     18  N   LIG d   1      -7.990  94.215 117.896  0.00  0.00     0.381 N 
ATOM     19  H   LIG d   1      -8.010  94.752 117.052  0.00  0.00    -0.090 HD
ATOM     20  H   LIG d   1      -7.699  94.816 118.646  0.00  0.00    -0.090 HD
ATOM     21  H   LIG d   1      -8.896  93.848 118.086  0.00  0.00    -0.090 HD
ENDBRANCH   5  18
BRANCH   3  22
ATOM     22  C   LIG d   1      -6.344  90.748 115.030  0.00  0.00     0.382 C 
ATOM     23  O   LIG d   1      -7.446  90.774 114.430  0.00  0.00    -0.241 OA
ATOM     24  O   LIG d   1      -5.521  89.852 114.762  0.00  0.00    -0.241 OA
ENDBRANCH   3  22
TORSDOF 7
ENDMDL
MODEL 3
REMARK VINA RESULT:      -5.3      2.207      4.474
REMARK  7 active torsions:
REMARK  status: ('A' for Active; 'I' for Inactive)
REMARK    1  A    between atoms: C_2  and  C_3 
REMARK    2  A    between atoms: C_3  and  O_6 
REMARK    3  A    between atoms: C_3  and  C_4 
REMARK    4  A    between atoms: C_7  and  O_6 
REMARK    5  A    between atoms: C_9  and  C_10 
REMARK    6  A    between atoms: N_15  and  C_14 
REMARK    7  A    between atoms: N_20  and  C_19 
REMARK       I    between atoms: C_22  and  N_20 
ROOT
ATOM      1  C   LIG d   1      -4.571  92.439 117.855  0.00  0.00     0.161 C 
ATOM      2  C   LIG d   1      -4.850  91.648 116.729  0.00  0.00     0.016 C 
ATOM      3  C   LIG d   1      -6.083  91.686 116.037  0.00  0.00     0.038 C 
ATOM      4  C   LIG d   1      -7.072  92.634 116.337  0.00  0.00     0.028 C 
ATOM      5  C   LIG d   1      -7.035  93.111 117.785  0.00  0.00    -0.047 C 
ATOM      6  C   LIG d   1      -5.596  93.559 118.129  0.00  0.00     0.091 C 
ENDROOT
BRANCH   1   7
ATOM      7  O   LIG d   1      -3.243  92.990 117.748  0.00  0.00    -0.368 OA
BRANCH   7   8
ATOM      8  C   LIG d   1      -2.267  92.489 118.694  0.00  0.00     0.119 C 
BRANCH   8   9
ATOM      9  C   LIG d   1      -1.353  93.667 119.084  0.00  0.00     0.028 C 
ATOM     10  C   LIG d   1      -2.024  95.032 118.853  0.00  0.00     0.006 C 
ENDBRANCH   8   9
BRANCH   8  11
ATOM     11  C   LIG d   1      -1.342  91.455 118.046  0.00  0.00     0.028 C 
ATOM     12  C   LIG d   1      -1.786  90.008 118.312  0.00  0.00     0.006 C 
ENDBRANCH   8  11
ENDBRANCH   7   8
ENDBRANCH   1   7
BRANCH   6  13
ATOM     13  N   LIG d   1      -5.453  93.961 119.553  0.00  0.00    -0.311 N 
ATOM     14  C   LIG d   1      -5.588  95.216 119.977  0.00  0.00     0.210 C 
ATOM     15  C   LIG d   1      -5.381  95.416 121.482  0.00  0.00     0.109 C 
ATOM     16  O   LIG d   1      -5.891  96.178 119.255  0.00  0.00    -0.276 OA
ATOM     17  H   LIG d   1      -5.239  93.238 120.212  0.00  0.00     0.149 HD
ENDBRANCH   6  13
BRANCH   5  18
ATOM     18  N   LIG d   1      -8.027  94.194 117.923  0.00  0.00     0.381 N 
ATOM     19  H   LIG d   1      -7.708  94.861 118.598  0.00  0.00    -0.090 HD
ATOM     20  H   LIG d   1      -8.892  93.803 118.251  0.00  0.00    -0.090 HD
ATOM     21  H   LIG d   1      -8.167  94.641 117.044  0.00  0.00    -0.090 HD
ENDBRANCH   5  18
BRANCH   3  22
ATOM     22  C   LIG d   1      -6.351  90.741 115.058  0.00  0.00     0.382 C 
ATOM     23  O   LIG d   1      -7.468  90.731 114.486  0.00  0.00    -0.241 OA
ATOM     24  O   LIG d   1      -5.507  89.871 114.772  0.00  0.00    -0.241 OA
ENDBRANCH   3  22
TORSDOF 7
ENDMDL
MODEL 4
REMARK VINA RESULT:      -5.2      2.613      5.127
REMARK  7 active torsions:
REMARK  status: ('A' for Active; 'I' for Inactive)
REMARK    1  A    between atoms: C_2  and  C_3 
REMARK    2  A    between atoms: C_3  and  O_6 
REMARK    3  A    between atoms: C_3  and  C_4 
REMARK    4  A    between atoms: C_7  and  O_6 
REMARK    5  A    between atoms: C_9  and  C_10 
REMARK    6  A    between atoms: N_15  and  C_14 
REMARK    7  A    between atoms: N_20  and  C_19 
REMARK       I    between atoms: C_22  and  N_20 
ROOT
ATOM      1  C   LIG d   1      -3.549  91.396 117.707  0.00  0.00     0.161 C 
ATOM      2  C   LIG d   1      -4.259  90.896 116.603  0.00  0.00     0.016 C 
ATOM      3  C   LIG d   1      -5.442  91.489 116.105  0.00  0.00     0.038 C 
ATOM      4  C   LIG d   1      -5.914  92.719 116.587  0.00  0.00     0.028 C 
ATOM      5  C   LIG d   1      -5.513  92.997 118.032  0.00  0.00    -0.047 C 
ATOM      6  C   LIG d   1      -3.987  92.799 118.176  0.00  0.00     0.091 C 
ENDROOT
BRANCH   1   7
ATOM      7  O   LIG d   1      -2.135  91.380 117.426  0.00  0.00    -0.368 OA
BRANCH   7   8
ATOM      8  C   LIG d   1      -1.303  90.681 118.384  0.00  0.00     0.119 C 
BRANCH   8   9
ATOM      9  C   LIG d   1       0.159  91.079 118.104  0.00  0.00     0.028 C 
ATOM     10  C   LIG d   1       0.443  92.551 118.447  0.00  0.00     0.006 C 
ENDBRANCH   8   9
BRANCH   8  11
ATOM     11  C   LIG d   1      -1.359  89.166 118.169  0.00  0.00     0.028 C 
ATOM     12  C   LIG d   1      -2.073  88.428 119.313  0.00  0.00     0.006 C 
ENDBRANCH   8  11
ENDBRANCH   7   8
ENDBRANCH   1   7
BRANCH   6  13
ATOM     13  N   LIG d   1      -3.524  92.970 119.578  0.00  0.00    -0.311 N 
ATOM     14  C   LIG d   1      -2.678  93.926 119.959  0.00  0.00     0.210 C 
ATOM     15  C   LIG d   1      -2.314  93.911 121.447  0.00  0.00     0.109 C 
ATOM     16  O   LIG d   1      -2.221  94.804 119.213  0.00  0.00    -0.276 OA
ATOM     17  H   LIG d   1      -3.870  92.319 120.255  0.00  0.00     0.149 HD
ENDBRANCH   6  13
BRANCH   5  18
ATOM     18  N   LIG d   1      -5.952  94.367 118.360  0.00  0.00     0.381 N 
ATOM     19  H   LIG d   1      -5.720  94.578 119.310  0.00  0.00    -0.090 HD
ATOM     20  H   LIG d   1      -6.950  94.421 118.260  0.00  0.00    -0.090 HD
ATOM     21  H   LIG d   1      -5.514  95.021 117.750  0.00  0.00    -0.090 HD
ENDBRANCH   5  18
BRANCH   3  22
ATOM     22  C   LIG d   1      -6.188  90.830 115.139  0.00  0.00     0.382 C 
ATOM     23  O   LIG d   1      -5.766  89.756 114.647  0.00  0.00    -0.241 OA
ATOM     24  O   LIG d   1      -7.254  91.320 114.721  0.00  0.00    -0.241 OA
ENDBRANCH   3  22
TORSDOF 7
ENDMDL
MODEL 5
REMARK VINA RESULT:      -4.7      1.484      1.847
REMARK  7 active torsions:
REMARK  status: ('A' for Active; 'I' for Inactive)
REMARK    1  A    between atoms: C_2  and  C_3 
REMARK    2  A    between atoms: C_3  and  O_6 
REMARK    3  A    between atoms: C_3  and  C_4 
REMARK    4  A    between atoms: C_7  and  O_6 
REMARK    5  A    between atoms: C_9  and  C_10 
REMARK    6  A    between atoms: N_15  and  C_14 
REMARK    7  A    between atoms: N_20  and  C_19 
REMARK       I    between atoms: C_22  and  N_20 
ROOT
ATOM      1  C   LIG d   1      -5.008  93.254 118.349  0.00  0.00     0.161 C 
ATOM      2  C   LIG d   1      -5.727  92.769 117.243  0.00  0.00     0.016 C 
ATOM      3  C   LIG d   1      -5.282  91.697 116.435  0.00  0.00     0.038 C 
ATOM      4  C   LIG d   1      -4.155  90.933 116.771  0.00  0.00     0.028 C 
ATOM      5  C   LIG d   1      -3.124  91.703 117.590  0.00  0.00    -0.047 C 
ATOM      6  C   LIG d   1      -3.832  92.361 118.797  0.00  0.00     0.091 C 
ENDROOT
BRANCH   1   7
ATOM      7  O   LIG d   1      -5.907  93.489 119.451  0.00  0.00    -0.368 OA
BRANCH   7   8
ATOM      8  C   LIG d   1      -6.581  94.771 119.461  0.00  0.00     0.119 C 
BRANCH   8   9
ATOM      9  C   LIG d   1      -6.157  95.506 120.747  0.00  0.00     0.028 C 
ATOM     10  C   LIG d   1      -4.804  96.221 120.596  0.00  0.00     0.006 C 
ENDBRANCH   8   9
BRANCH   8  11
ATOM     11  C   LIG d   1      -8.099  94.601 119.572  0.00  0.00     0.028 C 
ATOM     12  C   LIG d   1      -8.877  95.690 118.816  0.00  0.00     0.006 C 
ENDBRANCH   8  11
ENDBRANCH   7   8
ENDBRANCH   1   7
BRANCH   6  13
ATOM     13  N   LIG d   1      -2.910  93.203 119.604  0.00  0.00    -0.311 N 
ATOM     14  C   LIG d   1      -2.096  94.114 119.074  0.00  0.00     0.210 C 
ATOM     15  C   LIG d   1      -1.215  94.858 120.082  0.00  0.00     0.109 C 
ATOM     16  O   LIG d   1      -2.042  94.399 117.868  0.00  0.00    -0.276 OA
ATOM     17  H   LIG d   1      -2.911  93.060 120.595  0.00  0.00     0.149 HD
ENDBRANCH   6  13
BRANCH   5  18
ATOM     18  N   LIG d   1      -2.069  90.751 117.987  0.00  0.00     0.381 N 
ATOM     19  H   LIG d   1      -1.385  91.218 118.548  0.00  0.00    -0.090 HD
ATOM     20  H   LIG d   1      -1.616  90.404 117.160  0.00  0.00    -0.090 HD
ATOM     21  H   LIG d   1      -2.468  89.994 118.499  0.00  0.00    -0.090 HD
ENDBRANCH   5  18
BRANCH   3  22
ATOM     22  C   LIG d   1      -5.948  91.405 115.254  0.00  0.00     0.382 C 
ATOM     23  O   LIG d   1      -6.199  90.213 114.954  0.00  0.00    -0.241 OA
ATOM     24  O   LIG d   1      -6.260  92.316 114.464  0.00  0.00    -0.241 OA
ENDBRANCH   3  22
TORSDOF 7
ENDMDL
MODEL 6
REMARK VINA RESULT:      -4.7      1.646      2.391
REMARK  7 active torsions:
REMARK  status: ('A' for Active; 'I' for Inactive)
REMARK    1  A    between atoms: C_2  and  C_3 
REMARK    2  A    between atoms: C_3  and  O_6 
REMARK    3  A    between atoms: C_3  and  C_4 
REMARK    4  A    between atoms: C_7  and  O_6 
REMARK    5  A    between atoms: C_9  and  C_10 
REMARK    6  A    between atoms: N_15  and  C_14 
REMARK    7  A    between atoms: N_20  and  C_19 
REMARK       I    between atoms: C_22  and  N_20 
ROOT
ATOM      1  C   LIG d   1      -4.645  93.035 118.721  0.00  0.00     0.161 C 
ATOM      2  C   LIG d   1      -5.381  92.614 117.602  0.00  0.00     0.016 C 
ATOM      3  C   LIG d   1      -4.919  91.639 116.688  0.00  0.00     0.038 C 
ATOM      4  C   LIG d   1      -3.745  90.906 116.917  0.00  0.00     0.028 C 
ATOM      5  C   LIG d   1      -2.721  91.652 117.765  0.00  0.00    -0.047 C 
ATOM      6  C   LIG d   1      -3.412  92.167 119.048  0.00  0.00     0.091 C 
ENDROOT
BRANCH   1   7
ATOM      7  O   LIG d   1      -5.511  93.129 119.869  0.00  0.00    -0.368 OA
BRANCH   7   8
ATOM      8  C   LIG d   1      -5.972  94.459 120.213  0.00  0.00     0.119 C 
BRANCH   8   9
ATOM      9  C   LIG d   1      -7.239  94.738 119.382  0.00  0.00     0.028 C 
ATOM     10  C   LIG d   1      -7.130  96.036 118.564  0.00  0.00     0.006 C 
ENDBRANCH   8   9
BRANCH   8  11
ATOM     11  C   LIG d   1      -4.962  95.527 119.784  0.00  0.00     0.028 C 
ATOM     12  C   LIG d   1      -4.123  96.059 120.957  0.00  0.00     0.006 C 
ENDBRANCH   8  11
ENDBRANCH   7   8
ENDBRANCH   1   7
BRANCH   6  13
ATOM     13  N   LIG d   1      -2.501  92.980 119.895  0.00  0.00    -0.311 N 
ATOM     14  C   LIG d   1      -1.866  92.498 120.962  0.00  0.00     0.210 C 
ATOM     15  C   LIG d   1      -0.990  93.511 121.706  0.00  0.00     0.109 C 
ATOM     16  O   LIG d   1      -1.919  91.319 121.344  0.00  0.00    -0.276 OA
ATOM     17  H   LIG d   1      -2.375  93.940 119.639  0.00  0.00     0.149 HD
ENDBRANCH   6  13
BRANCH   5  18
ATOM     18  N   LIG d   1      -1.609  90.722 118.041  0.00  0.00     0.381 N 
ATOM     19  H   LIG d   1      -1.811  90.186 118.861  0.00  0.00    -0.090 HD
ATOM     20  H   LIG d   1      -0.774  91.255 118.210  0.00  0.00    -0.090 HD
ATOM     21  H   LIG d   1      -1.472  90.115 117.264  0.00  0.00    -0.090 HD
ENDBRANCH   5  18
BRANCH   3  22
ATOM     22  C   LIG d   1      -5.614  91.418 115.508  0.00  0.00     0.382 C 
ATOM     23  O   LIG d   1      -5.825  90.246 115.115  0.00  0.00    -0.241 OA
ATOM     24  O   LIG d   1      -5.994  92.377 114.810  0.00  0.00    -0.241 OA
ENDBRANCH   3  22
TORSDOF 7
ENDMDL
MODEL 7
REMARK VINA RESULT:      -4.7      2.082      4.955
REMARK  7 active torsions:
REMARK  status: ('A' for Active; 'I' for Inactive)
REMARK    1  A    between atoms: C_2  and  C_3 
REMARK    2  A    between atoms: C_3  and  O_6 
REMARK    3  A    between atoms: C_3  and  C_4 
REMARK    4  A    between atoms: C_7  and  O_6 
REMARK    5  A    between atoms: C_9  and  C_10 
REMARK    6  A    between atoms: N_15  and  C_14 
REMARK    7  A    between atoms: N_20  and  C_19 
REMARK       I    between atoms: C_22  and  N_20 
ROOT
ATOM      1  C   LIG d   1      -5.705  93.265 119.418  0.00  0.00     0.161 C 
ATOM      2  C   LIG d   1      -7.015  93.766 119.349  0.00  0.00     0.016 C 
ATOM      3  C   LIG d   1      -7.318  95.146 119.289  0.00  0.00     0.038 C 
ATOM      4  C   LIG d   1      -6.319  96.119 119.141  0.00  0.00     0.028 C 
ATOM      5  C   LIG d   1      -4.971  95.694 119.715  0.00  0.00    -0.047 C 
ATOM      6  C   LIG d   1      -4.599  94.306 119.147  0.00  0.00     0.091 C 
ENDROOT
BRANCH   1   7
ATOM      7  O   LIG d   1      -5.564  92.140 118.528  0.00  0.00    -0.368 OA
BRANCH   7   8
ATOM      8  C   LIG d   1      -5.157  92.447 117.172  0.00  0.00     0.119 C 
BRANCH   8   9
ATOM      9  C   LIG d   1      -6.424  92.440 116.296  0.00  0.00     0.028 C 
ATOM     10  C   LIG d   1      -6.228  91.656 114.987  0.00  0.00     0.006 C 
ENDBRANCH   8   9
BRANCH   8  11
ATOM     11  C   LIG d   1      -4.260  91.348 116.597  0.00  0.00     0.028 C 
ATOM     12  C   LIG d   1      -3.332  90.723 117.651  0.00  0.00     0.006 C 
ENDBRANCH   8  11
ENDBRANCH   7   8
ENDBRANCH   1   7
BRANCH   6  13
ATOM     13  N   LIG d   1      -3.334  93.778 119.721  0.00  0.00    -0.311 N 
ATOM     14  C   LIG d   1      -2.154  93.878 119.112  0.00  0.00     0.210 C 
ATOM     15  C   LIG d   1      -0.980  93.250 119.869  0.00  0.00     0.109 C 
ATOM     16  O   LIG d   1      -1.963  94.456 118.031  0.00  0.00    -0.276 OA
ATOM     17  H   LIG d   1      -3.392  93.322 120.611  0.00  0.00     0.149 HD
ENDBRANCH   6  13
BRANCH   5  18
ATOM     18  N   LIG d   1      -3.990  96.741 119.371  0.00  0.00     0.381 N 
ATOM     19  H   LIG d   1      -3.482  96.474 118.552  0.00  0.00    -0.090 HD
ATOM     20  H   LIG d   1      -3.338  96.838 120.129  0.00  0.00    -0.090 HD
ATOM     21  H   LIG d   1      -4.457  97.607 119.213  0.00  0.00    -0.090 HD
ENDBRANCH   5  18
BRANCH   3  22
ATOM     22  C   LIG d   1      -8.633  95.567 119.417  0.00  0.00     0.382 C 
ATOM     23  O   LIG d   1      -9.561  94.888 118.913  0.00  0.00    -0.241 OA
ATOM     24  O   LIG d   1      -8.900  96.639 119.991  0.00  0.00    -0.241 OA
ENDBRANCH   3  22
TORSDOF 7
ENDMDL
MODEL 8
REMARK VINA RESULT:      -4.5      3.753      6.475
REMARK  7 active torsions:
REMARK  status: ('A' for Active; 'I' for Inactive)
REMARK    1  A    between atoms: C_2  and  C_3 
REMARK    2  A    between atoms: C_3  and  O_6 
REMARK    3  A    between atoms: C_3  and  C_4 
REMARK    4  A    between atoms: C_7  and  O_6 
REMARK    5  A    between atoms: C_9  and  C_10 
REMARK    6  A    between atoms: N_15  and  C_14 
REMARK    7  A    between atoms: N_20  and  C_19 
REMARK       I    between atoms: C_22  and  N_20 
ROOT
ATOM      1  C   LIG d   1      -1.842  91.140 118.168  0.00  0.00     0.161 C 
ATOM      2  C   LIG d   1      -2.952  90.783 117.384  0.00  0.00     0.016 C 
ATOM      3  C   LIG d   1      -4.033  91.656 117.121  0.00  0.00     0.038 C 
ATOM      4  C   LIG d   1      -4.006  93.005 117.504  0.00  0.00     0.028 C 
ATOM      5  C   LIG d   1      -3.137  93.270 118.729  0.00  0.00    -0.047 C 
ATOM      6  C   LIG d   1      -1.743  92.644 118.501  0.00  0.00     0.091 C 
ENDROOT
BRANCH   1   7
ATOM      7  O   LIG d   1      -0.630  90.686 117.535  0.00  0.00    -0.368 OA
BRANCH   7   8
ATOM      8  C   LIG d   1       0.193  89.780 118.310  0.00  0.00     0.119 C 
BRANCH   8   9
ATOM      9  C   LIG d   1       1.640  89.915 117.797  0.00  0.00     0.028 C 
ATOM     10  C   LIG d   1       2.029  88.783 116.832  0.00  0.00     0.006 C 
ENDBRANCH   8   9
BRANCH   8  11
ATOM     11  C   LIG d   1      -0.193  88.320 118.055  0.00  0.00     0.028 C 
ATOM     12  C   LIG d   1      -0.836  87.651 119.280  0.00  0.00     0.006 C 
ENDBRANCH   8  11
ENDBRANCH   7   8
ENDBRANCH   1   7
BRANCH   6  13
ATOM     13  N   LIG d   1      -0.857  92.784 119.686  0.00  0.00    -0.311 N 
ATOM     14  C   LIG d   1       0.386  93.257 119.620  0.00  0.00     0.210 C 
ATOM     15  C   LIG d   1       1.133  93.300 120.957  0.00  0.00     0.109 C 
ATOM     16  O   LIG d   1       0.930  93.675 118.587  0.00  0.00    -0.276 OA
ATOM     17  H   LIG d   1      -1.230  92.498 120.570  0.00  0.00     0.149 HD
ENDBRANCH   6  13
BRANCH   5  18
ATOM     18  N   LIG d   1      -3.089  94.730 118.933  0.00  0.00     0.381 N 
ATOM     19  H   LIG d   1      -2.539  94.941 119.742  0.00  0.00    -0.090 HD
ATOM     20  H   LIG d   1      -4.022  95.068 119.089  0.00  0.00    -0.090 HD
ATOM     21  H   LIG d   1      -2.697  95.174 118.132  0.00  0.00    -0.090 HD
ENDBRANCH   5  18
BRANCH   3  22
ATOM     22  C   LIG d   1      -5.175  91.169 116.504  0.00  0.00     0.382 C 
ATOM     23  O   LIG d   1      -5.076  90.444 115.485  0.00  0.00    -0.241 OA
ATOM     24  O   LIG d   1      -6.304  91.481 116.927  0.00  0.00    -0.241 OA
ENDBRANCH   3  22
TORSDOF 7
ENDMDL
MODEL 9
REMARK VINA RESULT:      -4.5      4.491      7.845
REMARK  7 active torsions:
REMARK  status: ('A' for Active; 'I' for Inactive)
REMARK    1  A    between atoms: C_2  and  C_3 
REMARK    2  A    between atoms: C_3  and  O_6 
REMARK    3  A    between atoms: C_3  and  C_4 
REMARK    4  A    between atoms: C_7  and  O_6 
REMARK    5  A    between atoms: C_9  and  C_10 
REMARK    6  A    between atoms: N_15  and  C_14 
REMARK    7  A    between atoms: N_20  and  C_19 
REMARK       I    between atoms: C_22  and  N_20 
ROOT
ATOM      1  C   LIG d   1      -0.678  91.010 118.392  0.00  0.00     0.161 C 
ATOM      2  C   LIG d   1       0.658  91.232 118.765  0.00  0.00     0.016 C 
ATOM      3  C   LIG d   1       1.267  92.509 118.756  0.00  0.00     0.038 C 
ATOM      4  C   LIG d   1       0.531  93.679 118.516  0.00  0.00     0.028 C 
ATOM      5  C   LIG d   1      -0.699  93.453 117.643  0.00  0.00    -0.047 C 
ATOM      6  C   LIG d   1      -1.527  92.289 118.234  0.00  0.00     0.091 C 
ENDROOT
BRANCH   1   7
ATOM      7  O   LIG d   1      -1.302  90.107 119.326  0.00  0.00    -0.368 OA
BRANCH   7   8
ATOM      8  C   LIG d   1      -1.569  88.769 118.838  0.00  0.00     0.119 C 
BRANCH   8   9
ATOM      9  C   LIG d   1      -2.816  88.246 119.576  0.00  0.00     0.028 C 
ATOM     10  C   LIG d   1      -2.472  87.166 120.616  0.00  0.00     0.006 C 
ENDBRANCH   8   9
BRANCH   8  11
ATOM     11  C   LIG d   1      -0.440  87.804 119.213  0.00  0.00     0.028 C 
ATOM     12  C   LIG d   1       0.521  87.528 118.046  0.00  0.00     0.006 C 
ENDBRANCH   8  11
ENDBRANCH   7   8
ENDBRANCH   1   7
BRANCH   6  13
ATOM     13  N   LIG d   1      -2.704  91.947 117.394  0.00  0.00    -0.311 N 
ATOM     14  C   LIG d   1      -3.914  92.472 117.578  0.00  0.00     0.210 C 
ATOM     15  C   LIG d   1      -4.991  91.968 116.614  0.00  0.00     0.109 C 
ATOM     16  O   LIG d   1      -4.189  93.332 118.429  0.00  0.00    -0.276 OA
ATOM     17  H   LIG d   1      -2.562  91.281 116.660  0.00  0.00     0.149 HD
ENDBRANCH   6  13
BRANCH   5  18
ATOM     18  N   LIG d   1      -1.445  94.724 117.588  0.00  0.00     0.381 N 
ATOM     19  H   LIG d   1      -0.914  95.448 118.029  0.00  0.00    -0.090 HD
ATOM     20  H   LIG d   1      -2.309  94.616 118.090  0.00  0.00    -0.090 HD
ATOM     21  H   LIG d   1      -1.632  94.969 116.641  0.00  0.00    -0.090 HD
ENDBRANCH   5  18
BRANCH   3  22
ATOM     22  C   LIG d   1       2.635  92.619 118.950  0.00  0.00     0.382 C 
ATOM     23  O   LIG d   1       3.086  92.902 120.086  0.00  0.00    -0.241 OA
ATOM     24  O   LIG d   1       3.422  92.482 117.995  0.00  0.00    -0.241 OA
ENDBRANCH   3  22
TORSDOF 7
ENDMDL
