MODEL 1
REMARK VINA RESULT:      -5.6      0.000      0.000
REMARK  7 active torsions:
REMARK  status: ('A' for Active; 'I' for Inactive)
REMARK    1  A    between atoms: C_2  and  C_3 
REMARK    2  A    between atoms: C_3  and  O_6 
REMARK    3  A    between atoms: C_3  and  C_4 
REMARK    4  A    between atoms: C_7  and  O_6 
REMARK    5  A    between atoms: C_9  and  C_10 
REMARK    6  A    between atoms: N_15  and  C_14 
REMARK    7  A    between atoms: N_20  and  C_19 
REMARK       I    between atoms: C_22  and  N_20 
ROOT
ATOM      1  C   LIG d   1      -6.868  93.722 118.002  0.00  0.00     0.161 C 
ATOM      2  C   LIG d   1      -7.381  92.918 116.971  0.00  0.00     0.016 C 
ATOM      3  C   LIG d   1      -6.693  91.804 116.437  0.00  0.00     0.038 C 
ATOM      4  C   LIG d   1      -5.503  91.326 117.006  0.00  0.00     0.028 C 
ATOM      5  C   LIG d   1      -4.697  92.404 117.721  0.00  0.00    -0.047 C 
ATOM      6  C   LIG d   1      -5.622  93.150 118.710  0.00  0.00     0.091 C 
ENDROOT
BRANCH   1   7
ATOM      7  O   LIG d   1      -7.904  94.005 118.963  0.00  0.00    -0.368 OA
BRANCH   7   8
ATOM      8  C   LIG d   1      -8.688  95.200 118.722  0.00  0.00     0.119 C 
BRANCH   8   9
ATOM      9  C   LIG d   1      -7.725  96.292 118.218  0.00  0.00     0.028 C 
ATOM     10  C   LIG d   1      -7.224  97.201 119.352  0.00  0.00     0.006 C 
ENDBRANCH   8   9
BRANCH   8  11
ATOM     11  C   LIG d   1      -9.280  95.750 120.023  0.00  0.00     0.028 C 
ATOM     12  C   LIG d   1     -10.447  94.902 120.553  0.00  0.00     0.006 C 
ENDBRANCH   8  11
ENDBRANCH   7   8
ENDBRANCH   1   7
BRANCH   6  13
ATOM     13  N   LIG d   1      -4.933  94.277 119.391  0.00  0.00    -0.311 N 
ATOM     14  C   LIG d   1      -4.940  94.450 120.712  0.00  0.00     0.210 C 
ATOM     15  C   LIG d   1      -4.185  95.688 121.206  0.00  0.00     0.109 C 
ATOM     16  O   LIG d   1      -5.472  93.678 121.524  0.00  0.00    -0.276 OA
ATOM     17  H   LIG d   1      -4.450  94.934 118.810  0.00  0.00     0.149 HD
ENDBRANCH   6  13
BRANCH   5  18
ATOM     18  N   LIG d   1      -3.556  91.743 118.383  0.00  0.00     0.381 N 
ATOM     19  H   LIG d   1      -2.924  91.388 117.693  0.00  0.00    -0.090 HD
ATOM     20  H   LIG d   1      -3.899  90.969 118.925  0.00  0.00    -0.090 HD
ATOM     21  H   LIG d   1      -3.084  92.390 118.975  0.00  0.00    -0.090 HD
ENDBRANCH   5  18
BRANCH   3  22
ATOM     22  C   LIG d   1      -7.175  91.181 115.297  0.00  0.00     0.382 C 
ATOM     23  O   LIG d   1      -7.860  91.830 114.470  0.00  0.00    -0.241 OA
ATOM     24  O   LIG d   1      -6.971  89.967 115.106  0.00  0.00    -0.241 OA
ENDBRANCH   3  22
TORSDOF 7
ENDMDL
MODEL 2
REMARK VINA RESULT:      -5.5      2.171      4.432
REMARK  7 active torsions:
REMARK  status: ('A' for Active; 'I' for Inactive)
REMARK    1  A    between atoms: C_2  and  C_3 
REMARK    2  A    between atoms: C_3  and  O_6 
REMARK    3  A    between atoms: C_3  and  C_4 
REMARK    4  A    between atoms: C_7  and  O_6 
REMARK    5  A    between atoms: C_9  and  C_10 
REMARK    6  A    between atoms: N_15  and  C_14 
REMARK    7  A    between atoms: N_20  and  C_19 
REMARK       I    between atoms: C_22  and  N_20 
ROOT
ATOM      1  C   LIG d   1      -5.235  92.193 118.121  0.00  0.00     0.161 C 
ATOM      2  C   LIG d   1      -5.531  91.445 116.969  0.00  0.00     0.016 C 
ATOM      3  C   LIG d   1      -6.665  91.678 116.159  0.00  0.00     0.038 C 
ATOM      4  C   LIG d   1      -7.507  92.782 116.362  0.00  0.00     0.028 C 
ATOM      5  C   LIG d   1      -7.534  93.265 117.808  0.00  0.00    -0.047 C 
ATOM      6  C   LIG d   1      -6.081  93.472 118.295  0.00  0.00     0.091 C 
ENDROOT
BRANCH   1   7
ATOM      7  O   LIG d   1      -3.830  92.514 118.148  0.00  0.00    -0.368 OA
BRANCH   7   8
ATOM      8  C   LIG d   1      -3.066  91.939 119.236  0.00  0.00     0.119 C 
BRANCH   8   9
ATOM      9  C   LIG d   1      -2.294  93.086 119.916  0.00  0.00     0.028 C 
ATOM     10  C   LIG d   1      -2.366  94.398 119.116  0.00  0.00     0.006 C 
ENDBRANCH   8   9
BRANCH   8  11
ATOM     11  C   LIG d   1      -1.992  90.979 118.716  0.00  0.00     0.028 C 
ATOM     12  C   LIG d   1      -2.565  89.617 118.293  0.00  0.00     0.006 C 
ENDBRANCH   8  11
ENDBRANCH   7   8
ENDBRANCH   1   7
BRANCH   6  13
ATOM     13  N   LIG d   1      -6.014  93.864 119.727  0.00  0.00    -0.311 N 
ATOM     14  C   LIG d   1      -5.941  95.128 120.139  0.00  0.00     0.210 C 
ATOM     15  C   LIG d   1      -5.860  95.311 121.657  0.00  0.00     0.109 C 
ATOM     16  O   LIG d   1      -5.969  96.118 119.391  0.00  0.00    -0.276 OA
ATOM     17  H   LIG d   1      -6.017  93.125 120.403  0.00  0.00     0.149 HD
ENDBRANCH   6  13
BRANCH   5  18
ATOM     18  N   LIG d   1      -8.339  94.501 117.851  0.00  0.00     0.381 N 
ATOM     19  H   LIG d   1      -7.742  95.289 118.002  0.00  0.00    -0.090 HD
ATOM     20  H   LIG d   1      -8.984  94.442 118.618  0.00  0.00    -0.090 HD
ATOM     21  H   LIG d   1      -8.837  94.612 116.995  0.00  0.00    -0.090 HD
ENDBRANCH   5  18
BRANCH   3  22
ATOM     22  C   LIG d   1      -6.990  90.778 115.155  0.00  0.00     0.382 C 
ATOM     23  O   LIG d   1      -6.218  89.825 114.893  0.00  0.00    -0.241 OA
ATOM     24  O   LIG d   1      -8.025  90.933 114.479  0.00  0.00    -0.241 OA
ENDBRANCH   3  22
TORSDOF 7
ENDMDL
MODEL 3
REMARK VINA RESULT:      -5.3      1.148      1.865
REMARK  7 active torsions:
REMARK  status: ('A' for Active; 'I' for Inactive)
REMARK    1  A    between atoms: C_2  and  C_3 
REMARK    2  A    between atoms: C_3  and  O_6 
REMARK    3  A    between atoms: C_3  and  C_4 
REMARK    4  A    between atoms: C_7  and  O_6 
REMARK    5  A    between atoms: C_9  and  C_10 
REMARK    6  A    between atoms: N_15  and  C_14 
REMARK    7  A    between atoms: N_20  and  C_19 
REMARK       I    between atoms: C_22  and  N_20 
ROOT
ATOM      1  C   LIG d   1      -6.218  93.855 118.812  0.00  0.00     0.161 C 
ATOM      2  C   LIG d   1      -6.897  93.151 117.804  0.00  0.00     0.016 C 
ATOM      3  C   LIG d   1      -6.325  92.076 117.085  0.00  0.00     0.038 C 
ATOM      4  C   LIG d   1      -5.080  91.531 117.432  0.00  0.00     0.028 C 
ATOM      5  C   LIG d   1      -4.149  92.532 118.108  0.00  0.00    -0.047 C 
ATOM      6  C   LIG d   1      -4.900  93.204 119.280  0.00  0.00     0.091 C 
ENDROOT
BRANCH   1   7
ATOM      7  O   LIG d   1      -7.097  94.071 119.934  0.00  0.00    -0.368 OA
BRANCH   7   8
ATOM      8  C   LIG d   1      -7.667  95.398 120.050  0.00  0.00     0.119 C 
BRANCH   8   9
ATOM      9  C   LIG d   1      -9.079  95.351 119.434  0.00  0.00     0.028 C 
ATOM     10  C   LIG d   1     -10.154  94.957 120.461  0.00  0.00     0.006 C 
ENDBRANCH   8   9
BRANCH   8  11
ATOM     11  C   LIG d   1      -6.891  96.414 119.208  0.00  0.00     0.028 C 
ATOM     12  C   LIG d   1      -7.731  97.007 118.065  0.00  0.00     0.006 C 
ENDBRANCH   8  11
ENDBRANCH   7   8
ENDBRANCH   1   7
BRANCH   6  13
ATOM     13  N   LIG d   1      -4.089  94.258 119.943  0.00  0.00    -0.311 N 
ATOM     14  C   LIG d   1      -3.332  94.033 121.016  0.00  0.00     0.210 C 
ATOM     15  C   LIG d   1      -2.593  95.263 121.554  0.00  0.00     0.109 C 
ATOM     16  O   LIG d   1      -3.178  92.927 121.554  0.00  0.00    -0.276 OA
ATOM     17  H   LIG d   1      -4.131  95.179 119.554  0.00  0.00     0.149 HD
ENDBRANCH   6  13
BRANCH   5  18
ATOM     18  N   LIG d   1      -2.944  91.798 118.539  0.00  0.00     0.381 N 
ATOM     19  H   LIG d   1      -2.904  90.911 118.078  0.00  0.00    -0.090 HD
ATOM     20  H   LIG d   1      -2.998  91.636 119.529  0.00  0.00    -0.090 HD
ATOM     21  H   LIG d   1      -2.128  92.328 118.326  0.00  0.00    -0.090 HD
ENDBRANCH   5  18
BRANCH   3  22
ATOM     22  C   LIG d   1      -6.985  91.560 115.980  0.00  0.00     0.382 C 
ATOM     23  O   LIG d   1      -6.844  92.101 114.857  0.00  0.00    -0.241 OA
ATOM     24  O   LIG d   1      -7.754  90.588 116.099  0.00  0.00    -0.241 OA
ENDBRANCH   3  22
TORSDOF 7
ENDMDL
MODEL 4
REMARK VINA RESULT:      -5.0      2.147      4.544
REMARK  7 active torsions:
REMARK  status: ('A' for Active; 'I' for Inactive)
REMARK    1  A    between atoms: C_2  and  C_3 
REMARK    2  A    between atoms: C_3  and  O_6 
REMARK    3  A    between atoms: C_3  and  C_4 
REMARK    4  A    between atoms: C_7  and  O_6 
REMARK    5  A    between atoms: C_9  and  C_10 
REMARK    6  A    between atoms: N_15  and  C_14 
REMARK    7  A    between atoms: N_20  and  C_19 
REMARK       I    between atoms: C_22  and  N_20 
ROOT
ATOM      1  C   LIG d   1      -4.930  92.198 118.188  0.00  0.00     0.161 C 
ATOM      2  C   LIG d   1      -5.339  91.506 117.037  0.00  0.00     0.016 C 
ATOM      3  C   LIG d   1      -6.556  91.764 116.364  0.00  0.00     0.038 C 
ATOM      4  C   LIG d   1      -7.381  92.844 116.713  0.00  0.00     0.028 C 
ATOM      5  C   LIG d   1      -7.258  93.252 118.177  0.00  0.00    -0.047 C 
ATOM      6  C   LIG d   1      -5.764  93.454 118.518  0.00  0.00     0.091 C 
ENDROOT
BRANCH   1   7
ATOM      7  O   LIG d   1      -3.533  92.538 118.084  0.00  0.00    -0.368 OA
BRANCH   7   8
ATOM      8  C   LIG d   1      -2.629  91.785 118.930  0.00  0.00     0.119 C 
BRANCH   8   9
ATOM      9  C   LIG d   1      -3.148  90.335 118.987  0.00  0.00     0.028 C 
ATOM     10  C   LIG d   1      -2.377  89.399 118.042  0.00  0.00     0.006 C 
ENDBRANCH   8   9
BRANCH   8  11
ATOM     11  C   LIG d   1      -2.671  92.288 120.376  0.00  0.00     0.028 C 
ATOM     12  C   LIG d   1      -1.803  93.537 120.598  0.00  0.00     0.006 C 
ENDBRANCH   8  11
ENDBRANCH   7   8
ENDBRANCH   1   7
BRANCH   6  13
ATOM     13  N   LIG d   1      -5.548  93.773 119.953  0.00  0.00    -0.311 N 
ATOM     14  C   LIG d   1      -5.445  95.016 120.421  0.00  0.00     0.210 C 
ATOM     15  C   LIG d   1      -5.204  95.121 121.930  0.00  0.00     0.109 C 
ATOM     16  O   LIG d   1      -5.562  96.042 119.734  0.00  0.00    -0.276 OA
ATOM     17  H   LIG d   1      -5.473  93.001 120.586  0.00  0.00     0.149 HD
ENDBRANCH   6  13
BRANCH   5  18
ATOM     18  N   LIG d   1      -8.065  94.472 118.369  0.00  0.00     0.381 N 
ATOM     19  H   LIG d   1      -9.038  94.249 118.296  0.00  0.00    -0.090 HD
ATOM     20  H   LIG d   1      -7.837  95.130 117.644  0.00  0.00    -0.090 HD
ATOM     21  H   LIG d   1      -7.874  94.870 119.262  0.00  0.00    -0.090 HD
ENDBRANCH   5  18
BRANCH   3  22
ATOM     22  C   LIG d   1      -6.978  90.912 115.355  0.00  0.00     0.382 C 
ATOM     23  O   LIG d   1      -8.057  91.136 114.755  0.00  0.00    -0.241 OA
ATOM     24  O   LIG d   1      -6.315  89.898 115.066  0.00  0.00    -0.241 OA
ENDBRANCH   3  22
TORSDOF 7
ENDMDL
MODEL 5
REMARK VINA RESULT:      -4.9      2.553      6.544
REMARK  7 active torsions:
REMARK  status: ('A' for Active; 'I' for Inactive)
REMARK    1  A    between atoms: C_2  and  C_3 
REMARK    2  A    between atoms: C_3  and  O_6 
REMARK    3  A    between atoms: C_3  and  C_4 
REMARK    4  A    between atoms: C_7  and  O_6 
REMARK    5  A    between atoms: C_9  and  C_10 
REMARK    6  A    between atoms: N_15  and  C_14 
REMARK    7  A    between atoms: N_20  and  C_19 
REMARK       I    between atoms: C_22  and  N_20 
ROOT
ATOM      1  C   LIG d   1      -4.807  92.945 118.656  0.00  0.00     0.161 C 
ATOM      2  C   LIG d   1      -4.729  93.900 119.684  0.00  0.00     0.016 C 
ATOM      3  C   LIG d   1      -5.781  94.792 119.998  0.00  0.00     0.038 C 
ATOM      4  C   LIG d   1      -7.045  94.687 119.401  0.00  0.00     0.028 C 
ATOM      5  C   LIG d   1      -7.008  94.069 118.007  0.00  0.00    -0.047 C 
ATOM      6  C   LIG d   1      -6.218  92.741 118.068  0.00  0.00     0.091 C 
ENDROOT
BRANCH   1   7
ATOM      7  O   LIG d   1      -4.269  91.689 119.115  0.00  0.00    -0.368 OA
BRANCH   7   8
ATOM      8  C   LIG d   1      -2.997  91.293 118.544  0.00  0.00     0.119 C 
BRANCH   8   9
ATOM      9  C   LIG d   1      -3.108  89.807 118.153  0.00  0.00     0.028 C 
ATOM     10  C   LIG d   1      -1.738  89.110 118.102  0.00  0.00     0.006 C 
ENDBRANCH   8   9
BRANCH   8  11
ATOM     11  C   LIG d   1      -1.876  91.357 119.585  0.00  0.00     0.028 C 
ATOM     12  C   LIG d   1      -1.101  92.683 119.547  0.00  0.00     0.006 C 
ENDBRANCH   8  11
ENDBRANCH   7   8
ENDBRANCH   1   7
BRANCH   6  13
ATOM     13  N   LIG d   1      -6.061  92.114 116.730  0.00  0.00    -0.311 N 
ATOM     14  C   LIG d   1      -6.936  91.249 116.218  0.00  0.00     0.210 C 
ATOM     15  C   LIG d   1      -6.573  90.705 114.833  0.00  0.00     0.109 C 
ATOM     16  O   LIG d   1      -7.994  90.905 116.767  0.00  0.00    -0.276 OA
ATOM     17  H   LIG d   1      -5.246  92.360 116.203  0.00  0.00     0.149 HD
ENDBRANCH   6  13
BRANCH   5  18
ATOM     18  N   LIG d   1      -8.402  93.893 117.559  0.00  0.00     0.381 N 
ATOM     19  H   LIG d   1      -8.585  94.490 116.778  0.00  0.00    -0.090 HD
ATOM     20  H   LIG d   1      -9.019  94.155 118.308  0.00  0.00    -0.090 HD
ATOM     21  H   LIG d   1      -8.561  92.943 117.305  0.00  0.00    -0.090 HD
ENDBRANCH   5  18
BRANCH   3  22
ATOM     22  C   LIG d   1      -5.558  95.828 120.892  0.00  0.00     0.382 C 
ATOM     23  O   LIG d   1      -6.100  96.944 120.705  0.00  0.00    -0.241 OA
ATOM     24  O   LIG d   1      -4.788  95.675 121.859  0.00  0.00    -0.241 OA
ENDBRANCH   3  22
TORSDOF 7
ENDMDL
MODEL 6
REMARK VINA RESULT:      -4.6      2.889      4.266
REMARK  7 active torsions:
REMARK  status: ('A' for Active; 'I' for Inactive)
REMARK    1  A    between atoms: C_2  and  C_3 
REMARK    2  A    between atoms: C_3  and  O_6 
REMARK    3  A    between atoms: C_3  and  C_4 
REMARK    4  A    between atoms: C_7  and  O_6 
REMARK    5  A    between atoms: C_9  and  C_10 
REMARK    6  A    between atoms: N_15  and  C_14 
REMARK    7  A    between atoms: N_20  and  C_19 
REMARK       I    between atoms: C_22  and  N_20 
ROOT
ATOM      1  C   LIG d   1      -4.325  92.545 118.280  0.00  0.00     0.161 C 
ATOM      2  C   LIG d   1      -3.918  91.203 118.192  0.00  0.00     0.016 C 
ATOM      3  C   LIG d   1      -2.763  90.696 118.830  0.00  0.00     0.038 C 
ATOM      4  C   LIG d   1      -2.014  91.468 119.730  0.00  0.00     0.028 C 
ATOM      5  C   LIG d   1      -2.096  92.966 119.456  0.00  0.00    -0.047 C 
ATOM      6  C   LIG d   1      -3.582  93.376 119.347  0.00  0.00     0.091 C 
ENDROOT
BRANCH   1   7
ATOM      7  O   LIG d   1      -5.748  92.611 118.494  0.00  0.00    -0.368 OA
BRANCH   7   8
ATOM      8  C   LIG d   1      -6.557  92.892 117.325  0.00  0.00     0.119 C 
BRANCH   8   9
ATOM      9  C   LIG d   1      -7.709  93.813 117.769  0.00  0.00     0.028 C 
ATOM     10  C   LIG d   1      -7.390  94.566 119.072  0.00  0.00     0.006 C 
ENDBRANCH   8   9
BRANCH   8  11
ATOM     11  C   LIG d   1      -7.233  91.623 116.797  0.00  0.00     0.028 C 
ATOM     12  C   LIG d   1      -6.657  91.156 115.451  0.00  0.00     0.006 C 
ENDBRANCH   8  11
ENDBRANCH   7   8
ENDBRANCH   1   7
BRANCH   6  13
ATOM     13  N   LIG d   1      -3.751  94.811 118.996  0.00  0.00    -0.311 N 
ATOM     14  C   LIG d   1      -3.908  95.773 119.903  0.00  0.00     0.210 C 
ATOM     15  C   LIG d   1      -4.085  97.182 119.327  0.00  0.00     0.109 C 
ATOM     16  O   LIG d   1      -3.886  95.599 121.131  0.00  0.00    -0.276 OA
ATOM     17  H   LIG d   1      -3.749  95.045 118.023  0.00  0.00     0.149 HD
ENDBRANCH   6  13
BRANCH   5  18
ATOM     18  N   LIG d   1      -1.384  93.658 120.548  0.00  0.00     0.381 N 
ATOM     19  H   LIG d   1      -0.613  93.101 120.856  0.00  0.00    -0.090 HD
ATOM     20  H   LIG d   1      -2.014  93.780 121.321  0.00  0.00    -0.090 HD
ATOM     21  H   LIG d   1      -1.058  94.546 120.233  0.00  0.00    -0.090 HD
ENDBRANCH   5  18
BRANCH   3  22
ATOM     22  C   LIG d   1      -2.324  89.413 118.540  0.00  0.00     0.382 C 
ATOM     23  O   LIG d   1      -2.811  88.430 119.149  0.00  0.00    -0.241 OA
ATOM     24  O   LIG d   1      -1.415  89.230 117.708  0.00  0.00    -0.241 OA
ENDBRANCH   3  22
TORSDOF 7
ENDMDL
MODEL 7
REMARK VINA RESULT:      -4.3      2.378      4.667
REMARK  7 active torsions:
REMARK  status: ('A' for Active; 'I' for Inactive)
REMARK    1  A    between atoms: C_2  and  C_3 
REMARK    2  A    between atoms: C_3  and  O_6 
REMARK    3  A    between atoms: C_3  and  C_4 
REMARK    4  A    between atoms: C_7  and  O_6 
REMARK    5  A    between atoms: C_9  and  C_10 
REMARK    6  A    between atoms: N_15  and  C_14 
REMARK    7  A    between atoms: N_20  and  C_19 
REMARK       I    between atoms: C_22  and  N_20 
ROOT
ATOM      1  C   LIG d   1      -5.377  93.560 120.100  0.00  0.00     0.161 C 
ATOM      2  C   LIG d   1      -4.375  92.657 119.705  0.00  0.00     0.016 C 
ATOM      3  C   LIG d   1      -4.407  91.942 118.486  0.00  0.00     0.038 C 
ATOM      4  C   LIG d   1      -5.375  92.197 117.503  0.00  0.00     0.028 C 
ATOM      5  C   LIG d   1      -6.687  92.731 118.068  0.00  0.00    -0.047 C 
ATOM      6  C   LIG d   1      -6.383  93.933 118.991  0.00  0.00     0.091 C 
ENDROOT
BRANCH   1   7
ATOM      7  O   LIG d   1      -4.775  94.748 120.651  0.00  0.00    -0.368 OA
BRANCH   7   8
ATOM      8  C   LIG d   1      -3.338  94.863 120.499  0.00  0.00     0.119 C 
BRANCH   8   9
ATOM      9  C   LIG d   1      -2.728  94.938 121.913  0.00  0.00     0.028 C 
ATOM     10  C   LIG d   1      -1.239  94.552 121.930  0.00  0.00     0.006 C 
ENDBRANCH   8   9
BRANCH   8  11
ATOM     11  C   LIG d   1      -2.954  96.182 119.822  0.00  0.00     0.028 C 
ATOM     12  C   LIG d   1      -4.176  97.031 119.435  0.00  0.00     0.006 C 
ENDBRANCH   8  11
ENDBRANCH   7   8
ENDBRANCH   1   7
BRANCH   6  13
ATOM     13  N   LIG d   1      -7.604  94.463 119.652  0.00  0.00    -0.311 N 
ATOM     14  C   LIG d   1      -8.081  95.688 119.437  0.00  0.00     0.210 C 
ATOM     15  C   LIG d   1      -9.339  96.041 120.236  0.00  0.00     0.109 C 
ATOM     16  O   LIG d   1      -7.599  96.504 118.637  0.00  0.00    -0.276 OA
ATOM     17  H   LIG d   1      -8.075  93.856 120.294  0.00  0.00     0.149 HD
ENDBRANCH   6  13
BRANCH   5  18
ATOM     18  N   LIG d   1      -7.554  93.082 116.928  0.00  0.00     0.381 N 
ATOM     19  H   LIG d   1      -7.890  92.249 116.488  0.00  0.00    -0.090 HD
ATOM     20  H   LIG d   1      -7.013  93.597 116.255  0.00  0.00    -0.090 HD
ATOM     21  H   LIG d   1      -8.322  93.634 117.240  0.00  0.00    -0.090 HD
ENDBRANCH   5  18
BRANCH   3  22
ATOM     22  C   LIG d   1      -3.486  90.931 118.257  0.00  0.00     0.382 C 
ATOM     23  O   LIG d   1      -2.279  91.104 118.552  0.00  0.00    -0.241 OA
ATOM     24  O   LIG d   1      -3.839  89.865 117.719  0.00  0.00    -0.241 OA
ENDBRANCH   3  22
TORSDOF 7
ENDMDL
MODEL 8
REMARK VINA RESULT:      -4.3      4.883      7.446
REMARK  7 active torsions:
REMARK  status: ('A' for Active; 'I' for Inactive)
REMARK    1  A    between atoms: C_2  and  C_3 
REMARK    2  A    between atoms: C_3  and  O_6 
REMARK    3  A    between atoms: C_3  and  C_4 
REMARK    4  A    between atoms: C_7  and  O_6 
REMARK    5  A    between atoms: C_9  and  C_10 
REMARK    6  A    between atoms: N_15  and  C_14 
REMARK    7  A    between atoms: N_20  and  C_19 
REMARK       I    between atoms: C_22  and  N_20 
ROOT
ATOM      1  C   LIG d   1      -2.184  90.404 118.689  0.00  0.00     0.161 C 
ATOM      2  C   LIG d   1      -3.484  90.704 118.250  0.00  0.00     0.016 C 
ATOM      3  C   LIG d   1      -3.994  92.021 118.169  0.00  0.00     0.038 C 
ATOM      4  C   LIG d   1      -3.182  93.145 118.381  0.00  0.00     0.028 C 
ATOM      5  C   LIG d   1      -2.007  92.875 119.315  0.00  0.00    -0.047 C 
ATOM      6  C   LIG d   1      -1.248  91.624 118.819  0.00  0.00     0.091 C 
ENDROOT
BRANCH   1   7
ATOM      7  O   LIG d   1      -1.595  89.409 117.829  0.00  0.00    -0.368 OA
BRANCH   7   8
ATOM      8  C   LIG d   1      -1.622  88.046 118.320  0.00  0.00     0.119 C 
BRANCH   8   9
ATOM      9  C   LIG d   1      -1.690  88.109 119.858  0.00  0.00     0.028 C 
ATOM     10  C   LIG d   1      -2.875  87.310 120.426  0.00  0.00     0.006 C 
ENDBRANCH   8   9
BRANCH   8  11
ATOM     11  C   LIG d   1      -0.315  87.314 118.001  0.00  0.00     0.028 C 
ATOM     12  C   LIG d   1       0.587  87.142 119.234  0.00  0.00     0.006 C 
ENDBRANCH   8  11
ENDBRANCH   7   8
ENDBRANCH   1   7
BRANCH   6  13
ATOM     13  N   LIG d   1      -0.133  91.241 119.724  0.00  0.00    -0.311 N 
ATOM     14  C   LIG d   1       1.050  90.810 119.289  0.00  0.00     0.210 C 
ATOM     15  C   LIG d   1       2.051  90.449 120.390  0.00  0.00     0.109 C 
ATOM     16  O   LIG d   1       1.375  90.722 118.095  0.00  0.00    -0.276 OA
ATOM     17  H   LIG d   1      -0.300  91.311 120.709  0.00  0.00     0.149 HD
ENDBRANCH   6  13
BRANCH   5  18
ATOM     18  N   LIG d   1      -1.169  94.089 119.338  0.00  0.00     0.381 N 
ATOM     19  H   LIG d   1      -1.302  94.609 118.494  0.00  0.00    -0.090 HD
ATOM     20  H   LIG d   1      -0.203  93.816 119.391  0.00  0.00    -0.090 HD
ATOM     21  H   LIG d   1      -1.406  94.652 120.125  0.00  0.00    -0.090 HD
ENDBRANCH   5  18
BRANCH   3  22
ATOM     22  C   LIG d   1      -5.342  92.221 117.913  0.00  0.00     0.382 C 
ATOM     23  O   LIG d   1      -5.947  91.465 117.115  0.00  0.00    -0.241 OA
ATOM     24  O   LIG d   1      -5.950  93.175 118.434  0.00  0.00    -0.241 OA
ENDBRANCH   3  22
TORSDOF 7
ENDMDL
MODEL 9
REMARK VINA RESULT:      -4.3      6.570      8.592
REMARK  7 active torsions:
REMARK  status: ('A' for Active; 'I' for Inactive)
REMARK    1  A    between atoms: C_2  and  C_3 
REMARK    2  A    between atoms: C_3  and  O_6 
REMARK    3  A    between atoms: C_3  and  C_4 
REMARK    4  A    between atoms: C_7  and  O_6 
REMARK    5  A    between atoms: C_9  and  C_10 
REMARK    6  A    between atoms: N_15  and  C_14 
REMARK    7  A    between atoms: N_20  and  C_19 
REMARK       I    between atoms: C_22  and  N_20 
ROOT
ATOM      1  C   LIG d   1       0.436  90.111 118.869  0.00  0.00     0.161 C 
ATOM      2  C   LIG d   1       1.623  90.541 118.254  0.00  0.00     0.016 C 
ATOM      3  C   LIG d   1       2.370  89.742 117.358  0.00  0.00     0.038 C 
ATOM      4  C   LIG d   1       1.895  88.505 116.897  0.00  0.00     0.028 C 
ATOM      5  C   LIG d   1       0.952  87.814 117.876  0.00  0.00    -0.047 C 
ATOM      6  C   LIG d   1      -0.156  88.808 118.291  0.00  0.00     0.091 C 
ENDROOT
BRANCH   1   7
ATOM      7  O   LIG d   1      -0.545  91.167 118.829  0.00  0.00    -0.368 OA
BRANCH   7   8
ATOM      8  C   LIG d   1      -0.530  92.092 119.944  0.00  0.00     0.119 C 
BRANCH   8   9
ATOM      9  C   LIG d   1      -1.335  91.449 121.090  0.00  0.00     0.028 C 
ATOM     10  C   LIG d   1      -2.853  91.623 120.912  0.00  0.00     0.006 C 
ENDBRANCH   8   9
BRANCH   8  11
ATOM     11  C   LIG d   1      -1.274  93.387 119.604  0.00  0.00     0.028 C 
ATOM     12  C   LIG d   1      -1.451  93.592 118.091  0.00  0.00     0.006 C 
ENDBRANCH   8  11
ENDBRANCH   7   8
ENDBRANCH   1   7
BRANCH   6  13
ATOM     13  N   LIG d   1      -1.074  88.240 119.313  0.00  0.00    -0.311 N 
ATOM     14  C   LIG d   1      -2.399  88.352 119.251  0.00  0.00     0.210 C 
ATOM     15  C   LIG d   1      -3.157  87.710 120.418  0.00  0.00     0.109 C 
ATOM     16  O   LIG d   1      -3.021  88.894 118.325  0.00  0.00    -0.276 OA
ATOM     17  H   LIG d   1      -0.655  87.756 120.083  0.00  0.00     0.149 HD
ENDBRANCH   6  13
BRANCH   5  18
ATOM     18  N   LIG d   1       0.427  86.606 117.212  0.00  0.00     0.381 N 
ATOM     19  H   LIG d   1       0.536  85.814 117.813  0.00  0.00    -0.090 HD
ATOM     20  H   LIG d   1       0.955  86.441 116.373  0.00  0.00    -0.090 HD
ATOM     21  H   LIG d   1      -0.536  86.732 116.987  0.00  0.00    -0.090 HD
ENDBRANCH   5  18
BRANCH   3  22
ATOM     22  C   LIG d   1       3.626  90.161 116.946  0.00  0.00     0.382 C 
ATOM     23  O   LIG d   1       4.123  91.211 117.419  0.00  0.00    -0.241 OA
ATOM     24  O   LIG d   1       4.249  89.526 116.074  0.00  0.00    -0.241 OA
ENDBRANCH   3  22
TORSDOF 7
ENDMDL
