MODEL 1
REMARK VINA RESULT:      -5.3      0.000      0.000
REMARK  7 active torsions:
REMARK  status: ('A' for Active; 'I' for Inactive)
REMARK    1  A    between atoms: C_2  and  C_3 
REMARK    2  A    between atoms: C_3  and  O_6 
REMARK    3  A    between atoms: C_3  and  C_4 
REMARK    4  A    between atoms: C_7  and  O_6 
REMARK    5  A    between atoms: C_9  and  C_10 
REMARK    6  A    between atoms: N_15  and  C_14 
REMARK    7  A    between atoms: N_20  and  C_19 
REMARK       I    between atoms: C_22  and  N_20 
ROOT
ATOM      1  C   LIG d   1      -6.324  93.325 118.404  0.00  0.00     0.161 C 
ATOM      2  C   LIG d   1      -7.071  92.363 117.705  0.00  0.00     0.016 C 
ATOM      3  C   LIG d   1      -6.489  91.267 117.028  0.00  0.00     0.038 C 
ATOM      4  C   LIG d   1      -5.122  90.973 117.131  0.00  0.00     0.028 C 
ATOM      5  C   LIG d   1      -4.258  92.198 117.409  0.00  0.00    -0.047 C 
ATOM      6  C   LIG d   1      -4.840  92.959 118.622  0.00  0.00     0.091 C 
ENDROOT
BRANCH   1   7
ATOM      7  O   LIG d   1      -6.958  93.615 119.666  0.00  0.00    -0.368 OA
BRANCH   7   8
ATOM      8  C   LIG d   1      -7.580  94.919 119.782  0.00  0.00     0.119 C 
BRANCH   8   9
ATOM      9  C   LIG d   1      -9.106  94.708 119.749  0.00  0.00     0.028 C 
ATOM     10  C   LIG d   1      -9.583  93.704 120.812  0.00  0.00     0.006 C 
ENDBRANCH   8   9
BRANCH   8  11
ATOM     11  C   LIG d   1      -7.265  95.796 118.567  0.00  0.00     0.028 C 
ATOM     12  C   LIG d   1      -8.432  96.718 118.180  0.00  0.00     0.006 C 
ENDBRANCH   8  11
ENDBRANCH   7   8
ENDBRANCH   1   7
BRANCH   6  13
ATOM     13  N   LIG d   1      -4.104  94.218 118.909  0.00  0.00    -0.311 N 
ATOM     14  C   LIG d   1      -3.101  94.297 119.781  0.00  0.00     0.210 C 
ATOM     15  C   LIG d   1      -2.492  95.694 119.941  0.00  0.00     0.109 C 
ATOM     16  O   LIG d   1      -2.636  93.337 120.414  0.00  0.00    -0.276 OA
ATOM     17  H   LIG d   1      -4.395  95.039 118.416  0.00  0.00     0.149 HD
ENDBRANCH   6  13
BRANCH   5  18
ATOM     18  N   LIG d   1      -2.877  91.729 117.630  0.00  0.00     0.381 N 
ATOM     19  H   LIG d   1      -2.406  92.347 118.260  0.00  0.00    -0.090 HD
ATOM     20  H   LIG d   1      -2.386  91.739 116.753  0.00  0.00    -0.090 HD
ATOM     21  H   LIG d   1      -2.886  90.806 118.004  0.00  0.00    -0.090 HD
ENDBRANCH   5  18
BRANCH   3  22
ATOM     22  C   LIG d   1      -7.273  90.474 116.203  0.00  0.00     0.382 C 
ATOM     23  O   LIG d   1      -8.308  89.929 116.657  0.00  0.00    -0.241 OA
ATOM     24  O   LIG d   1      -6.935  90.262 115.023  0.00  0.00    -0.241 OA
ENDBRANCH   3  22
TORSDOF 7
ENDMDL
MODEL 2
REMARK VINA RESULT:      -5.2      1.634      4.657
REMARK  7 active torsions:
REMARK  status: ('A' for Active; 'I' for Inactive)
REMARK    1  A    between atoms: C_2  and  C_3 
REMARK    2  A    between atoms: C_3  and  O_6 
REMARK    3  A    between atoms: C_3  and  C_4 
REMARK    4  A    between atoms: C_7  and  O_6 
REMARK    5  A    between atoms: C_9  and  C_10 
REMARK    6  A    between atoms: N_15  and  C_14 
REMARK    7  A    between atoms: N_20  and  C_19 
REMARK       I    between atoms: C_22  and  N_20 
ROOT
ATOM      1  C   LIG d   1      -6.997  93.003 118.641  0.00  0.00     0.161 C 
ATOM      2  C   LIG d   1      -5.896  93.720 119.135  0.00  0.00     0.016 C 
ATOM      3  C   LIG d   1      -4.553  93.379 118.852  0.00  0.00     0.038 C 
ATOM      4  C   LIG d   1      -4.223  92.379 117.924  0.00  0.00     0.028 C 
ATOM      5  C   LIG d   1      -5.292  91.300 117.790  0.00  0.00    -0.047 C 
ATOM      6  C   LIG d   1      -6.659  91.977 117.538  0.00  0.00     0.091 C 
ENDROOT
BRANCH   1   7
ATOM      7  O   LIG d   1      -8.010  93.919 118.179  0.00  0.00    -0.368 OA
BRANCH   7   8
ATOM      8  C   LIG d   1      -8.229  95.093 118.999  0.00  0.00     0.119 C 
BRANCH   8   9
ATOM      9  C   LIG d   1      -9.640  94.976 119.607  0.00  0.00     0.028 C 
ATOM     10  C   LIG d   1      -9.613  94.479 121.062  0.00  0.00     0.006 C 
ENDBRANCH   8   9
BRANCH   8  11
ATOM     11  C   LIG d   1      -8.256  96.368 118.151  0.00  0.00     0.028 C 
ATOM     12  C   LIG d   1      -9.620  97.075 118.182  0.00  0.00     0.006 C 
ENDBRANCH   8  11
ENDBRANCH   7   8
ENDBRANCH   1   7
BRANCH   6  13
ATOM     13  N   LIG d   1      -7.774  90.997 117.478  0.00  0.00    -0.311 N 
ATOM     14  C   LIG d   1      -8.097  90.320 116.377  0.00  0.00     0.210 C 
ATOM     15  C   LIG d   1      -9.293  89.375 116.527  0.00  0.00     0.109 C 
ATOM     16  O   LIG d   1      -7.487  90.390 115.300  0.00  0.00    -0.276 OA
ATOM     17  H   LIG d   1      -8.303  90.856 118.317  0.00  0.00     0.149 HD
ENDBRANCH   6  13
BRANCH   5  18
ATOM     18  N   LIG d   1      -4.882  90.401 116.695  0.00  0.00     0.381 N 
ATOM     19  H   LIG d   1      -4.549  90.939 115.920  0.00  0.00    -0.090 HD
ATOM     20  H   LIG d   1      -5.682  89.873 116.392  0.00  0.00    -0.090 HD
ATOM     21  H   LIG d   1      -4.167  89.783 117.011  0.00  0.00    -0.090 HD
ENDBRANCH   5  18
BRANCH   3  22
ATOM     22  C   LIG d   1      -3.524  94.014 119.530  0.00  0.00     0.382 C 
ATOM     23  O   LIG d   1      -2.463  94.307 118.927  0.00  0.00    -0.241 OA
ATOM     24  O   LIG d   1      -3.626  94.259 120.746  0.00  0.00    -0.241 OA
ENDBRANCH   3  22
TORSDOF 7
ENDMDL
MODEL 3
REMARK VINA RESULT:      -5.0      2.422      4.893
REMARK  7 active torsions:
REMARK  status: ('A' for Active; 'I' for Inactive)
REMARK    1  A    between atoms: C_2  and  C_3 
REMARK    2  A    between atoms: C_3  and  O_6 
REMARK    3  A    between atoms: C_3  and  C_4 
REMARK    4  A    between atoms: C_7  and  O_6 
REMARK    5  A    between atoms: C_9  and  C_10 
REMARK    6  A    between atoms: N_15  and  C_14 
REMARK    7  A    between atoms: N_20  and  C_19 
REMARK       I    between atoms: C_22  and  N_20 
ROOT
ATOM      1  C   LIG d   1      -4.445  91.327 118.140  0.00  0.00     0.161 C 
ATOM      2  C   LIG d   1      -5.305  90.660 117.252  0.00  0.00     0.016 C 
ATOM      3  C   LIG d   1      -6.470  91.248 116.707  0.00  0.00     0.038 C 
ATOM      4  C   LIG d   1      -6.774  92.604 116.898  0.00  0.00     0.028 C 
ATOM      5  C   LIG d   1      -6.208  93.176 118.193  0.00  0.00    -0.047 C 
ATOM      6  C   LIG d   1      -4.700  92.843 118.272  0.00  0.00     0.091 C 
ENDROOT
BRANCH   1   7
ATOM      7  O   LIG d   1      -3.074  91.081 117.770  0.00  0.00    -0.368 OA
BRANCH   7   8
ATOM      8  C   LIG d   1      -2.517  89.812 118.194  0.00  0.00     0.119 C 
BRANCH   8   9
ATOM      9  C   LIG d   1      -2.597  89.763 119.733  0.00  0.00     0.028 C 
ATOM     10  C   LIG d   1      -3.329  88.510 120.243  0.00  0.00     0.006 C 
ENDBRANCH   8   9
BRANCH   8  11
ATOM     11  C   LIG d   1      -1.025  89.719 117.863  0.00  0.00     0.028 C 
ATOM     12  C   LIG d   1      -0.519  88.269 117.798  0.00  0.00     0.006 C 
ENDBRANCH   8  11
ENDBRANCH   7   8
ENDBRANCH   1   7
BRANCH   6  13
ATOM     13  N   LIG d   1      -4.086  93.294 119.548  0.00  0.00    -0.311 N 
ATOM     14  C   LIG d   1      -2.975  94.025 119.609  0.00  0.00     0.210 C 
ATOM     15  C   LIG d   1      -2.501  94.364 121.025  0.00  0.00     0.109 C 
ATOM     16  O   LIG d   1      -2.355  94.452 118.623  0.00  0.00    -0.276 OA
ATOM     17  H   LIG d   1      -4.542  93.018 120.396  0.00  0.00     0.149 HD
ENDBRANCH   6  13
BRANCH   5  18
ATOM     18  N   LIG d   1      -6.481  94.626 118.197  0.00  0.00     0.381 N 
ATOM     19  H   LIG d   1      -7.462  94.785 118.312  0.00  0.00    -0.090 HD
ATOM     20  H   LIG d   1      -6.200  95.012 117.314  0.00  0.00    -0.090 HD
ATOM     21  H   LIG d   1      -5.977  95.065 118.936  0.00  0.00    -0.090 HD
ENDBRANCH   5  18
BRANCH   3  22
ATOM     22  C   LIG d   1      -7.366  90.466 115.995  0.00  0.00     0.382 C 
ATOM     23  O   LIG d   1      -8.324  89.913 116.587  0.00  0.00    -0.241 OA
ATOM     24  O   LIG d   1      -7.203  90.269 114.776  0.00  0.00    -0.241 OA
ENDBRANCH   3  22
TORSDOF 7
ENDMDL
MODEL 4
REMARK VINA RESULT:      -4.9      2.574      6.564
REMARK  7 active torsions:
REMARK  status: ('A' for Active; 'I' for Inactive)
REMARK    1  A    between atoms: C_2  and  C_3 
REMARK    2  A    between atoms: C_3  and  O_6 
REMARK    3  A    between atoms: C_3  and  C_4 
REMARK    4  A    between atoms: C_7  and  O_6 
REMARK    5  A    between atoms: C_9  and  C_10 
REMARK    6  A    between atoms: N_15  and  C_14 
REMARK    7  A    between atoms: N_20  and  C_19 
REMARK       I    between atoms: C_22  and  N_20 
ROOT
ATOM      1  C   LIG d   1      -4.132  92.249 117.503  0.00  0.00     0.161 C 
ATOM      2  C   LIG d   1      -3.515  92.965 118.543  0.00  0.00     0.016 C 
ATOM      3  C   LIG d   1      -4.234  93.678 119.530  0.00  0.00     0.038 C 
ATOM      4  C   LIG d   1      -5.630  93.598 119.633  0.00  0.00     0.028 C 
ATOM      5  C   LIG d   1      -6.319  93.299 118.306  0.00  0.00    -0.047 C 
ATOM      6  C   LIG d   1      -5.655  92.059 117.664  0.00  0.00     0.091 C 
ENDROOT
BRANCH   1   7
ATOM      7  O   LIG d   1      -3.483  90.974 117.336  0.00  0.00    -0.368 OA
BRANCH   7   8
ATOM      8  C   LIG d   1      -2.601  90.562 118.409  0.00  0.00     0.119 C 
BRANCH   8   9
ATOM      9  C   LIG d   1      -1.271  90.115 117.771  0.00  0.00     0.028 C 
ATOM     10  C   LIG d   1      -1.001  88.614 117.967  0.00  0.00     0.006 C 
ENDBRANCH   8   9
BRANCH   8  11
ATOM     11  C   LIG d   1      -3.141  89.323 119.130  0.00  0.00     0.028 C 
ATOM     12  C   LIG d   1      -3.574  89.615 120.575  0.00  0.00     0.006 C 
ENDBRANCH   8  11
ENDBRANCH   7   8
ENDBRANCH   1   7
BRANCH   6  13
ATOM     13  N   LIG d   1      -6.213  91.747 116.323  0.00  0.00    -0.311 N 
ATOM     14  C   LIG d   1      -7.224  90.902 116.128  0.00  0.00     0.210 C 
ATOM     15  C   LIG d   1      -7.632  90.708 114.664  0.00  0.00     0.109 C 
ATOM     16  O   LIG d   1      -7.843  90.319 117.031  0.00  0.00    -0.276 OA
ATOM     17  H   LIG d   1      -5.791  92.201 115.536  0.00  0.00     0.149 HD
ENDBRANCH   6  13
BRANCH   5  18
ATOM     18  N   LIG d   1      -7.755  93.106 118.583  0.00  0.00     0.381 N 
ATOM     19  H   LIG d   1      -8.257  93.945 118.369  0.00  0.00    -0.090 HD
ATOM     20  H   LIG d   1      -7.874  92.909 119.561  0.00  0.00    -0.090 HD
ATOM     21  H   LIG d   1      -8.110  92.351 118.039  0.00  0.00    -0.090 HD
ENDBRANCH   5  18
BRANCH   3  22
ATOM     22  C   LIG d   1      -3.555  94.514 120.404  0.00  0.00     0.382 C 
ATOM     23  O   LIG d   1      -2.593  94.071 121.076  0.00  0.00    -0.241 OA
ATOM     24  O   LIG d   1      -3.922  95.694 120.561  0.00  0.00    -0.241 OA
ENDBRANCH   3  22
TORSDOF 7
ENDMDL
MODEL 5
REMARK VINA RESULT:      -4.8      2.264      4.328
REMARK  7 active torsions:
REMARK  status: ('A' for Active; 'I' for Inactive)
REMARK    1  A    between atoms: C_2  and  C_3 
REMARK    2  A    between atoms: C_3  and  O_6 
REMARK    3  A    between atoms: C_3  and  C_4 
REMARK    4  A    between atoms: C_7  and  O_6 
REMARK    5  A    between atoms: C_9  and  C_10 
REMARK    6  A    between atoms: N_15  and  C_14 
REMARK    7  A    between atoms: N_20  and  C_19 
REMARK       I    between atoms: C_22  and  N_20 
ROOT
ATOM      1  C   LIG d   1      -5.305  91.817 118.831  0.00  0.00     0.161 C 
ATOM      2  C   LIG d   1      -5.687  91.055 117.714  0.00  0.00     0.016 C 
ATOM      3  C   LIG d   1      -6.538  91.541 116.695  0.00  0.00     0.038 C 
ATOM      4  C   LIG d   1      -6.946  92.882 116.646  0.00  0.00     0.028 C 
ATOM      5  C   LIG d   1      -6.998  93.550 118.016  0.00  0.00    -0.047 C 
ATOM      6  C   LIG d   1      -5.651  93.318 118.738  0.00  0.00     0.091 C 
ENDROOT
BRANCH   1   7
ATOM      7  O   LIG d   1      -3.897  91.642 119.084  0.00  0.00    -0.368 OA
BRANCH   7   8
ATOM      8  C   LIG d   1      -3.008  91.954 117.984  0.00  0.00     0.119 C 
BRANCH   8   9
ATOM      9  C   LIG d   1      -1.988  90.804 117.872  0.00  0.00     0.028 C 
ATOM     10  C   LIG d   1      -2.501  89.501 118.508  0.00  0.00     0.006 C 
ENDBRANCH   8   9
BRANCH   8  11
ATOM     11  C   LIG d   1      -2.177  93.206 118.277  0.00  0.00     0.028 C 
ATOM     12  C   LIG d   1      -1.792  93.333 119.760  0.00  0.00     0.006 C 
ENDBRANCH   8  11
ENDBRANCH   7   8
ENDBRANCH   1   7
BRANCH   6  13
ATOM     13  N   LIG d   1      -5.646  93.867 120.120  0.00  0.00    -0.311 N 
ATOM     14  C   LIG d   1      -5.078  95.026 120.446  0.00  0.00     0.210 C 
ATOM     15  C   LIG d   1      -5.171  95.396 121.930  0.00  0.00     0.109 C 
ATOM     16  O   LIG d   1      -4.535  95.799 119.643  0.00  0.00    -0.276 OA
ATOM     17  H   LIG d   1      -6.093  93.320 120.829  0.00  0.00     0.149 HD
ENDBRANCH   6  13
BRANCH   5  18
ATOM     18  N   LIG d   1      -7.303  94.977 117.805  0.00  0.00     0.381 N 
ATOM     19  H   LIG d   1      -6.495  95.447 117.447  0.00  0.00    -0.090 HD
ATOM     20  H   LIG d   1      -7.543  95.392 118.688  0.00  0.00    -0.090 HD
ATOM     21  H   LIG d   1      -8.062  95.073 117.167  0.00  0.00    -0.090 HD
ENDBRANCH   5  18
BRANCH   3  22
ATOM     22  C   LIG d   1      -7.021  90.670 115.731  0.00  0.00     0.382 C 
ATOM     23  O   LIG d   1      -6.224  89.973 115.058  0.00  0.00    -0.241 OA
ATOM     24  O   LIG d   1      -8.243  90.604 115.494  0.00  0.00    -0.241 OA
ENDBRANCH   3  22
TORSDOF 7
ENDMDL
MODEL 6
REMARK VINA RESULT:      -4.6      1.903      4.648
REMARK  7 active torsions:
REMARK  status: ('A' for Active; 'I' for Inactive)
REMARK    1  A    between atoms: C_2  and  C_3 
REMARK    2  A    between atoms: C_3  and  O_6 
REMARK    3  A    between atoms: C_3  and  C_4 
REMARK    4  A    between atoms: C_7  and  O_6 
REMARK    5  A    between atoms: C_9  and  C_10 
REMARK    6  A    between atoms: N_15  and  C_14 
REMARK    7  A    between atoms: N_20  and  C_19 
REMARK       I    between atoms: C_22  and  N_20 
ROOT
ATOM      1  C   LIG d   1      -6.677  92.957 119.526  0.00  0.00     0.161 C 
ATOM      2  C   LIG d   1      -7.947  93.474 119.220  0.00  0.00     0.016 C 
ATOM      3  C   LIG d   1      -8.189  94.843 118.963  0.00  0.00     0.038 C 
ATOM      4  C   LIG d   1      -7.143  95.771 118.846  0.00  0.00     0.028 C 
ATOM      5  C   LIG d   1      -5.902  95.389 119.644  0.00  0.00    -0.047 C 
ATOM      6  C   LIG d   1      -5.507  93.936 119.294  0.00  0.00     0.091 C 
ENDROOT
BRANCH   1   7
ATOM      7  O   LIG d   1      -6.459  91.733 118.797  0.00  0.00    -0.368 OA
BRANCH   7   8
ATOM      8  C   LIG d   1      -6.239  91.871 117.371  0.00  0.00     0.119 C 
BRANCH   8   9
ATOM      9  C   LIG d   1      -7.136  90.838 116.663  0.00  0.00     0.028 C 
ATOM     10  C   LIG d   1      -6.933  90.832 115.138  0.00  0.00     0.006 C 
ENDBRANCH   8   9
BRANCH   8  11
ATOM     11  C   LIG d   1      -4.805  91.494 116.989  0.00  0.00     0.028 C 
ATOM     12  C   LIG d   1      -4.173  90.488 117.965  0.00  0.00     0.006 C 
ENDBRANCH   8  11
ENDBRANCH   7   8
ENDBRANCH   1   7
BRANCH   6  13
ATOM     13  N   LIG d   1      -4.351  93.454 120.094  0.00  0.00    -0.311 N 
ATOM     14  C   LIG d   1      -3.087  93.550 119.687  0.00  0.00     0.210 C 
ATOM     15  C   LIG d   1      -2.050  92.973 120.656  0.00  0.00     0.109 C 
ATOM     16  O   LIG d   1      -2.723  94.089 118.631  0.00  0.00    -0.276 OA
ATOM     17  H   LIG d   1      -4.554  93.031 120.979  0.00  0.00     0.149 HD
ENDBRANCH   6  13
BRANCH   5  18
ATOM     18  N   LIG d   1      -4.846  96.368 119.323  0.00  0.00     0.381 N 
ATOM     19  H   LIG d   1      -4.705  96.981 120.101  0.00  0.00    -0.090 HD
ATOM     20  H   LIG d   1      -5.143  96.919 118.537  0.00  0.00    -0.090 HD
ATOM     21  H   LIG d   1      -3.997  95.895 119.106  0.00  0.00    -0.090 HD
ENDBRANCH   5  18
BRANCH   3  22
ATOM     22  C   LIG d   1      -9.493  95.303 118.860  0.00  0.00     0.382 C 
ATOM     23  O   LIG d   1      -9.798  96.124 117.962  0.00  0.00    -0.241 OA
ATOM     24  O   LIG d   1     -10.357  94.941 119.680  0.00  0.00    -0.241 OA
ENDBRANCH   3  22
TORSDOF 7
ENDMDL
MODEL 7
REMARK VINA RESULT:      -4.5      2.315      5.053
REMARK  7 active torsions:
REMARK  status: ('A' for Active; 'I' for Inactive)
REMARK    1  A    between atoms: C_2  and  C_3 
REMARK    2  A    between atoms: C_3  and  O_6 
REMARK    3  A    between atoms: C_3  and  C_4 
REMARK    4  A    between atoms: C_7  and  O_6 
REMARK    5  A    between atoms: C_9  and  C_10 
REMARK    6  A    between atoms: N_15  and  C_14 
REMARK    7  A    between atoms: N_20  and  C_19 
REMARK       I    between atoms: C_22  and  N_20 
ROOT
ATOM      1  C   LIG d   1      -7.322  93.796 119.130  0.00  0.00     0.161 C 
ATOM      2  C   LIG d   1      -8.712  93.729 119.321  0.00  0.00     0.016 C 
ATOM      3  C   LIG d   1      -9.421  94.588 120.192  0.00  0.00     0.038 C 
ATOM      4  C   LIG d   1      -8.803  95.679 120.822  0.00  0.00     0.028 C 
ATOM      5  C   LIG d   1      -7.309  95.478 121.054  0.00  0.00    -0.047 C 
ATOM      6  C   LIG d   1      -6.648  95.051 119.724  0.00  0.00     0.091 C 
ENDROOT
BRANCH   1   7
ATOM      7  O   LIG d   1      -7.015  93.679 117.727  0.00  0.00    -0.368 OA
BRANCH   7   8
ATOM      8  C   LIG d   1      -6.950  92.331 117.200  0.00  0.00     0.119 C 
BRANCH   8   9
ATOM      9  C   LIG d   1      -5.767  91.621 117.887  0.00  0.00     0.028 C 
ATOM     10  C   LIG d   1      -4.406  92.179 117.437  0.00  0.00     0.006 C 
ENDBRANCH   8   9
BRANCH   8  11
ATOM     11  C   LIG d   1      -6.609  92.332 115.706  0.00  0.00     0.028 C 
ATOM     12  C   LIG d   1      -7.058  91.048 114.991  0.00  0.00     0.006 C 
ENDBRANCH   8  11
ENDBRANCH   7   8
ENDBRANCH   1   7
BRANCH   6  13
ATOM     13  N   LIG d   1      -5.201  94.752 119.881  0.00  0.00    -0.311 N 
ATOM     14  C   LIG d   1      -4.240  95.654 119.684  0.00  0.00     0.210 C 
ATOM     15  C   LIG d   1      -2.813  95.132 119.880  0.00  0.00     0.109 C 
ATOM     16  O   LIG d   1      -4.436  96.845 119.398  0.00  0.00    -0.276 OA
ATOM     17  H   LIG d   1      -4.953  93.818 120.141  0.00  0.00     0.149 HD
ENDBRANCH   6  13
BRANCH   5  18
ATOM     18  N   LIG d   1      -6.768  96.742 121.589  0.00  0.00     0.381 N 
ATOM     19  H   LIG d   1      -7.305  97.513 121.246  0.00  0.00    -0.090 HD
ATOM     20  H   LIG d   1      -5.821  96.850 121.270  0.00  0.00    -0.090 HD
ATOM     21  H   LIG d   1      -6.791  96.728 122.585  0.00  0.00    -0.090 HD
ENDBRANCH   5  18
BRANCH   3  22
ATOM     22  C   LIG d   1     -10.755  94.335 120.472  0.00  0.00     0.382 C 
ATOM     23  O   LIG d   1     -11.077  93.306 121.113  0.00  0.00    -0.241 OA
ATOM     24  O   LIG d   1     -11.645  95.100 120.052  0.00  0.00    -0.241 OA
ENDBRANCH   3  22
TORSDOF 7
ENDMDL
MODEL 8
REMARK VINA RESULT:      -4.2      4.477      7.883
REMARK  7 active torsions:
REMARK  status: ('A' for Active; 'I' for Inactive)
REMARK    1  A    between atoms: C_2  and  C_3 
REMARK    2  A    between atoms: C_3  and  O_6 
REMARK    3  A    between atoms: C_3  and  C_4 
REMARK    4  A    between atoms: C_7  and  O_6 
REMARK    5  A    between atoms: C_9  and  C_10 
REMARK    6  A    between atoms: N_15  and  C_14 
REMARK    7  A    between atoms: N_20  and  C_19 
REMARK       I    between atoms: C_22  and  N_20 
ROOT
ATOM      1  C   LIG d   1      -0.364  90.986 118.431  0.00  0.00     0.161 C 
ATOM      2  C   LIG d   1       1.017  91.166 118.614  0.00  0.00     0.016 C 
ATOM      3  C   LIG d   1       1.678  92.395 118.388  0.00  0.00     0.038 C 
ATOM      4  C   LIG d   1       0.974  93.575 118.106  0.00  0.00     0.028 C 
ATOM      5  C   LIG d   1      -0.365  93.331 117.418  0.00  0.00    -0.047 C 
ATOM      6  C   LIG d   1      -1.165  92.289 118.231  0.00  0.00     0.091 C 
ENDROOT
BRANCH   1   7
ATOM      7  O   LIG d   1      -0.907  90.226 119.529  0.00  0.00    -0.368 OA
BRANCH   7   8
ATOM      8  C   LIG d   1      -1.316  88.870 119.226  0.00  0.00     0.119 C 
BRANCH   8   9
ATOM      9  C   LIG d   1      -0.902  88.576 117.770  0.00  0.00     0.028 C 
ATOM     10  C   LIG d   1       0.069  87.389 117.664  0.00  0.00     0.006 C 
ENDBRANCH   8   9
BRANCH   8  11
ATOM     11  C   LIG d   1      -2.840  88.728 119.250  0.00  0.00     0.028 C 
ATOM     12  C   LIG d   1      -3.507  89.644 120.289  0.00  0.00     0.006 C 
ENDBRANCH   8  11
ENDBRANCH   7   8
ENDBRANCH   1   7
BRANCH   6  13
ATOM     13  N   LIG d   1      -2.453  91.930 117.582  0.00  0.00    -0.311 N 
ATOM     14  C   LIG d   1      -3.616  92.496 117.898  0.00  0.00     0.210 C 
ATOM     15  C   LIG d   1      -4.826  91.965 117.122  0.00  0.00     0.109 C 
ATOM     16  O   LIG d   1      -3.757  93.409 118.725  0.00  0.00    -0.276 OA
ATOM     17  H   LIG d   1      -2.426  91.219 116.877  0.00  0.00     0.149 HD
ENDBRANCH   6  13
BRANCH   5  18
ATOM     18  N   LIG d   1      -1.053  94.631 117.308  0.00  0.00     0.381 N 
ATOM     19  H   LIG d   1      -1.103  95.065 118.208  0.00  0.00    -0.090 HD
ATOM     20  H   LIG d   1      -1.990  94.477 116.980  0.00  0.00    -0.090 HD
ATOM     21  H   LIG d   1      -0.564  95.223 116.673  0.00  0.00    -0.090 HD
ENDBRANCH   5  18
BRANCH   3  22
ATOM     22  C   LIG d   1       3.064  92.443 118.404  0.00  0.00     0.382 C 
ATOM     23  O   LIG d   1       3.692  92.762 117.365  0.00  0.00    -0.241 OA
ATOM     24  O   LIG d   1       3.696  92.129 119.430  0.00  0.00    -0.241 OA
ENDBRANCH   3  22
TORSDOF 7
ENDMDL
MODEL 9
REMARK VINA RESULT:      -4.2      2.790      4.327
REMARK  7 active torsions:
REMARK  status: ('A' for Active; 'I' for Inactive)
REMARK    1  A    between atoms: C_2  and  C_3 
REMARK    2  A    between atoms: C_3  and  O_6 
REMARK    3  A    between atoms: C_3  and  C_4 
REMARK    4  A    between atoms: C_7  and  O_6 
REMARK    5  A    between atoms: C_9  and  C_10 
REMARK    6  A    between atoms: N_15  and  C_14 
REMARK    7  A    between atoms: N_20  and  C_19 
REMARK       I    between atoms: C_22  and  N_20 
ROOT
ATOM      1  C   LIG d   1      -3.449  92.450 117.801  0.00  0.00     0.161 C 
ATOM      2  C   LIG d   1      -3.245  91.060 117.840  0.00  0.00     0.016 C 
ATOM      3  C   LIG d   1      -2.148  90.453 118.493  0.00  0.00     0.038 C 
ATOM      4  C   LIG d   1      -1.256  91.191 119.285  0.00  0.00     0.028 C 
ATOM      5  C   LIG d   1      -1.132  92.650 118.860  0.00  0.00    -0.047 C 
ATOM      6  C   LIG d   1      -2.548  93.263 118.754  0.00  0.00     0.091 C 
ENDROOT
BRANCH   1   7
ATOM      7  O   LIG d   1      -4.837  92.746 118.050  0.00  0.00    -0.368 OA
BRANCH   7   8
ATOM      8  C   LIG d   1      -5.797  91.809 117.504  0.00  0.00     0.119 C 
BRANCH   8   9
ATOM      9  C   LIG d   1      -6.391  92.442 116.231  0.00  0.00     0.028 C 
ATOM     10  C   LIG d   1      -6.527  91.430 115.081  0.00  0.00     0.006 C 
ENDBRANCH   8   9
BRANCH   8  11
ATOM     11  C   LIG d   1      -6.985  91.613 118.451  0.00  0.00     0.028 C 
ATOM     12  C   LIG d   1      -7.575  92.941 118.950  0.00  0.00     0.006 C 
ENDBRANCH   8  11
ENDBRANCH   7   8
ENDBRANCH   1   7
BRANCH   6  13
ATOM     13  N   LIG d   1      -2.523  94.665 118.262  0.00  0.00    -0.311 N 
ATOM     14  C   LIG d   1      -2.479  95.724 119.068  0.00  0.00     0.210 C 
ATOM     15  C   LIG d   1      -2.480  97.080 118.355  0.00  0.00     0.109 C 
ATOM     16  O   LIG d   1      -2.407  95.669 120.305  0.00  0.00    -0.276 OA
ATOM     17  H   LIG d   1      -2.547  94.801 117.270  0.00  0.00     0.149 HD
ENDBRANCH   6  13
BRANCH   5  18
ATOM     18  N   LIG d   1      -0.280  93.333 119.852  0.00  0.00     0.381 N 
ATOM     19  H   LIG d   1       0.524  92.772 120.051  0.00  0.00    -0.090 HD
ATOM     20  H   LIG d   1      -0.802  93.449 120.704  0.00  0.00    -0.090 HD
ATOM     21  H   LIG d   1       0.004  94.222 119.504  0.00  0.00    -0.090 HD
ENDBRANCH   5  18
BRANCH   3  22
ATOM     22  C   LIG d   1      -1.911  89.097 118.323  0.00  0.00     0.382 C 
ATOM     23  O   LIG d   1      -1.101  88.707 117.449  0.00  0.00    -0.241 OA
ATOM     24  O   LIG d   1      -2.532  88.258 119.003  0.00  0.00    -0.241 OA
ENDBRANCH   3  22
TORSDOF 7
ENDMDL
