MODEL 1
REMARK VINA RESULT:      -5.3      0.000      0.000
REMARK  7 active torsions:
REMARK  status: ('A' for Active; 'I' for Inactive)
REMARK    1  A    between atoms: C_2  and  C_3 
REMARK    2  A    between atoms: C_3  and  O_6 
REMARK    3  A    between atoms: C_3  and  C_4 
REMARK    4  A    between atoms: C_7  and  O_6 
REMARK    5  A    between atoms: C_9  and  C_10 
REMARK    6  A    between atoms: N_15  and  C_14 
REMARK    7  A    between atoms: N_20  and  C_19 
REMARK       I    between atoms: C_22  and  N_20 
ROOT
ATOM      1  C   LIG d   1      -3.519  90.475 117.662  0.00  0.00     0.161 C 
ATOM      2  C   LIG d   1      -4.528  90.188 116.727  0.00  0.00     0.016 C 
ATOM      3  C   LIG d   1      -5.584  91.078 116.426  0.00  0.00     0.038 C 
ATOM      4  C   LIG d   1      -5.619  92.386 116.931  0.00  0.00     0.028 C 
ATOM      5  C   LIG d   1      -4.899  92.539 118.267  0.00  0.00    -0.047 C 
ATOM      6  C   LIG d   1      -3.479  91.941 118.142  0.00  0.00     0.091 C 
ENDROOT
BRANCH   1   7
ATOM      7  O   LIG d   1      -2.237  90.085 117.132  0.00  0.00    -0.368 OA
BRANCH   7   8
ATOM      8  C   LIG d   1      -1.785  88.752 117.473  0.00  0.00     0.119 C 
BRANCH   8   9
ATOM      9  C   LIG d   1      -2.034  88.549 118.980  0.00  0.00     0.028 C 
ATOM     10  C   LIG d   1      -0.730  88.536 119.794  0.00  0.00     0.006 C 
ENDBRANCH   8   9
BRANCH   8  11
ATOM     11  C   LIG d   1      -0.270  88.613 117.290  0.00  0.00     0.028 C 
ATOM     12  C   LIG d   1       0.111  87.957 115.954  0.00  0.00     0.006 C 
ENDBRANCH   8  11
ENDBRANCH   7   8
ENDBRANCH   1   7
BRANCH   6  13
ATOM     13  N   LIG d   1      -2.735  91.973 119.428  0.00  0.00    -0.311 N 
ATOM     14  C   LIG d   1      -1.466  92.365 119.531  0.00  0.00     0.210 C 
ATOM     15  C   LIG d   1      -0.884  92.303 120.947  0.00  0.00     0.109 C 
ATOM     16  O   LIG d   1      -0.778  92.789 118.591  0.00  0.00    -0.276 OA
ATOM     17  H   LIG d   1      -3.227  91.675 120.247  0.00  0.00     0.149 HD
ENDBRANCH   6  13
BRANCH   5  18
ATOM     18  N   LIG d   1      -4.893  93.974 118.609  0.00  0.00     0.381 N 
ATOM     19  H   LIG d   1      -5.802  94.251 118.922  0.00  0.00    -0.090 HD
ATOM     20  H   LIG d   1      -4.669  94.504 117.785  0.00  0.00    -0.090 HD
ATOM     21  H   LIG d   1      -4.220  94.152 119.321  0.00  0.00    -0.090 HD
ENDBRANCH   5  18
BRANCH   3  22
ATOM     22  C   LIG d   1      -6.643  90.648 115.640  0.00  0.00     0.382 C 
ATOM     23  O   LIG d   1      -7.270  91.469 114.928  0.00  0.00    -0.241 OA
ATOM     24  O   LIG d   1      -7.006  89.457 115.667  0.00  0.00    -0.241 OA
ENDBRANCH   3  22
TORSDOF 7
ENDMDL
MODEL 2
REMARK VINA RESULT:      -5.3      2.338      4.348
REMARK  7 active torsions:
REMARK  status: ('A' for Active; 'I' for Inactive)
REMARK    1  A    between atoms: C_2  and  C_3 
REMARK    2  A    between atoms: C_3  and  O_6 
REMARK    3  A    between atoms: C_3  and  C_4 
REMARK    4  A    between atoms: C_7  and  O_6 
REMARK    5  A    between atoms: C_9  and  C_10 
REMARK    6  A    between atoms: N_15  and  C_14 
REMARK    7  A    between atoms: N_20  and  C_19 
REMARK       I    between atoms: C_22  and  N_20 
ROOT
ATOM      1  C   LIG d   1      -4.218  92.287 116.903  0.00  0.00     0.161 C 
ATOM      2  C   LIG d   1      -5.537  92.033 116.490  0.00  0.00     0.016 C 
ATOM      3  C   LIG d   1      -5.968  90.782 115.990  0.00  0.00     0.038 C 
ATOM      4  C   LIG d   1      -5.140  89.650 116.013  0.00  0.00     0.028 C 
ATOM      5  C   LIG d   1      -3.654  89.984 115.951  0.00  0.00    -0.047 C 
ATOM      6  C   LIG d   1      -3.330  91.033 117.039  0.00  0.00     0.091 C 
ENDROOT
BRANCH   1   7
ATOM      7  O   LIG d   1      -4.229  93.030 118.139  0.00  0.00    -0.368 OA
BRANCH   7   8
ATOM      8  C   LIG d   1      -5.231  92.639 119.109  0.00  0.00     0.119 C 
BRANCH   8   9
ATOM      9  C   LIG d   1      -5.822  93.930 119.709  0.00  0.00     0.028 C 
ATOM     10  C   LIG d   1      -7.069  94.413 118.949  0.00  0.00     0.006 C 
ENDBRANCH   8   9
BRANCH   8  11
ATOM     11  C   LIG d   1      -4.603  91.893 120.290  0.00  0.00     0.028 C 
ATOM     12  C   LIG d   1      -5.497  91.896 121.540  0.00  0.00     0.006 C 
ENDBRANCH   8  11
ENDBRANCH   7   8
ENDBRANCH   1   7
BRANCH   6  13
ATOM     13  N   LIG d   1      -1.913  91.479 116.993  0.00  0.00    -0.311 N 
ATOM     14  C   LIG d   1      -1.083  91.395 118.032  0.00  0.00     0.210 C 
ATOM     15  C   LIG d   1       0.329  91.930 117.776  0.00  0.00     0.109 C 
ATOM     16  O   LIG d   1      -1.374  90.899 119.131  0.00  0.00    -0.276 OA
ATOM     17  H   LIG d   1      -1.584  91.866 116.130  0.00  0.00     0.149 HD
ENDBRANCH   6  13
BRANCH   5  18
ATOM     18  N   LIG d   1      -2.905  88.725 116.121  0.00  0.00     0.381 N 
ATOM     19  H   LIG d   1      -3.544  87.957 116.182  0.00  0.00    -0.090 HD
ATOM     20  H   LIG d   1      -2.384  88.769 116.979  0.00  0.00    -0.090 HD
ATOM     21  H   LIG d   1      -2.285  88.590 115.353  0.00  0.00    -0.090 HD
ENDBRANCH   5  18
BRANCH   3  22
ATOM     22  C   LIG d   1      -7.228  90.666 115.424  0.00  0.00     0.382 C 
ATOM     23  O   LIG d   1      -7.617  91.510 114.582  0.00  0.00    -0.241 OA
ATOM     24  O   LIG d   1      -7.998  89.753 115.778  0.00  0.00    -0.241 OA
ENDBRANCH   3  22
TORSDOF 7
ENDMDL
MODEL 3
REMARK VINA RESULT:      -5.1      1.250      1.857
REMARK  7 active torsions:
REMARK  status: ('A' for Active; 'I' for Inactive)
REMARK    1  A    between atoms: C_2  and  C_3 
REMARK    2  A    between atoms: C_3  and  O_6 
REMARK    3  A    between atoms: C_3  and  C_4 
REMARK    4  A    between atoms: C_7  and  O_6 
REMARK    5  A    between atoms: C_9  and  C_10 
REMARK    6  A    between atoms: N_15  and  C_14 
REMARK    7  A    between atoms: N_20  and  C_19 
REMARK       I    between atoms: C_22  and  N_20 
ROOT
ATOM      1  C   LIG d   1      -3.421  91.037 117.559  0.00  0.00     0.161 C 
ATOM      2  C   LIG d   1      -4.244  90.457 116.578  0.00  0.00     0.016 C 
ATOM      3  C   LIG d   1      -5.480  91.010 116.173  0.00  0.00     0.038 C 
ATOM      4  C   LIG d   1      -5.909  92.270 116.617  0.00  0.00     0.028 C 
ATOM      5  C   LIG d   1      -5.355  92.652 117.985  0.00  0.00    -0.047 C 
ATOM      6  C   LIG d   1      -3.820  92.469 117.973  0.00  0.00     0.091 C 
ENDROOT
BRANCH   1   7
ATOM      7  O   LIG d   1      -2.047  91.005 117.125  0.00  0.00    -0.368 OA
BRANCH   7   8
ATOM      8  C   LIG d   1      -1.149  90.187 117.914  0.00  0.00     0.119 C 
BRANCH   8   9
ATOM      9  C   LIG d   1       0.182  90.086 117.144  0.00  0.00     0.028 C 
ATOM     10  C   LIG d   1       0.462  88.661 116.638  0.00  0.00     0.006 C 
ENDBRANCH   8   9
BRANCH   8  11
ATOM     11  C   LIG d   1      -1.661  88.748 118.028  0.00  0.00     0.028 C 
ATOM     12  C   LIG d   1      -1.843  88.294 119.485  0.00  0.00     0.006 C 
ENDBRANCH   8  11
ENDBRANCH   7   8
ENDBRANCH   1   7
BRANCH   6  13
ATOM     13  N   LIG d   1      -3.206  92.741 119.299  0.00  0.00    -0.311 N 
ATOM     14  C   LIG d   1      -2.669  93.913 119.632  0.00  0.00     0.210 C 
ATOM     15  C   LIG d   1      -2.073  93.974 121.041  0.00  0.00     0.109 C 
ATOM     16  O   LIG d   1      -2.658  94.918 118.905  0.00  0.00    -0.276 OA
ATOM     17  H   LIG d   1      -3.201  91.990 119.961  0.00  0.00     0.149 HD
ENDBRANCH   6  13
BRANCH   5  18
ATOM     18  N   LIG d   1      -5.769  94.041 118.262  0.00  0.00     0.381 N 
ATOM     19  H   LIG d   1      -5.142  94.677 117.812  0.00  0.00    -0.090 HD
ATOM     20  H   LIG d   1      -5.725  94.201 119.252  0.00  0.00    -0.090 HD
ATOM     21  H   LIG d   1      -6.698  94.191 117.934  0.00  0.00    -0.090 HD
ENDBRANCH   5  18
BRANCH   3  22
ATOM     22  C   LIG d   1      -6.321  90.282 115.345  0.00  0.00     0.382 C 
ATOM     23  O   LIG d   1      -7.560  90.294 115.542  0.00  0.00    -0.241 OA
ATOM     24  O   LIG d   1      -5.852  89.577 114.432  0.00  0.00    -0.241 OA
ENDBRANCH   3  22
TORSDOF 7
ENDMDL
MODEL 4
REMARK VINA RESULT:      -4.9      2.469      4.558
REMARK  7 active torsions:
REMARK  status: ('A' for Active; 'I' for Inactive)
REMARK    1  A    between atoms: C_2  and  C_3 
REMARK    2  A    between atoms: C_3  and  O_6 
REMARK    3  A    between atoms: C_3  and  C_4 
REMARK    4  A    between atoms: C_7  and  O_6 
REMARK    5  A    between atoms: C_9  and  C_10 
REMARK    6  A    between atoms: N_15  and  C_14 
REMARK    7  A    between atoms: N_20  and  C_19 
REMARK       I    between atoms: C_22  and  N_20 
ROOT
ATOM      1  C   LIG d   1      -3.249  92.154 117.894  0.00  0.00     0.161 C 
ATOM      2  C   LIG d   1      -3.488  93.236 118.758  0.00  0.00     0.016 C 
ATOM      3  C   LIG d   1      -4.755  93.845 118.910  0.00  0.00     0.038 C 
ATOM      4  C   LIG d   1      -5.910  93.313 118.317  0.00  0.00     0.028 C 
ATOM      5  C   LIG d   1      -5.628  92.529 117.040  0.00  0.00    -0.047 C 
ATOM      6  C   LIG d   1      -4.520  91.489 117.323  0.00  0.00     0.091 C 
ENDROOT
BRANCH   1   7
ATOM      7  O   LIG d   1      -2.425  91.174 118.555  0.00  0.00    -0.368 OA
BRANCH   7   8
ATOM      8  C   LIG d   1      -1.072  91.037 118.054  0.00  0.00     0.119 C 
BRANCH   8   9
ATOM      9  C   LIG d   1      -0.827  89.539 117.788  0.00  0.00     0.028 C 
ATOM     10  C   LIG d   1      -1.976  88.656 118.301  0.00  0.00     0.006 C 
ENDBRANCH   8   9
BRANCH   8  11
ATOM     11  C   LIG d   1      -0.042  91.434 119.115  0.00  0.00     0.028 C 
ATOM     12  C   LIG d   1      -0.625  91.442 120.537  0.00  0.00     0.006 C 
ENDBRANCH   8  11
ENDBRANCH   7   8
ENDBRANCH   1   7
BRANCH   6  13
ATOM     13  N   LIG d   1      -4.125  90.736 116.105  0.00  0.00    -0.311 N 
ATOM     14  C   LIG d   1      -4.734  89.622 115.702  0.00  0.00     0.210 C 
ATOM     15  C   LIG d   1      -4.156  88.992 114.431  0.00  0.00     0.109 C 
ATOM     16  O   LIG d   1      -5.719  89.114 116.258  0.00  0.00    -0.276 OA
ATOM     17  H   LIG d   1      -3.354  91.095 115.576  0.00  0.00     0.149 HD
ENDBRANCH   6  13
BRANCH   5  18
ATOM     18  N   LIG d   1      -6.898  91.916 116.605  0.00  0.00     0.381 N 
ATOM     19  H   LIG d   1      -7.588  92.627 116.469  0.00  0.00    -0.090 HD
ATOM     20  H   LIG d   1      -7.222  91.294 117.325  0.00  0.00    -0.090 HD
ATOM     21  H   LIG d   1      -6.760  91.411 115.757  0.00  0.00    -0.090 HD
ENDBRANCH   5  18
BRANCH   3  22
ATOM     22  C   LIG d   1      -4.868  95.024 119.631  0.00  0.00     0.382 C 
ATOM     23  O   LIG d   1      -3.877  95.785 119.749  0.00  0.00    -0.241 OA
ATOM     24  O   LIG d   1      -5.936  95.316 120.202  0.00  0.00    -0.241 OA
ENDBRANCH   3  22
TORSDOF 7
ENDMDL
MODEL 5
REMARK VINA RESULT:      -4.9      2.576      5.382
REMARK  7 active torsions:
REMARK  status: ('A' for Active; 'I' for Inactive)
REMARK    1  A    between atoms: C_2  and  C_3 
REMARK    2  A    between atoms: C_3  and  O_6 
REMARK    3  A    between atoms: C_3  and  C_4 
REMARK    4  A    between atoms: C_7  and  O_6 
REMARK    5  A    between atoms: C_9  and  C_10 
REMARK    6  A    between atoms: N_15  and  C_14 
REMARK    7  A    between atoms: N_20  and  C_19 
REMARK       I    between atoms: C_22  and  N_20 
ROOT
ATOM      1  C   LIG d   1      -1.755  92.381 118.206  0.00  0.00     0.161 C 
ATOM      2  C   LIG d   1      -0.355  92.402 118.088  0.00  0.00     0.016 C 
ATOM      3  C   LIG d   1       0.398  93.594 117.973  0.00  0.00     0.038 C 
ATOM      4  C   LIG d   1      -0.189  94.859 118.121  0.00  0.00     0.028 C 
ATOM      5  C   LIG d   1      -1.665  94.891 117.737  0.00  0.00    -0.047 C 
ATOM      6  C   LIG d   1      -2.402  93.754 118.482  0.00  0.00     0.091 C 
ENDROOT
BRANCH   1   7
ATOM      7  O   LIG d   1      -2.145  91.431 119.218  0.00  0.00    -0.368 OA
BRANCH   7   8
ATOM      8  C   LIG d   1      -2.902  90.285 118.758  0.00  0.00     0.119 C 
BRANCH   8   9
ATOM      9  C   LIG d   1      -2.001  89.044 118.909  0.00  0.00     0.028 C 
ATOM     10  C   LIG d   1      -1.298  88.666 117.594  0.00  0.00     0.006 C 
ENDBRANCH   8   9
BRANCH   8  11
ATOM     11  C   LIG d   1      -3.209  90.384 117.261  0.00  0.00     0.028 C 
ATOM     12  C   LIG d   1      -4.710  90.267 116.952  0.00  0.00     0.006 C 
ENDBRANCH   8  11
ENDBRANCH   7   8
ENDBRANCH   1   7
BRANCH   6  13
ATOM     13  N   LIG d   1      -3.834  93.662 118.098  0.00  0.00    -0.311 N 
ATOM     14  C   LIG d   1      -4.827  93.588 118.983  0.00  0.00     0.210 C 
ATOM     15  C   LIG d   1      -6.229  93.478 118.376  0.00  0.00     0.109 C 
ATOM     16  O   LIG d   1      -4.682  93.635 120.214  0.00  0.00    -0.276 OA
ATOM     17  H   LIG d   1      -4.045  93.649 117.119  0.00  0.00     0.149 HD
ENDBRANCH   6  13
BRANCH   5  18
ATOM     18  N   LIG d   1      -2.183  96.231 118.070  0.00  0.00     0.381 N 
ATOM     19  H   LIG d   1      -1.631  96.931 117.615  0.00  0.00    -0.090 HD
ATOM     20  H   LIG d   1      -2.112  96.370 119.063  0.00  0.00    -0.090 HD
ATOM     21  H   LIG d   1      -3.134  96.310 117.784  0.00  0.00    -0.090 HD
ENDBRANCH   5  18
BRANCH   3  22
ATOM     22  C   LIG d   1       1.749  93.526 117.666  0.00  0.00     0.382 C 
ATOM     23  O   LIG d   1       2.524  92.861 118.395  0.00  0.00    -0.241 OA
ATOM     24  O   LIG d   1       2.209  94.158 116.697  0.00  0.00    -0.241 OA
ENDBRANCH   3  22
TORSDOF 7
ENDMDL
MODEL 6
REMARK VINA RESULT:      -4.9      2.570      5.502
REMARK  7 active torsions:
REMARK  status: ('A' for Active; 'I' for Inactive)
REMARK    1  A    between atoms: C_2  and  C_3 
REMARK    2  A    between atoms: C_3  and  O_6 
REMARK    3  A    between atoms: C_3  and  C_4 
REMARK    4  A    between atoms: C_7  and  O_6 
REMARK    5  A    between atoms: C_9  and  C_10 
REMARK    6  A    between atoms: N_15  and  C_14 
REMARK    7  A    between atoms: N_20  and  C_19 
REMARK       I    between atoms: C_22  and  N_20 
ROOT
ATOM      1  C   LIG d   1      -1.073  92.038 117.487  0.00  0.00     0.161 C 
ATOM      2  C   LIG d   1       0.291  92.348 117.619  0.00  0.00     0.016 C 
ATOM      3  C   LIG d   1       0.776  93.663 117.806  0.00  0.00     0.038 C 
ATOM      4  C   LIG d   1      -0.087  94.747 118.026  0.00  0.00     0.028 C 
ATOM      5  C   LIG d   1      -1.465  94.562 117.398  0.00  0.00    -0.047 C 
ATOM      6  C   LIG d   1      -2.035  93.193 117.835  0.00  0.00     0.091 C 
ENDROOT
BRANCH   1   7
ATOM      7  O   LIG d   1      -1.388  90.871 118.271  0.00  0.00    -0.368 OA
BRANCH   7   8
ATOM      8  C   LIG d   1      -0.412  89.800 118.240  0.00  0.00     0.119 C 
BRANCH   8   9
ATOM      9  C   LIG d   1      -0.871  88.788 117.172  0.00  0.00     0.028 C 
ATOM     10  C   LIG d   1       0.300  88.250 116.332  0.00  0.00     0.006 C 
ENDBRANCH   8   9
BRANCH   8  11
ATOM     11  C   LIG d   1      -0.397  89.020 119.558  0.00  0.00     0.028 C 
ATOM     12  C   LIG d   1      -1.702  88.249 119.809  0.00  0.00     0.006 C 
ENDBRANCH   8  11
ENDBRANCH   7   8
ENDBRANCH   1   7
BRANCH   6  13
ATOM     13  N   LIG d   1      -3.345  92.896 117.198  0.00  0.00    -0.311 N 
ATOM     14  C   LIG d   1      -4.465  92.688 117.888  0.00  0.00     0.210 C 
ATOM     15  C   LIG d   1      -5.700  92.377 117.037  0.00  0.00     0.109 C 
ATOM     16  O   LIG d   1      -4.560  92.764 119.122  0.00  0.00    -0.276 OA
ATOM     17  H   LIG d   1      -3.365  92.846 116.199  0.00  0.00     0.149 HD
ENDBRANCH   6  13
BRANCH   5  18
ATOM     18  N   LIG d   1      -2.303  95.700 117.821  0.00  0.00     0.381 N 
ATOM     19  H   LIG d   1      -3.212  95.372 118.081  0.00  0.00    -0.090 HD
ATOM     20  H   LIG d   1      -2.406  96.332 117.047  0.00  0.00    -0.090 HD
ATOM     21  H   LIG d   1      -1.878  96.170 118.589  0.00  0.00    -0.090 HD
ENDBRANCH   5  18
BRANCH   3  22
ATOM     22  C   LIG d   1       2.138  93.910 117.734  0.00  0.00     0.382 C 
ATOM     23  O   LIG d   1       2.859  93.749 118.748  0.00  0.00    -0.241 OA
ATOM     24  O   LIG d   1       2.649  94.333 116.679  0.00  0.00    -0.241 OA
ENDBRANCH   3  22
TORSDOF 7
ENDMDL
MODEL 7
REMARK VINA RESULT:      -4.9      1.656      2.069
REMARK  7 active torsions:
REMARK  status: ('A' for Active; 'I' for Inactive)
REMARK    1  A    between atoms: C_2  and  C_3 
REMARK    2  A    between atoms: C_3  and  O_6 
REMARK    3  A    between atoms: C_3  and  C_4 
REMARK    4  A    between atoms: C_7  and  O_6 
REMARK    5  A    between atoms: C_9  and  C_10 
REMARK    6  A    between atoms: N_15  and  C_14 
REMARK    7  A    between atoms: N_20  and  C_19 
REMARK       I    between atoms: C_22  and  N_20 
ROOT
ATOM      1  C   LIG d   1      -2.785  91.460 117.722  0.00  0.00     0.161 C 
ATOM      2  C   LIG d   1      -3.451  90.559 116.874  0.00  0.00     0.016 C 
ATOM      3  C   LIG d   1      -4.790  90.733 116.452  0.00  0.00     0.038 C 
ATOM      4  C   LIG d   1      -5.508  91.906 116.729  0.00  0.00     0.028 C 
ATOM      5  C   LIG d   1      -5.050  92.611 118.001  0.00  0.00    -0.047 C 
ATOM      6  C   LIG d   1      -3.517  92.800 117.945  0.00  0.00     0.091 C 
ENDROOT
BRANCH   1   7
ATOM      7  O   LIG d   1      -1.449  91.693 117.234  0.00  0.00    -0.368 OA
BRANCH   7   8
ATOM      8  C   LIG d   1      -0.398  90.917 117.860  0.00  0.00     0.119 C 
BRANCH   8   9
ATOM      9  C   LIG d   1       0.450  91.885 118.708  0.00  0.00     0.028 C 
ATOM     10  C   LIG d   1       0.212  91.706 120.217  0.00  0.00     0.006 C 
ENDBRANCH   8   9
BRANCH   8  11
ATOM     11  C   LIG d   1       0.565  90.341 116.818  0.00  0.00     0.028 C 
ATOM     12  C   LIG d   1       0.430  88.818 116.658  0.00  0.00     0.006 C 
ENDBRANCH   8  11
ENDBRANCH   7   8
ENDBRANCH   1   7
BRANCH   6  13
ATOM     13  N   LIG d   1      -2.974  93.407 119.188  0.00  0.00    -0.311 N 
ATOM     14  C   LIG d   1      -2.216  94.502 119.199  0.00  0.00     0.210 C 
ATOM     15  C   LIG d   1      -1.745  94.949 120.587  0.00  0.00     0.109 C 
ATOM     16  O   LIG d   1      -1.914  95.164 118.195  0.00  0.00    -0.276 OA
ATOM     17  H   LIG d   1      -3.196  92.952 120.052  0.00  0.00     0.149 HD
ENDBRANCH   6  13
BRANCH   5  18
ATOM     18  N   LIG d   1      -5.787  93.885 118.095  0.00  0.00     0.381 N 
ATOM     19  H   LIG d   1      -5.701  94.259 119.019  0.00  0.00    -0.090 HD
ATOM     20  H   LIG d   1      -6.760  93.712 117.914  0.00  0.00    -0.090 HD
ATOM     21  H   LIG d   1      -5.429  94.536 117.431  0.00  0.00    -0.090 HD
ENDBRANCH   5  18
BRANCH   3  22
ATOM     22  C   LIG d   1      -5.435  89.709 115.777  0.00  0.00     0.382 C 
ATOM     23  O   LIG d   1      -4.892  89.174 114.780  0.00  0.00    -0.241 OA
ATOM     24  O   LIG d   1      -6.574  89.343 116.124  0.00  0.00    -0.241 OA
ENDBRANCH   3  22
TORSDOF 7
ENDMDL
MODEL 8
REMARK VINA RESULT:      -4.8      2.310      4.919
REMARK  7 active torsions:
REMARK  status: ('A' for Active; 'I' for Inactive)
REMARK    1  A    between atoms: C_2  and  C_3 
REMARK    2  A    between atoms: C_3  and  O_6 
REMARK    3  A    between atoms: C_3  and  C_4 
REMARK    4  A    between atoms: C_7  and  O_6 
REMARK    5  A    between atoms: C_9  and  C_10 
REMARK    6  A    between atoms: N_15  and  C_14 
REMARK    7  A    between atoms: N_20  and  C_19 
REMARK       I    between atoms: C_22  and  N_20 
ROOT
ATOM      1  C   LIG d   1      -4.953  92.627 117.649  0.00  0.00     0.161 C 
ATOM      2  C   LIG d   1      -5.925  92.166 116.746  0.00  0.00     0.016 C 
ATOM      3  C   LIG d   1      -5.803  90.958 116.020  0.00  0.00     0.038 C 
ATOM      4  C   LIG d   1      -4.763  90.049 116.264  0.00  0.00     0.028 C 
ATOM      5  C   LIG d   1      -3.496  90.707 116.800  0.00  0.00    -0.047 C 
ATOM      6  C   LIG d   1      -3.865  91.594 118.011  0.00  0.00     0.091 C 
ENDROOT
BRANCH   1   7
ATOM      7  O   LIG d   1      -5.592  93.121 118.843  0.00  0.00    -0.368 OA
BRANCH   7   8
ATOM      8  C   LIG d   1      -5.835  94.549 118.892  0.00  0.00     0.119 C 
BRANCH   8   9
ATOM      9  C   LIG d   1      -4.969  95.127 120.028  0.00  0.00     0.028 C 
ATOM     10  C   LIG d   1      -4.609  94.072 121.087  0.00  0.00     0.006 C 
ENDBRANCH   8   9
BRANCH   8  11
ATOM     11  C   LIG d   1      -7.282  94.854 119.288  0.00  0.00     0.028 C 
ATOM     12  C   LIG d   1      -7.440  96.233 119.948  0.00  0.00     0.006 C 
ENDBRANCH   8  11
ENDBRANCH   7   8
ENDBRANCH   1   7
BRANCH   6  13
ATOM     13  N   LIG d   1      -2.696  92.341 118.544  0.00  0.00    -0.311 N 
ATOM     14  C   LIG d   1      -1.942  91.902 119.550  0.00  0.00     0.210 C 
ATOM     15  C   LIG d   1      -0.798  92.836 119.957  0.00  0.00     0.109 C 
ATOM     16  O   LIG d   1      -2.093  90.813 120.123  0.00  0.00    -0.276 OA
ATOM     17  H   LIG d   1      -2.483  93.221 118.116  0.00  0.00     0.149 HD
ENDBRANCH   6  13
BRANCH   5  18
ATOM     18  N   LIG d   1      -2.544  89.632 117.140  0.00  0.00     0.381 N 
ATOM     19  H   LIG d   1      -2.724  89.301 118.066  0.00  0.00    -0.090 HD
ATOM     20  H   LIG d   1      -1.611  90.004 117.112  0.00  0.00    -0.090 HD
ATOM     21  H   LIG d   1      -2.631  88.883 116.489  0.00  0.00    -0.090 HD
ENDBRANCH   5  18
BRANCH   3  22
ATOM     22  C   LIG d   1      -6.707  90.669 115.010  0.00  0.00     0.382 C 
ATOM     23  O   LIG d   1      -6.665  89.557 114.430  0.00  0.00    -0.241 OA
ATOM     24  O   LIG d   1      -7.536  91.522 114.640  0.00  0.00    -0.241 OA
ENDBRANCH   3  22
TORSDOF 7
ENDMDL
MODEL 9
REMARK VINA RESULT:      -4.7      2.714      3.430
REMARK  7 active torsions:
REMARK  status: ('A' for Active; 'I' for Inactive)
REMARK    1  A    between atoms: C_2  and  C_3 
REMARK    2  A    between atoms: C_3  and  O_6 
REMARK    3  A    between atoms: C_3  and  C_4 
REMARK    4  A    between atoms: C_7  and  O_6 
REMARK    5  A    between atoms: C_9  and  C_10 
REMARK    6  A    between atoms: N_15  and  C_14 
REMARK    7  A    between atoms: N_20  and  C_19 
REMARK       I    between atoms: C_22  and  N_20 
ROOT
ATOM      1  C   LIG d   1      -0.688  91.539 117.589  0.00  0.00     0.161 C 
ATOM      2  C   LIG d   1      -1.916  90.931 117.277  0.00  0.00     0.016 C 
ATOM      3  C   LIG d   1      -3.152  91.618 117.299  0.00  0.00     0.038 C 
ATOM      4  C   LIG d   1      -3.225  93.006 117.490  0.00  0.00     0.028 C 
ATOM      5  C   LIG d   1      -2.066  93.567 118.307  0.00  0.00    -0.047 C 
ATOM      6  C   LIG d   1      -0.735  93.078 117.691  0.00  0.00     0.091 C 
ENDROOT
BRANCH   1   7
ATOM      7  O   LIG d   1       0.315  91.131 116.637  0.00  0.00    -0.368 OA
BRANCH   7   8
ATOM      8  C   LIG d   1       1.257  90.129 117.094  0.00  0.00     0.119 C 
BRANCH   8   9
ATOM      9  C   LIG d   1       2.665  90.750 117.022  0.00  0.00     0.028 C 
ATOM     10  C   LIG d   1       3.114  91.020 115.577  0.00  0.00     0.006 C 
ENDBRANCH   8   9
BRANCH   8  11
ATOM     11  C   LIG d   1       1.295  88.927 116.146  0.00  0.00     0.028 C 
ATOM     12  C   LIG d   1       0.021  88.070 116.217  0.00  0.00     0.006 C 
ENDBRANCH   8  11
ENDBRANCH   7   8
ENDBRANCH   1   7
BRANCH   6  13
ATOM     13  N   LIG d   1       0.447  93.513 118.478  0.00  0.00    -0.311 N 
ATOM     14  C   LIG d   1       1.533  94.056 117.931  0.00  0.00     0.210 C 
ATOM     15  C   LIG d   1       2.646  94.415 118.921  0.00  0.00     0.109 C 
ATOM     16  O   LIG d   1       1.668  94.304 116.723  0.00  0.00    -0.276 OA
ATOM     17  H   LIG d   1       0.411  93.377 119.470  0.00  0.00     0.149 HD
ENDBRANCH   6  13
BRANCH   5  18
ATOM     18  N   LIG d   1      -2.195  95.037 118.311  0.00  0.00     0.381 N 
ATOM     19  H   LIG d   1      -1.324  95.454 118.051  0.00  0.00    -0.090 HD
ATOM     20  H   LIG d   1      -2.424  95.340 119.241  0.00  0.00    -0.090 HD
ATOM     21  H   LIG d   1      -2.909  95.318 117.676  0.00  0.00    -0.090 HD
ENDBRANCH   5  18
BRANCH   3  22
ATOM     22  C   LIG d   1      -4.335  90.907 117.169  0.00  0.00     0.382 C 
ATOM     23  O   LIG d   1      -5.424  91.519 117.048  0.00  0.00    -0.241 OA
ATOM     24  O   LIG d   1      -4.333  89.662 117.215  0.00  0.00    -0.241 OA
ENDBRANCH   3  22
TORSDOF 7
ENDMDL
