MODEL 1
REMARK VINA RESULT:      -5.4      0.000      0.000
REMARK  7 active torsions:
REMARK  status: ('A' for Active; 'I' for Inactive)
REMARK    1  A    between atoms: C_2  and  C_3 
REMARK    2  A    between atoms: C_3  and  O_6 
REMARK    3  A    between atoms: C_3  and  C_4 
REMARK    4  A    between atoms: C_7  and  O_6 
REMARK    5  A    between atoms: C_9  and  C_10 
REMARK    6  A    between atoms: N_15  and  C_14 
REMARK    7  A    between atoms: N_20  and  C_19 
REMARK       I    between atoms: C_22  and  N_20 
ROOT
ATOM      1  C   LIG d   1      -6.003  93.125 118.428  0.00  0.00     0.161 C 
ATOM      2  C   LIG d   1      -4.959  93.956 118.868  0.00  0.00     0.016 C 
ATOM      3  C   LIG d   1      -3.604  93.754 118.517  0.00  0.00     0.038 C 
ATOM      4  C   LIG d   1      -3.218  92.790 117.574  0.00  0.00     0.028 C 
ATOM      5  C   LIG d   1      -4.175  91.605 117.493  0.00  0.00    -0.047 C 
ATOM      6  C   LIG d   1      -5.616  92.135 117.310  0.00  0.00     0.091 C 
ENDROOT
BRANCH   1   7
ATOM      7  O   LIG d   1      -7.128  93.929 118.018  0.00  0.00    -0.368 OA
BRANCH   7   8
ATOM      8  C   LIG d   1      -7.472  95.034 118.889  0.00  0.00     0.119 C 
BRANCH   8   9
ATOM      9  C   LIG d   1      -8.843  94.718 119.518  0.00  0.00     0.028 C 
ATOM     10  C   LIG d   1      -8.720  94.184 120.955  0.00  0.00     0.006 C 
ENDBRANCH   8   9
BRANCH   8  11
ATOM     11  C   LIG d   1      -7.680  96.326 118.094  0.00  0.00     0.028 C 
ATOM     12  C   LIG d   1      -6.563  97.356 118.328  0.00  0.00     0.006 C 
ENDBRANCH   8  11
ENDBRANCH   7   8
ENDBRANCH   1   7
BRANCH   6  13
ATOM     13  N   LIG d   1      -6.624  91.044 117.306  0.00  0.00    -0.311 N 
ATOM     14  C   LIG d   1      -7.011  90.408 116.201  0.00  0.00     0.210 C 
ATOM     15  C   LIG d   1      -8.077  89.329 116.416  0.00  0.00     0.109 C 
ATOM     16  O   LIG d   1      -6.550  90.613 115.069  0.00  0.00    -0.276 OA
ATOM     17  H   LIG d   1      -7.028  90.792 118.187  0.00  0.00     0.149 HD
ENDBRANCH   6  13
BRANCH   5  18
ATOM     18  N   LIG d   1      -3.729  90.748 116.378  0.00  0.00     0.381 N 
ATOM     19  H   LIG d   1      -3.875  91.220 115.508  0.00  0.00    -0.090 HD
ATOM     20  H   LIG d   1      -4.277  89.906 116.377  0.00  0.00    -0.090 HD
ATOM     21  H   LIG d   1      -2.764  90.525 116.485  0.00  0.00    -0.090 HD
ENDBRANCH   5  18
BRANCH   3  22
ATOM     22  C   LIG d   1      -2.615  94.497 119.143  0.00  0.00     0.382 C 
ATOM     23  O   LIG d   1      -2.580  95.743 118.999  0.00  0.00    -0.241 OA
ATOM     24  O   LIG d   1      -1.730  93.932 119.814  0.00  0.00    -0.241 OA
ENDBRANCH   3  22
TORSDOF 7
ENDMDL
MODEL 2
REMARK VINA RESULT:      -5.3      1.622      4.873
REMARK  7 active torsions:
REMARK  status: ('A' for Active; 'I' for Inactive)
REMARK    1  A    between atoms: C_2  and  C_3 
REMARK    2  A    between atoms: C_3  and  O_6 
REMARK    3  A    between atoms: C_3  and  C_4 
REMARK    4  A    between atoms: C_7  and  O_6 
REMARK    5  A    between atoms: C_9  and  C_10 
REMARK    6  A    between atoms: N_15  and  C_14 
REMARK    7  A    between atoms: N_20  and  C_19 
REMARK       I    between atoms: C_22  and  N_20 
ROOT
ATOM      1  C   LIG d   1      -5.547  92.892 117.448  0.00  0.00     0.161 C 
ATOM      2  C   LIG d   1      -6.495  91.942 117.032  0.00  0.00     0.016 C 
ATOM      3  C   LIG d   1      -6.151  90.648 116.578  0.00  0.00     0.038 C 
ATOM      4  C   LIG d   1      -4.838  90.160 116.652  0.00  0.00     0.028 C 
ATOM      5  C   LIG d   1      -3.780  91.257 116.592  0.00  0.00    -0.047 C 
ATOM      6  C   LIG d   1      -4.119  92.340 117.641  0.00  0.00     0.091 C 
ENDROOT
BRANCH   1   7
ATOM      7  O   LIG d   1      -6.001  93.540 118.653  0.00  0.00    -0.368 OA
BRANCH   7   8
ATOM      8  C   LIG d   1      -6.342  94.943 118.533  0.00  0.00     0.119 C 
BRANCH   8   9
ATOM      9  C   LIG d   1      -5.720  95.675 119.737  0.00  0.00     0.028 C 
ATOM     10  C   LIG d   1      -4.817  96.845 119.310  0.00  0.00     0.006 C 
ENDBRANCH   8   9
BRANCH   8  11
ATOM     11  C   LIG d   1      -7.853  95.162 118.662  0.00  0.00     0.028 C 
ATOM     12  C   LIG d   1      -8.304  96.530 118.127  0.00  0.00     0.006 C 
ENDBRANCH   8  11
ENDBRANCH   7   8
ENDBRANCH   1   7
BRANCH   6  13
ATOM     13  N   LIG d   1      -3.181  93.491 117.591  0.00  0.00    -0.311 N 
ATOM     14  C   LIG d   1      -2.523  93.948 118.655  0.00  0.00     0.210 C 
ATOM     15  C   LIG d   1      -1.621  95.157 118.388  0.00  0.00     0.109 C 
ATOM     16  O   LIG d   1      -2.576  93.446 119.788  0.00  0.00    -0.276 OA
ATOM     17  H   LIG d   1      -3.055  93.938 116.704  0.00  0.00     0.149 HD
ENDBRANCH   6  13
BRANCH   5  18
ATOM     18  N   LIG d   1      -2.468  90.623 116.818  0.00  0.00     0.381 N 
ATOM     19  H   LIG d   1      -2.239  90.032 116.044  0.00  0.00    -0.090 HD
ATOM     20  H   LIG d   1      -2.520  90.054 117.645  0.00  0.00    -0.090 HD
ATOM     21  H   LIG d   1      -1.766  91.322 116.930  0.00  0.00    -0.090 HD
ENDBRANCH   5  18
BRANCH   3  22
ATOM     22  C   LIG d   1      -7.122  89.841 116.005  0.00  0.00     0.382 C 
ATOM     23  O   LIG d   1      -7.871  89.146 116.734  0.00  0.00    -0.241 OA
ATOM     24  O   LIG d   1      -7.230  89.764 114.766  0.00  0.00    -0.241 OA
ENDBRANCH   3  22
TORSDOF 7
ENDMDL
MODEL 3
REMARK VINA RESULT:      -5.2      2.337      5.462
REMARK  7 active torsions:
REMARK  status: ('A' for Active; 'I' for Inactive)
REMARK    1  A    between atoms: C_2  and  C_3 
REMARK    2  A    between atoms: C_3  and  O_6 
REMARK    3  A    between atoms: C_3  and  C_4 
REMARK    4  A    between atoms: C_7  and  O_6 
REMARK    5  A    between atoms: C_9  and  C_10 
REMARK    6  A    between atoms: N_15  and  C_14 
REMARK    7  A    between atoms: N_20  and  C_19 
REMARK       I    between atoms: C_22  and  N_20 
ROOT
ATOM      1  C   LIG d   1      -5.521  92.938 117.688  0.00  0.00     0.161 C 
ATOM      2  C   LIG d   1      -6.730  93.649 117.612  0.00  0.00     0.016 C 
ATOM      3  C   LIG d   1      -6.962  94.865 118.295  0.00  0.00     0.038 C 
ATOM      4  C   LIG d   1      -5.941  95.534 118.985  0.00  0.00     0.028 C 
ATOM      5  C   LIG d   1      -4.852  94.603 119.507  0.00  0.00    -0.047 C 
ATOM      6  C   LIG d   1      -4.358  93.709 118.347  0.00  0.00     0.091 C 
ENDROOT
BRANCH   1   7
ATOM      7  O   LIG d   1      -5.139  92.480 116.376  0.00  0.00    -0.368 OA
BRANCH   7   8
ATOM      8  C   LIG d   1      -5.894  91.363 115.846  0.00  0.00     0.119 C 
BRANCH   8   9
ATOM      9  C   LIG d   1      -4.893  90.233 115.538  0.00  0.00     0.028 C 
ATOM     10  C   LIG d   1      -3.929  89.969 116.707  0.00  0.00     0.006 C 
ENDBRANCH   8   9
BRANCH   8  11
ATOM     11  C   LIG d   1      -6.537  91.713 114.500  0.00  0.00     0.028 C 
ATOM     12  C   LIG d   1      -8.022  91.324 114.430  0.00  0.00     0.006 C 
ENDBRANCH   8  11
ENDBRANCH   7   8
ENDBRANCH   1   7
BRANCH   6  13
ATOM     13  N   LIG d   1      -3.350  92.710 118.790  0.00  0.00    -0.311 N 
ATOM     14  C   LIG d   1      -2.094  92.690 118.347  0.00  0.00     0.210 C 
ATOM     15  C   LIG d   1      -1.226  91.564 118.917  0.00  0.00     0.109 C 
ATOM     16  O   LIG d   1      -1.608  93.516 117.560  0.00  0.00    -0.276 OA
ATOM     17  H   LIG d   1      -3.651  92.022 119.452  0.00  0.00     0.149 HD
ENDBRANCH   6  13
BRANCH   5  18
ATOM     18  N   LIG d   1      -3.785  95.444 120.083  0.00  0.00     0.381 N 
ATOM     19  H   LIG d   1      -4.190  96.183 120.622  0.00  0.00    -0.090 HD
ATOM     20  H   LIG d   1      -3.255  95.854 119.335  0.00  0.00    -0.090 HD
ATOM     21  H   LIG d   1      -3.189  94.892 120.659  0.00  0.00    -0.090 HD
ENDBRANCH   5  18
BRANCH   3  22
ATOM     22  C   LIG d   1      -8.240  95.403 118.325  0.00  0.00     0.382 C 
ATOM     23  O   LIG d   1      -8.441  96.563 117.891  0.00  0.00    -0.241 OA
ATOM     24  O   LIG d   1      -9.185  94.760 118.820  0.00  0.00    -0.241 OA
ENDBRANCH   3  22
TORSDOF 7
ENDMDL
MODEL 4
REMARK VINA RESULT:      -5.2      2.751      6.862
REMARK  7 active torsions:
REMARK  status: ('A' for Active; 'I' for Inactive)
REMARK    1  A    between atoms: C_2  and  C_3 
REMARK    2  A    between atoms: C_3  and  O_6 
REMARK    3  A    between atoms: C_3  and  C_4 
REMARK    4  A    between atoms: C_7  and  O_6 
REMARK    5  A    between atoms: C_9  and  C_10 
REMARK    6  A    between atoms: N_15  and  C_14 
REMARK    7  A    between atoms: N_20  and  C_19 
REMARK       I    between atoms: C_22  and  N_20 
ROOT
ATOM      1  C   LIG d   1      -3.667  91.252 117.638  0.00  0.00     0.161 C 
ATOM      2  C   LIG d   1      -4.493  90.453 116.830  0.00  0.00     0.016 C 
ATOM      3  C   LIG d   1      -5.764  90.866 116.368  0.00  0.00     0.038 C 
ATOM      4  C   LIG d   1      -6.233  92.174 116.558  0.00  0.00     0.028 C 
ATOM      5  C   LIG d   1      -5.654  92.851 117.796  0.00  0.00    -0.047 C 
ATOM      6  C   LIG d   1      -4.114  92.724 117.764  0.00  0.00     0.091 C 
ENDROOT
BRANCH   1   7
ATOM      7  O   LIG d   1      -2.307  91.180 117.168  0.00  0.00    -0.368 OA
BRANCH   7   8
ATOM      8  C   LIG d   1      -1.376  90.467 118.019  0.00  0.00     0.119 C 
BRANCH   8   9
ATOM      9  C   LIG d   1      -0.124  91.351 118.179  0.00  0.00     0.028 C 
ATOM     10  C   LIG d   1       0.139  92.225 116.941  0.00  0.00     0.006 C 
ENDBRANCH   8   9
BRANCH   8  11
ATOM     11  C   LIG d   1      -0.881  89.181 117.349  0.00  0.00     0.028 C 
ATOM     12  C   LIG d   1      -1.784  87.972 117.641  0.00  0.00     0.006 C 
ENDBRANCH   8  11
ENDBRANCH   7   8
ENDBRANCH   1   7
BRANCH   6  13
ATOM     13  N   LIG d   1      -3.473  93.286 118.981  0.00  0.00    -0.311 N 
ATOM     14  C   LIG d   1      -2.517  94.212 118.944  0.00  0.00     0.210 C 
ATOM     15  C   LIG d   1      -1.978  94.640 120.313  0.00  0.00     0.109 C 
ATOM     16  O   LIG d   1      -2.085  94.743 117.910  0.00  0.00    -0.276 OA
ATOM     17  H   LIG d   1      -3.785  92.934 119.865  0.00  0.00     0.149 HD
ENDBRANCH   6  13
BRANCH   5  18
ATOM     18  N   LIG d   1      -6.119  94.251 117.797  0.00  0.00     0.381 N 
ATOM     19  H   LIG d   1      -5.351  94.863 117.988  0.00  0.00    -0.090 HD
ATOM     20  H   LIG d   1      -6.803  94.366 118.524  0.00  0.00    -0.090 HD
ATOM     21  H   LIG d   1      -6.521  94.477 116.913  0.00  0.00    -0.090 HD
ENDBRANCH   5  18
BRANCH   3  22
ATOM     22  C   LIG d   1      -6.597  89.952 115.740  0.00  0.00     0.382 C 
ATOM     23  O   LIG d   1      -7.457  89.327 116.406  0.00  0.00    -0.241 OA
ATOM     24  O   LIG d   1      -6.470  89.713 114.524  0.00  0.00    -0.241 OA
ENDBRANCH   3  22
TORSDOF 7
ENDMDL
MODEL 5
REMARK VINA RESULT:      -5.2      2.715      6.457
REMARK  7 active torsions:
REMARK  status: ('A' for Active; 'I' for Inactive)
REMARK    1  A    between atoms: C_2  and  C_3 
REMARK    2  A    between atoms: C_3  and  O_6 
REMARK    3  A    between atoms: C_3  and  C_4 
REMARK    4  A    between atoms: C_7  and  O_6 
REMARK    5  A    between atoms: C_9  and  C_10 
REMARK    6  A    between atoms: N_15  and  C_14 
REMARK    7  A    between atoms: N_20  and  C_19 
REMARK       I    between atoms: C_22  and  N_20 
ROOT
ATOM      1  C   LIG d   1      -4.047  91.418 117.623  0.00  0.00     0.161 C 
ATOM      2  C   LIG d   1      -4.521  90.662 116.538  0.00  0.00     0.016 C 
ATOM      3  C   LIG d   1      -5.674  91.006 115.795  0.00  0.00     0.038 C 
ATOM      4  C   LIG d   1      -6.350  92.219 115.994  0.00  0.00     0.028 C 
ATOM      5  C   LIG d   1      -6.206  92.768 117.409  0.00  0.00    -0.047 C 
ATOM      6  C   LIG d   1      -4.707  92.804 117.784  0.00  0.00     0.091 C 
ENDROOT
BRANCH   1   7
ATOM      7  O   LIG d   1      -2.615  91.553 117.537  0.00  0.00    -0.368 OA
BRANCH   7   8
ATOM      8  C   LIG d   1      -1.840  90.699 118.414  0.00  0.00     0.119 C 
BRANCH   8   9
ATOM      9  C   LIG d   1      -1.310  89.525 117.568  0.00  0.00     0.028 C 
ATOM     10  C   LIG d   1      -1.998  88.194 117.915  0.00  0.00     0.006 C 
ENDBRANCH   8   9
BRANCH   8  11
ATOM     11  C   LIG d   1      -2.723  90.058 119.489  0.00  0.00     0.028 C 
ATOM     12  C   LIG d   1      -2.451  90.617 120.895  0.00  0.00     0.006 C 
ENDBRANCH   8  11
ENDBRANCH   7   8
ENDBRANCH   1   7
BRANCH   6  13
ATOM     13  N   LIG d   1      -4.483  93.249 119.184  0.00  0.00    -0.311 N 
ATOM     14  C   LIG d   1      -3.596  94.182 119.523  0.00  0.00     0.210 C 
ATOM     15  C   LIG d   1      -3.510  94.478 121.024  0.00  0.00     0.109 C 
ATOM     16  O   LIG d   1      -2.895  94.817 118.721  0.00  0.00    -0.276 OA
ATOM     17  H   LIG d   1      -5.032  92.809 119.896  0.00  0.00     0.149 HD
ENDBRANCH   6  13
BRANCH   5  18
ATOM     18  N   LIG d   1      -6.842  94.099 117.438  0.00  0.00     0.381 N 
ATOM     19  H   LIG d   1      -6.318  94.711 118.031  0.00  0.00    -0.090 HD
ATOM     20  H   LIG d   1      -7.768  94.008 117.816  0.00  0.00    -0.090 HD
ATOM     21  H   LIG d   1      -6.887  94.475 116.517  0.00  0.00    -0.090 HD
ENDBRANCH   5  18
BRANCH   3  22
ATOM     22  C   LIG d   1      -6.186  90.111 114.868  0.00  0.00     0.382 C 
ATOM     23  O   LIG d   1      -5.466  89.182 114.430  0.00  0.00    -0.241 OA
ATOM     24  O   LIG d   1      -7.344  90.248 114.430  0.00  0.00    -0.241 OA
ENDBRANCH   3  22
TORSDOF 7
ENDMDL
MODEL 6
REMARK VINA RESULT:      -5.1      1.870      5.093
REMARK  7 active torsions:
REMARK  status: ('A' for Active; 'I' for Inactive)
REMARK    1  A    between atoms: C_2  and  C_3 
REMARK    2  A    between atoms: C_3  and  O_6 
REMARK    3  A    between atoms: C_3  and  C_4 
REMARK    4  A    between atoms: C_7  and  O_6 
REMARK    5  A    between atoms: C_9  and  C_10 
REMARK    6  A    between atoms: N_15  and  C_14 
REMARK    7  A    between atoms: N_20  and  C_19 
REMARK       I    between atoms: C_22  and  N_20 
ROOT
ATOM      1  C   LIG d   1      -4.984  92.834 117.072  0.00  0.00     0.161 C 
ATOM      2  C   LIG d   1      -6.139  92.094 116.768  0.00  0.00     0.016 C 
ATOM      3  C   LIG d   1      -6.132  90.698 116.547  0.00  0.00     0.038 C 
ATOM      4  C   LIG d   1      -4.987  89.918 116.764  0.00  0.00     0.028 C 
ATOM      5  C   LIG d   1      -3.685  90.690 116.579  0.00  0.00    -0.047 C 
ATOM      6  C   LIG d   1      -3.745  91.984 117.422  0.00  0.00     0.091 C 
ENDROOT
BRANCH   1   7
ATOM      7  O   LIG d   1      -5.267  93.768 118.132  0.00  0.00    -0.368 OA
BRANCH   7   8
ATOM      8  C   LIG d   1      -6.152  93.296 119.178  0.00  0.00     0.119 C 
BRANCH   8   9
ATOM      9  C   LIG d   1      -7.248  94.361 119.373  0.00  0.00     0.028 C 
ATOM     10  C   LIG d   1      -7.109  95.534 118.388  0.00  0.00     0.006 C 
ENDBRANCH   8   9
BRANCH   8  11
ATOM     11  C   LIG d   1      -5.427  93.210 120.524  0.00  0.00     0.028 C 
ATOM     12  C   LIG d   1      -4.949  91.787 120.854  0.00  0.00     0.006 C 
ENDBRANCH   8  11
ENDBRANCH   7   8
ENDBRANCH   1   7
BRANCH   6  13
ATOM     13  N   LIG d   1      -2.545  92.840 117.233  0.00  0.00    -0.311 N 
ATOM     14  C   LIG d   1      -1.495  92.822 118.053  0.00  0.00     0.210 C 
ATOM     15  C   LIG d   1      -0.372  93.798 117.688  0.00  0.00     0.109 C 
ATOM     16  O   LIG d   1      -1.374  92.068 119.030  0.00  0.00    -0.276 OA
ATOM     17  H   LIG d   1      -2.546  93.460 116.447  0.00  0.00     0.149 HD
ENDBRANCH   6  13
BRANCH   5  18
ATOM     18  N   LIG d   1      -2.578  89.797 116.970  0.00  0.00     0.381 N 
ATOM     19  H   LIG d   1      -2.409  89.129 116.244  0.00  0.00    -0.090 HD
ATOM     20  H   LIG d   1      -2.840  89.298 117.802  0.00  0.00    -0.090 HD
ATOM     21  H   LIG d   1      -1.753  90.330 117.139  0.00  0.00    -0.090 HD
ENDBRANCH   5  18
BRANCH   3  22
ATOM     22  C   LIG d   1      -7.272  90.073 116.064  0.00  0.00     0.382 C 
ATOM     23  O   LIG d   1      -7.818  89.162 116.732  0.00  0.00    -0.241 OA
ATOM     24  O   LIG d   1      -7.736  90.379 114.949  0.00  0.00    -0.241 OA
ENDBRANCH   3  22
TORSDOF 7
ENDMDL
MODEL 7
REMARK VINA RESULT:      -4.9      3.271      5.829
REMARK  7 active torsions:
REMARK  status: ('A' for Active; 'I' for Inactive)
REMARK    1  A    between atoms: C_2  and  C_3 
REMARK    2  A    between atoms: C_3  and  O_6 
REMARK    3  A    between atoms: C_3  and  C_4 
REMARK    4  A    between atoms: C_7  and  O_6 
REMARK    5  A    between atoms: C_9  and  C_10 
REMARK    6  A    between atoms: N_15  and  C_14 
REMARK    7  A    between atoms: N_20  and  C_19 
REMARK       I    between atoms: C_22  and  N_20 
ROOT
ATOM      1  C   LIG d   1      -1.771  92.026 117.904  0.00  0.00     0.161 C 
ATOM      2  C   LIG d   1      -0.367  91.993 117.903  0.00  0.00     0.016 C 
ATOM      3  C   LIG d   1       0.439  93.152 117.828  0.00  0.00     0.038 C 
ATOM      4  C   LIG d   1      -0.108  94.442 117.903  0.00  0.00     0.028 C 
ATOM      5  C   LIG d   1      -1.544  94.521 117.397  0.00  0.00    -0.047 C 
ATOM      6  C   LIG d   1      -2.384  93.429 118.099  0.00  0.00     0.091 C 
ENDROOT
BRANCH   1   7
ATOM      7  O   LIG d   1      -2.281  91.115 118.898  0.00  0.00    -0.368 OA
BRANCH   7   8
ATOM      8  C   LIG d   1      -3.084  90.015 118.402  0.00  0.00     0.119 C 
BRANCH   8   9
ATOM      9  C   LIG d   1      -2.390  88.707 118.827  0.00  0.00     0.028 C 
ATOM     10  C   LIG d   1      -1.809  87.935 117.631  0.00  0.00     0.006 C 
ENDBRANCH   8   9
BRANCH   8  11
ATOM     11  C   LIG d   1      -3.102  89.985 116.871  0.00  0.00     0.028 C 
ATOM     12  C   LIG d   1      -4.522  90.077 116.290  0.00  0.00     0.006 C 
ENDBRANCH   8  11
ENDBRANCH   7   8
ENDBRANCH   1   7
BRANCH   6  13
ATOM     13  N   LIG d   1      -3.783  93.382 117.599  0.00  0.00    -0.311 N 
ATOM     14  C   LIG d   1      -4.847  93.358 118.400  0.00  0.00     0.210 C 
ATOM     15  C   LIG d   1      -6.198  93.289 117.680  0.00  0.00     0.109 C 
ATOM     16  O   LIG d   1      -4.803  93.419 119.638  0.00  0.00    -0.276 OA
ATOM     17  H   LIG d   1      -3.913  93.361 116.607  0.00  0.00     0.149 HD
ENDBRANCH   6  13
BRANCH   5  18
ATOM     18  N   LIG d   1      -2.035  95.886 117.661  0.00  0.00     0.381 N 
ATOM     19  H   LIG d   1      -3.033  95.907 117.592  0.00  0.00    -0.090 HD
ATOM     20  H   LIG d   1      -1.658  96.507 116.966  0.00  0.00    -0.090 HD
ATOM     21  H   LIG d   1      -1.752  96.181 118.569  0.00  0.00    -0.090 HD
ENDBRANCH   5  18
BRANCH   3  22
ATOM     22  C   LIG d   1       1.807  93.027 117.637  0.00  0.00     0.382 C 
ATOM     23  O   LIG d   1       2.250  92.582 116.551  0.00  0.00    -0.241 OA
ATOM     24  O   LIG d   1       2.601  93.312 118.553  0.00  0.00    -0.241 OA
ENDBRANCH   3  22
TORSDOF 7
ENDMDL
MODEL 8
REMARK VINA RESULT:      -4.9      2.595      6.014
REMARK  7 active torsions:
REMARK  status: ('A' for Active; 'I' for Inactive)
REMARK    1  A    between atoms: C_2  and  C_3 
REMARK    2  A    between atoms: C_3  and  O_6 
REMARK    3  A    between atoms: C_3  and  C_4 
REMARK    4  A    between atoms: C_7  and  O_6 
REMARK    5  A    between atoms: C_9  and  C_10 
REMARK    6  A    between atoms: N_15  and  C_14 
REMARK    7  A    between atoms: N_20  and  C_19 
REMARK       I    between atoms: C_22  and  N_20 
ROOT
ATOM      1  C   LIG d   1      -4.426  91.582 118.649  0.00  0.00     0.161 C 
ATOM      2  C   LIG d   1      -4.686  90.693 117.593  0.00  0.00     0.016 C 
ATOM      3  C   LIG d   1      -5.608  90.965 116.557  0.00  0.00     0.038 C 
ATOM      4  C   LIG d   1      -6.227  92.217 116.423  0.00  0.00     0.028 C 
ATOM      5  C   LIG d   1      -6.378  92.961 117.746  0.00  0.00    -0.047 C 
ATOM      6  C   LIG d   1      -5.008  92.998 118.461  0.00  0.00     0.091 C 
ENDROOT
BRANCH   1   7
ATOM      7  O   LIG d   1      -3.007  91.652 118.892  0.00  0.00    -0.368 OA
BRANCH   7   8
ATOM      8  C   LIG d   1      -2.224  92.350 117.893  0.00  0.00     0.119 C 
BRANCH   8   9
ATOM      9  C   LIG d   1      -1.086  91.407 117.455  0.00  0.00     0.028 C 
ATOM     10  C   LIG d   1      -0.576  90.527 118.608  0.00  0.00     0.006 C 
ENDBRANCH   8   9
BRANCH   8  11
ATOM     11  C   LIG d   1      -1.527  93.577 118.489  0.00  0.00     0.028 C 
ATOM     12  C   LIG d   1      -1.328  94.705 117.464  0.00  0.00     0.006 C 
ENDBRANCH   8  11
ENDBRANCH   7   8
ENDBRANCH   1   7
BRANCH   6  13
ATOM     13  N   LIG d   1      -5.086  93.635 119.801  0.00  0.00    -0.311 N 
ATOM     14  C   LIG d   1      -4.799  94.917 120.022  0.00  0.00     0.210 C 
ATOM     15  C   LIG d   1      -4.924  95.366 121.481  0.00  0.00     0.109 C 
ATOM     16  O   LIG d   1      -4.484  95.733 119.142  0.00  0.00    -0.276 OA
ATOM     17  H   LIG d   1      -5.363  93.053 120.567  0.00  0.00     0.149 HD
ENDBRANCH   6  13
BRANCH   5  18
ATOM     18  N   LIG d   1      -6.910  94.303 117.443  0.00  0.00     0.381 N 
ATOM     19  H   LIG d   1      -7.869  94.358 117.720  0.00  0.00    -0.090 HD
ATOM     20  H   LIG d   1      -6.858  94.457 116.452  0.00  0.00    -0.090 HD
ATOM     21  H   LIG d   1      -6.378  94.996 117.923  0.00  0.00    -0.090 HD
ENDBRANCH   5  18
BRANCH   3  22
ATOM     22  C   LIG d   1      -5.951  89.963 115.661  0.00  0.00     0.382 C 
ATOM     23  O   LIG d   1      -5.072  89.452 114.925  0.00  0.00    -0.241 OA
ATOM     24  O   LIG d   1      -7.135  89.593 115.549  0.00  0.00    -0.241 OA
ENDBRANCH   3  22
TORSDOF 7
ENDMDL
MODEL 9
REMARK VINA RESULT:      -4.9      2.166      4.677
REMARK  7 active torsions:
REMARK  status: ('A' for Active; 'I' for Inactive)
REMARK    1  A    between atoms: C_2  and  C_3 
REMARK    2  A    between atoms: C_3  and  O_6 
REMARK    3  A    between atoms: C_3  and  C_4 
REMARK    4  A    between atoms: C_7  and  O_6 
REMARK    5  A    between atoms: C_9  and  C_10 
REMARK    6  A    between atoms: N_15  and  C_14 
REMARK    7  A    between atoms: N_20  and  C_19 
REMARK       I    between atoms: C_22  and  N_20 
ROOT
ATOM      1  C   LIG d   1      -4.090  92.601 117.216  0.00  0.00     0.161 C 
ATOM      2  C   LIG d   1      -3.250  93.330 118.074  0.00  0.00     0.016 C 
ATOM      3  C   LIG d   1      -3.729  94.147 119.124  0.00  0.00     0.038 C 
ATOM      4  C   LIG d   1      -5.084  94.172 119.484  0.00  0.00     0.028 C 
ATOM      5  C   LIG d   1      -6.025  93.846 118.329  0.00  0.00    -0.047 C 
ATOM      6  C   LIG d   1      -5.565  92.528 117.664  0.00  0.00     0.091 C 
ENDROOT
BRANCH   1   7
ATOM      7  O   LIG d   1      -3.559  91.275 117.022  0.00  0.00    -0.368 OA
BRANCH   7   8
ATOM      8  C   LIG d   1      -2.589  90.828 118.001  0.00  0.00     0.119 C 
BRANCH   8   9
ATOM      9  C   LIG d   1      -1.621  89.865 117.286  0.00  0.00     0.028 C 
ATOM     10  C   LIG d   1      -1.986  88.388 117.516  0.00  0.00     0.006 C 
ENDBRANCH   8   9
BRANCH   8  11
ATOM     11  C   LIG d   1      -3.251  89.995 119.102  0.00  0.00     0.028 C 
ATOM     12  C   LIG d   1      -3.026  90.577 120.506  0.00  0.00     0.006 C 
ENDBRANCH   8  11
ENDBRANCH   7   8
ENDBRANCH   1   7
BRANCH   6  13
ATOM     13  N   LIG d   1      -6.381  92.180 116.472  0.00  0.00    -0.311 N 
ATOM     14  C   LIG d   1      -6.727  90.932 116.159  0.00  0.00     0.210 C 
ATOM     15  C   LIG d   1      -7.553  90.793 114.876  0.00  0.00     0.109 C 
ATOM     16  O   LIG d   1      -6.455  89.931 116.838  0.00  0.00    -0.276 OA
ATOM     17  H   LIG d   1      -6.671  92.935 115.882  0.00  0.00     0.149 HD
ENDBRANCH   6  13
BRANCH   5  18
ATOM     18  N   LIG d   1      -7.393  93.771 118.875  0.00  0.00     0.381 N 
ATOM     19  H   LIG d   1      -7.711  92.823 118.863  0.00  0.00    -0.090 HD
ATOM     20  H   LIG d   1      -8.005  94.317 118.295  0.00  0.00    -0.090 HD
ATOM     21  H   LIG d   1      -7.407  94.122 119.808  0.00  0.00    -0.090 HD
ENDBRANCH   5  18
BRANCH   3  22
ATOM     22  C   LIG d   1      -2.852  94.982 119.799  0.00  0.00     0.382 C 
ATOM     23  O   LIG d   1      -2.444  94.669 120.944  0.00  0.00    -0.241 OA
ATOM     24  O   LIG d   1      -2.499  96.066 119.298  0.00  0.00    -0.241 OA
ENDBRANCH   3  22
TORSDOF 7
ENDMDL
