MODEL 1
REMARK VINA RESULT:      -5.3      0.000      0.000
REMARK  7 active torsions:
REMARK  status: ('A' for Active; 'I' for Inactive)
REMARK    1  A    between atoms: C_2  and  C_3 
REMARK    2  A    between atoms: C_3  and  O_6 
REMARK    3  A    between atoms: C_3  and  C_4 
REMARK    4  A    between atoms: C_7  and  O_6 
REMARK    5  A    between atoms: C_9  and  C_10 
REMARK    6  A    between atoms: N_15  and  C_14 
REMARK    7  A    between atoms: N_20  and  C_19 
REMARK       I    between atoms: C_22  and  N_20 
ROOT
ATOM      1  C   LIG d   1      -6.608  92.011 118.664  0.00  0.00     0.161 C 
ATOM      2  C   LIG d   1      -5.736  92.324 119.721  0.00  0.00     0.016 C 
ATOM      3  C   LIG d   1      -4.375  91.941 119.747  0.00  0.00     0.038 C 
ATOM      4  C   LIG d   1      -3.752  91.345 118.641  0.00  0.00     0.028 C 
ATOM      5  C   LIG d   1      -4.712  90.558 117.756  0.00  0.00    -0.047 C 
ATOM      6  C   LIG d   1      -5.918  91.457 117.400  0.00  0.00     0.091 C 
ENDROOT
BRANCH   1   7
ATOM      7  O   LIG d   1      -7.410  93.162 118.335  0.00  0.00    -0.368 OA
BRANCH   7   8
ATOM      8  C   LIG d   1      -7.841  93.979 119.450  0.00  0.00     0.119 C 
BRANCH   8   9
ATOM      9  C   LIG d   1      -9.311  93.621 119.745  0.00  0.00     0.028 C 
ATOM     10  C   LIG d   1      -9.543  93.266 121.224  0.00  0.00     0.006 C 
ENDBRANCH   8   9
BRANCH   8  11
ATOM     11  C   LIG d   1      -7.852  95.465 119.081  0.00  0.00     0.028 C 
ATOM     12  C   LIG d   1      -9.159  95.900 118.399  0.00  0.00     0.006 C 
ENDBRANCH   8  11
ENDBRANCH   7   8
ENDBRANCH   1   7
BRANCH   6  13
ATOM     13  N   LIG d   1      -6.947  90.737 116.605  0.00  0.00    -0.311 N 
ATOM     14  C   LIG d   1      -6.964  90.719 115.273  0.00  0.00     0.210 C 
ATOM     15  C   LIG d   1      -8.124  89.934 114.653  0.00  0.00     0.109 C 
ATOM     16  O   LIG d   1      -6.111  91.251 114.548  0.00  0.00    -0.276 OA
ATOM     17  H   LIG d   1      -7.660  90.252 117.114  0.00  0.00     0.149 HD
ENDBRANCH   6  13
BRANCH   5  18
ATOM     18  N   LIG d   1      -3.958  90.106 116.571  0.00  0.00     0.381 N 
ATOM     19  H   LIG d   1      -4.584  89.693 115.909  0.00  0.00    -0.090 HD
ATOM     20  H   LIG d   1      -3.293  89.409 116.855  0.00  0.00    -0.090 HD
ATOM     21  H   LIG d   1      -3.484  90.877 116.154  0.00  0.00    -0.090 HD
ENDBRANCH   5  18
BRANCH   3  22
ATOM     22  C   LIG d   1      -3.633  92.119 120.905  0.00  0.00     0.382 C 
ATOM     23  O   LIG d   1      -3.454  93.273 121.363  0.00  0.00    -0.241 OA
ATOM     24  O   LIG d   1      -3.104  91.144 121.472  0.00  0.00    -0.241 OA
ENDBRANCH   3  22
TORSDOF 7
ENDMDL
MODEL 2
REMARK VINA RESULT:      -5.2      1.932      4.958
REMARK  7 active torsions:
REMARK  status: ('A' for Active; 'I' for Inactive)
REMARK    1  A    between atoms: C_2  and  C_3 
REMARK    2  A    between atoms: C_3  and  O_6 
REMARK    3  A    between atoms: C_3  and  C_4 
REMARK    4  A    between atoms: C_7  and  O_6 
REMARK    5  A    between atoms: C_9  and  C_10 
REMARK    6  A    between atoms: N_15  and  C_14 
REMARK    7  A    between atoms: N_20  and  C_19 
REMARK       I    between atoms: C_22  and  N_20 
ROOT
ATOM      1  C   LIG d   1      -5.218  92.106 118.784  0.00  0.00     0.161 C 
ATOM      2  C   LIG d   1      -5.979  91.530 117.754  0.00  0.00     0.016 C 
ATOM      3  C   LIG d   1      -5.425  90.714 116.740  0.00  0.00     0.038 C 
ATOM      4  C   LIG d   1      -4.087  90.293 116.775  0.00  0.00     0.028 C 
ATOM      5  C   LIG d   1      -3.168  91.259 117.515  0.00  0.00    -0.047 C 
ATOM      6  C   LIG d   1      -3.776  91.568 118.902  0.00  0.00     0.091 C 
ENDROOT
BRANCH   1   7
ATOM      7  O   LIG d   1      -5.909  91.965 120.040  0.00  0.00    -0.368 OA
BRANCH   7   8
ATOM      8  C   LIG d   1      -7.118  92.749 120.194  0.00  0.00     0.119 C 
BRANCH   8   9
ATOM      9  C   LIG d   1      -6.709  94.234 120.205  0.00  0.00     0.028 C 
ATOM     10  C   LIG d   1      -7.388  95.038 119.083  0.00  0.00     0.006 C 
ENDBRANCH   8   9
BRANCH   8  11
ATOM     11  C   LIG d   1      -7.775  92.499 121.555  0.00  0.00     0.028 C 
ATOM     12  C   LIG d   1      -9.253  92.917 121.589  0.00  0.00     0.006 C 
ENDBRANCH   8  11
ENDBRANCH   7   8
ENDBRANCH   1   7
BRANCH   6  13
ATOM     13  N   LIG d   1      -2.982  92.572 119.658  0.00  0.00    -0.311 N 
ATOM     14  C   LIG d   1      -2.048  92.246 120.550  0.00  0.00     0.210 C 
ATOM     15  C   LIG d   1      -1.362  93.434 121.231  0.00  0.00     0.109 C 
ATOM     16  O   LIG d   1      -1.700  91.086 120.818  0.00  0.00    -0.276 OA
ATOM     17  H   LIG d   1      -3.178  93.537 119.479  0.00  0.00     0.149 HD
ENDBRANCH   6  13
BRANCH   5  18
ATOM     18  N   LIG d   1      -1.835  90.633 117.595  0.00  0.00     0.381 N 
ATOM     19  H   LIG d   1      -1.353  90.750 116.725  0.00  0.00    -0.090 HD
ATOM     20  H   LIG d   1      -1.948  89.649 117.763  0.00  0.00    -0.090 HD
ATOM     21  H   LIG d   1      -1.308  91.045 118.333  0.00  0.00    -0.090 HD
ENDBRANCH   5  18
BRANCH   3  22
ATOM     22  C   LIG d   1      -6.204  90.343 115.655  0.00  0.00     0.382 C 
ATOM     23  O   LIG d   1      -5.984  90.842 114.525  0.00  0.00    -0.241 OA
ATOM     24  O   LIG d   1      -7.153  89.549 115.800  0.00  0.00    -0.241 OA
ENDBRANCH   3  22
TORSDOF 7
ENDMDL
MODEL 3
REMARK VINA RESULT:      -5.2      2.123      4.819
REMARK  7 active torsions:
REMARK  status: ('A' for Active; 'I' for Inactive)
REMARK    1  A    between atoms: C_2  and  C_3 
REMARK    2  A    between atoms: C_3  and  O_6 
REMARK    3  A    between atoms: C_3  and  C_4 
REMARK    4  A    between atoms: C_7  and  O_6 
REMARK    5  A    between atoms: C_9  and  C_10 
REMARK    6  A    between atoms: N_15  and  C_14 
REMARK    7  A    between atoms: N_20  and  C_19 
REMARK       I    between atoms: C_22  and  N_20 
ROOT
ATOM      1  C   LIG d   1      -5.325  91.719 119.011  0.00  0.00     0.161 C 
ATOM      2  C   LIG d   1      -4.289  91.009 118.380  0.00  0.00     0.016 C 
ATOM      3  C   LIG d   1      -4.368  90.536 117.050  0.00  0.00     0.038 C 
ATOM      4  C   LIG d   1      -5.435  90.875 116.205  0.00  0.00     0.028 C 
ATOM      5  C   LIG d   1      -6.732  91.162 116.952  0.00  0.00    -0.047 C 
ATOM      6  C   LIG d   1      -6.451  92.194 118.068  0.00  0.00     0.091 C 
ENDROOT
BRANCH   1   7
ATOM      7  O   LIG d   1      -4.779  92.836 119.740  0.00  0.00    -0.368 OA
BRANCH   7   8
ATOM      8  C   LIG d   1      -3.340  92.842 119.912  0.00  0.00     0.119 C 
BRANCH   8   9
ATOM      9  C   LIG d   1      -3.051  92.654 121.414  0.00  0.00     0.028 C 
ATOM     10  C   LIG d   1      -2.499  91.255 121.734  0.00  0.00     0.006 C 
ENDBRANCH   8   9
BRANCH   8  11
ATOM     11  C   LIG d   1      -2.742  94.206 119.552  0.00  0.00     0.028 C 
ATOM     12  C   LIG d   1      -1.276  94.113 119.099  0.00  0.00     0.006 C 
ENDBRANCH   8  11
ENDBRANCH   7   8
ENDBRANCH   1   7
BRANCH   6  13
ATOM     13  N   LIG d   1      -7.650  92.468 118.902  0.00  0.00    -0.311 N 
ATOM     14  C   LIG d   1      -8.511  93.452 118.648  0.00  0.00     0.210 C 
ATOM     15  C   LIG d   1      -9.668  93.573 119.644  0.00  0.00     0.109 C 
ATOM     16  O   LIG d   1      -8.443  94.216 117.673  0.00  0.00    -0.276 OA
ATOM     17  H   LIG d   1      -7.799  91.876 119.696  0.00  0.00     0.149 HD
ENDBRANCH   6  13
BRANCH   5  18
ATOM     18  N   LIG d   1      -7.721  91.634 115.964  0.00  0.00     0.381 N 
ATOM     19  H   LIG d   1      -7.259  92.157 115.247  0.00  0.00    -0.090 HD
ATOM     20  H   LIG d   1      -8.376  92.241 116.424  0.00  0.00    -0.090 HD
ATOM     21  H   LIG d   1      -8.200  90.858 115.564  0.00  0.00    -0.090 HD
ENDBRANCH   5  18
BRANCH   3  22
ATOM     22  C   LIG d   1      -3.389  89.682 116.566  0.00  0.00     0.382 C 
ATOM     23  O   LIG d   1      -3.695  88.773 115.757  0.00  0.00    -0.241 OA
ATOM     24  O   LIG d   1      -2.212  89.780 116.962  0.00  0.00    -0.241 OA
ENDBRANCH   3  22
TORSDOF 7
ENDMDL
MODEL 4
REMARK VINA RESULT:      -5.1      3.026      6.928
REMARK  7 active torsions:
REMARK  status: ('A' for Active; 'I' for Inactive)
REMARK    1  A    between atoms: C_2  and  C_3 
REMARK    2  A    between atoms: C_3  and  O_6 
REMARK    3  A    between atoms: C_3  and  C_4 
REMARK    4  A    between atoms: C_7  and  O_6 
REMARK    5  A    between atoms: C_9  and  C_10 
REMARK    6  A    between atoms: N_15  and  C_14 
REMARK    7  A    between atoms: N_20  and  C_19 
REMARK       I    between atoms: C_22  and  N_20 
ROOT
ATOM      1  C   LIG d   1      -3.567  90.737 117.840  0.00  0.00     0.161 C 
ATOM      2  C   LIG d   1      -3.973  90.178 116.616  0.00  0.00     0.016 C 
ATOM      3  C   LIG d   1      -5.271  90.341 116.079  0.00  0.00     0.038 C 
ATOM      4  C   LIG d   1      -6.211  91.205 116.660  0.00  0.00     0.028 C 
ATOM      5  C   LIG d   1      -6.016  91.390 118.161  0.00  0.00    -0.047 C 
ATOM      6  C   LIG d   1      -4.544  91.774 118.433  0.00  0.00     0.091 C 
ENDROOT
BRANCH   1   7
ATOM      7  O   LIG d   1      -2.251  91.308 117.703  0.00  0.00    -0.368 OA
BRANCH   7   8
ATOM      8  C   LIG d   1      -1.152  90.502 118.192  0.00  0.00     0.119 C 
BRANCH   8   9
ATOM      9  C   LIG d   1      -0.491  91.274 119.351  0.00  0.00     0.028 C 
ATOM     10  C   LIG d   1       0.395  90.372 120.227  0.00  0.00     0.006 C 
ENDBRANCH   8   9
BRANCH   8  11
ATOM     11  C   LIG d   1      -0.058  90.349 117.131  0.00  0.00     0.028 C 
ATOM     12  C   LIG d   1       0.205  88.882 116.754  0.00  0.00     0.006 C 
ENDBRANCH   8  11
ENDBRANCH   7   8
ENDBRANCH   1   7
BRANCH   6  13
ATOM     13  N   LIG d   1      -4.247  91.892 119.884  0.00  0.00    -0.311 N 
ATOM     14  C   LIG d   1      -3.581  92.916 120.416  0.00  0.00     0.210 C 
ATOM     15  C   LIG d   1      -3.366  92.831 121.930  0.00  0.00     0.109 C 
ATOM     16  O   LIG d   1      -3.176  93.901 119.781  0.00  0.00    -0.276 OA
ATOM     17  H   LIG d   1      -4.567  91.151 120.477  0.00  0.00     0.149 HD
ENDBRANCH   6  13
BRANCH   5  18
ATOM     18  N   LIG d   1      -6.974  92.418 118.611  0.00  0.00     0.381 N 
ATOM     19  H   LIG d   1      -7.830  92.331 118.101  0.00  0.00    -0.090 HD
ATOM     20  H   LIG d   1      -6.587  93.327 118.425  0.00  0.00    -0.090 HD
ATOM     21  H   LIG d   1      -7.149  92.318 119.587  0.00  0.00    -0.090 HD
ENDBRANCH   5  18
BRANCH   3  22
ATOM     22  C   LIG d   1      -5.653  89.603 114.969  0.00  0.00     0.382 C 
ATOM     23  O   LIG d   1      -4.839  88.815 114.430  0.00  0.00    -0.241 OA
ATOM     24  O   LIG d   1      -6.786  89.748 114.473  0.00  0.00    -0.241 OA
ENDBRANCH   3  22
TORSDOF 7
ENDMDL
MODEL 5
REMARK VINA RESULT:      -5.1      2.415      5.906
REMARK  7 active torsions:
REMARK  status: ('A' for Active; 'I' for Inactive)
REMARK    1  A    between atoms: C_2  and  C_3 
REMARK    2  A    between atoms: C_3  and  O_6 
REMARK    3  A    between atoms: C_3  and  C_4 
REMARK    4  A    between atoms: C_7  and  O_6 
REMARK    5  A    between atoms: C_9  and  C_10 
REMARK    6  A    between atoms: N_15  and  C_14 
REMARK    7  A    between atoms: N_20  and  C_19 
REMARK       I    between atoms: C_22  and  N_20 
ROOT
ATOM      1  C   LIG d   1      -6.086  92.210 119.252  0.00  0.00     0.161 C 
ATOM      2  C   LIG d   1      -5.896  91.351 118.156  0.00  0.00     0.016 C 
ATOM      3  C   LIG d   1      -6.626  91.456 116.950  0.00  0.00     0.038 C 
ATOM      4  C   LIG d   1      -7.496  92.528 116.700  0.00  0.00     0.028 C 
ATOM      5  C   LIG d   1      -8.093  93.131 117.967  0.00  0.00    -0.047 C 
ATOM      6  C   LIG d   1      -6.951  93.453 118.957  0.00  0.00     0.091 C 
ENDROOT
BRANCH   1   7
ATOM      7  O   LIG d   1      -4.809  92.604 119.790  0.00  0.00    -0.368 OA
BRANCH   7   8
ATOM      8  C   LIG d   1      -3.781  91.583 119.805  0.00  0.00     0.119 C 
BRANCH   8   9
ATOM      9  C   LIG d   1      -3.430  91.301 121.279  0.00  0.00     0.028 C 
ATOM     10  C   LIG d   1      -1.913  91.303 121.532  0.00  0.00     0.006 C 
ENDBRANCH   8   9
BRANCH   8  11
ATOM     11  C   LIG d   1      -2.483  92.090 119.170  0.00  0.00     0.028 C 
ATOM     12  C   LIG d   1      -2.182  91.424 117.818  0.00  0.00     0.006 C 
ENDBRANCH   8  11
ENDBRANCH   7   8
ENDBRANCH   1   7
BRANCH   6  13
ATOM     13  N   LIG d   1      -7.455  93.969 120.256  0.00  0.00    -0.311 N 
ATOM     14  C   LIG d   1      -7.606  95.265 120.522  0.00  0.00     0.210 C 
ATOM     15  C   LIG d   1      -8.120  95.581 121.930  0.00  0.00     0.109 C 
ATOM     16  O   LIG d   1      -7.393  96.182 119.714  0.00  0.00    -0.276 OA
ATOM     17  H   LIG d   1      -7.682  93.292 120.958  0.00  0.00     0.149 HD
ENDBRANCH   6  13
BRANCH   5  18
ATOM     18  N   LIG d   1      -8.868  94.322 117.571  0.00  0.00     0.381 N 
ATOM     19  H   LIG d   1      -9.428  94.111 116.769  0.00  0.00    -0.090 HD
ATOM     20  H   LIG d   1      -8.230  95.058 117.325  0.00  0.00    -0.090 HD
ATOM     21  H   LIG d   1      -9.451  94.616 118.324  0.00  0.00    -0.090 HD
ENDBRANCH   5  18
BRANCH   3  22
ATOM     22  C   LIG d   1      -6.520  90.458 115.993  0.00  0.00     0.382 C 
ATOM     23  O   LIG d   1      -5.613  90.514 115.127  0.00  0.00    -0.241 OA
ATOM     24  O   LIG d   1      -7.345  89.526 115.957  0.00  0.00    -0.241 OA
ENDBRANCH   3  22
TORSDOF 7
ENDMDL
MODEL 6
REMARK VINA RESULT:      -5.0      2.429      6.104
REMARK  7 active torsions:
REMARK  status: ('A' for Active; 'I' for Inactive)
REMARK    1  A    between atoms: C_2  and  C_3 
REMARK    2  A    between atoms: C_3  and  O_6 
REMARK    3  A    between atoms: C_3  and  C_4 
REMARK    4  A    between atoms: C_7  and  O_6 
REMARK    5  A    between atoms: C_9  and  C_10 
REMARK    6  A    between atoms: N_15  and  C_14 
REMARK    7  A    between atoms: N_20  and  C_19 
REMARK       I    between atoms: C_22  and  N_20 
ROOT
ATOM      1  C   LIG d   1      -4.516  91.171 118.645  0.00  0.00     0.161 C 
ATOM      2  C   LIG d   1      -4.351  90.448 117.452  0.00  0.00     0.016 C 
ATOM      3  C   LIG d   1      -5.283  90.478 116.389  0.00  0.00     0.038 C 
ATOM      4  C   LIG d   1      -6.376  91.357 116.385  0.00  0.00     0.028 C 
ATOM      5  C   LIG d   1      -6.855  91.734 117.783  0.00  0.00    -0.047 C 
ATOM      6  C   LIG d   1      -5.646  92.222 118.614  0.00  0.00     0.091 C 
ENDROOT
BRANCH   1   7
ATOM      7  O   LIG d   1      -3.269  91.789 119.019  0.00  0.00    -0.368 OA
BRANCH   7   8
ATOM      8  C   LIG d   1      -2.246  91.831 117.994  0.00  0.00     0.119 C 
BRANCH   8   9
ATOM      9  C   LIG d   1      -1.053  90.994 118.495  0.00  0.00     0.028 C 
ATOM     10  C   LIG d   1      -0.557  89.989 117.442  0.00  0.00     0.006 C 
ENDBRANCH   8   9
BRANCH   8  11
ATOM     11  C   LIG d   1      -1.698  93.249 117.811  0.00  0.00     0.028 C 
ATOM     12  C   LIG d   1      -0.916  93.748 119.036  0.00  0.00     0.006 C 
ENDBRANCH   8  11
ENDBRANCH   7   8
ENDBRANCH   1   7
BRANCH   6  13
ATOM     13  N   LIG d   1      -6.013  92.531 120.021  0.00  0.00    -0.311 N 
ATOM     14  C   LIG d   1      -6.372  93.744 120.435  0.00  0.00     0.210 C 
ATOM     15  C   LIG d   1      -6.690  93.849 121.930  0.00  0.00     0.109 C 
ATOM     16  O   LIG d   1      -6.489  94.737 119.701  0.00  0.00    -0.276 OA
ATOM     17  H   LIG d   1      -5.976  91.776 120.678  0.00  0.00     0.149 HD
ENDBRANCH   6  13
BRANCH   5  18
ATOM     18  N   LIG d   1      -7.905  92.758 117.633  0.00  0.00     0.381 N 
ATOM     19  H   LIG d   1      -7.539  93.549 117.142  0.00  0.00    -0.090 HD
ATOM     20  H   LIG d   1      -8.196  93.062 118.546  0.00  0.00    -0.090 HD
ATOM     21  H   LIG d   1      -8.683  92.380 117.138  0.00  0.00    -0.090 HD
ENDBRANCH   5  18
BRANCH   3  22
ATOM     22  C   LIG d   1      -5.146  89.592 115.331  0.00  0.00     0.382 C 
ATOM     23  O   LIG d   1      -6.018  89.553 114.430  0.00  0.00    -0.241 OA
ATOM     24  O   LIG d   1      -4.186  88.800 115.290  0.00  0.00    -0.241 OA
ENDBRANCH   3  22
TORSDOF 7
ENDMDL
MODEL 7
REMARK VINA RESULT:      -4.7      2.392      5.783
REMARK  7 active torsions:
REMARK  status: ('A' for Active; 'I' for Inactive)
REMARK    1  A    between atoms: C_2  and  C_3 
REMARK    2  A    between atoms: C_3  and  O_6 
REMARK    3  A    between atoms: C_3  and  C_4 
REMARK    4  A    between atoms: C_7  and  O_6 
REMARK    5  A    between atoms: C_9  and  C_10 
REMARK    6  A    between atoms: N_15  and  C_14 
REMARK    7  A    between atoms: N_20  and  C_19 
REMARK       I    between atoms: C_22  and  N_20 
ROOT
ATOM      1  C   LIG d   1      -6.229  92.128 119.050  0.00  0.00     0.161 C 
ATOM      2  C   LIG d   1      -7.532  92.597 118.815  0.00  0.00     0.016 C 
ATOM      3  C   LIG d   1      -8.123  93.653 119.546  0.00  0.00     0.038 C 
ATOM      4  C   LIG d   1      -7.392  94.417 120.467  0.00  0.00     0.028 C 
ATOM      5  C   LIG d   1      -6.230  93.657 121.097  0.00  0.00    -0.047 C 
ATOM      6  C   LIG d   1      -5.377  93.023 119.974  0.00  0.00     0.091 C 
ENDROOT
BRANCH   1   7
ATOM      7  O   LIG d   1      -5.552  91.916 117.795  0.00  0.00    -0.368 OA
BRANCH   7   8
ATOM      8  C   LIG d   1      -6.086  90.866 116.952  0.00  0.00     0.119 C 
BRANCH   8   9
ATOM      9  C   LIG d   1      -4.893  90.161 116.279  0.00  0.00     0.028 C 
ATOM     10  C   LIG d   1      -3.580  90.358 117.056  0.00  0.00     0.006 C 
ENDBRANCH   8   9
BRANCH   8  11
ATOM     11  C   LIG d   1      -6.918  91.442 115.803  0.00  0.00     0.028 C 
ATOM     12  C   LIG d   1      -6.578  90.807 114.445  0.00  0.00     0.006 C 
ENDBRANCH   8  11
ENDBRANCH   7   8
ENDBRANCH   1   7
BRANCH   6  13
ATOM     13  N   LIG d   1      -4.267  92.190 120.507  0.00  0.00    -0.311 N 
ATOM     14  C   LIG d   1      -2.996  92.343 120.141  0.00  0.00     0.210 C 
ATOM     15  C   LIG d   1      -2.013  91.367 120.796  0.00  0.00     0.109 C 
ATOM     16  O   LIG d   1      -2.584  93.214 119.361  0.00  0.00    -0.276 OA
ATOM     17  H   LIG d   1      -4.508  91.479 121.169  0.00  0.00     0.149 HD
ENDBRANCH   6  13
BRANCH   5  18
ATOM     18  N   LIG d   1      -5.472  94.611 121.929  0.00  0.00     0.381 N 
ATOM     19  H   LIG d   1      -5.964  94.780 122.784  0.00  0.00    -0.090 HD
ATOM     20  H   LIG d   1      -5.392  95.481 121.434  0.00  0.00    -0.090 HD
ATOM     21  H   LIG d   1      -4.566  94.247 122.126  0.00  0.00    -0.090 HD
ENDBRANCH   5  18
BRANCH   3  22
ATOM     22  C   LIG d   1      -9.473  93.928 119.387  0.00  0.00     0.382 C 
ATOM     23  O   LIG d   1      -9.838  94.863 118.635  0.00  0.00    -0.241 OA
ATOM     24  O   LIG d   1     -10.328  93.281 120.021  0.00  0.00    -0.241 OA
ENDBRANCH   3  22
TORSDOF 7
ENDMDL
MODEL 8
REMARK VINA RESULT:      -4.7      1.627      2.095
REMARK  7 active torsions:
REMARK  status: ('A' for Active; 'I' for Inactive)
REMARK    1  A    between atoms: C_2  and  C_3 
REMARK    2  A    between atoms: C_3  and  O_6 
REMARK    3  A    between atoms: C_3  and  C_4 
REMARK    4  A    between atoms: C_7  and  O_6 
REMARK    5  A    between atoms: C_9  and  C_10 
REMARK    6  A    between atoms: N_15  and  C_14 
REMARK    7  A    between atoms: N_20  and  C_19 
REMARK       I    between atoms: C_22  and  N_20 
ROOT
ATOM      1  C   LIG d   1      -7.192  91.684 117.248  0.00  0.00     0.161 C 
ATOM      2  C   LIG d   1      -6.110  91.744 118.142  0.00  0.00     0.016 C 
ATOM      3  C   LIG d   1      -4.834  91.204 117.859  0.00  0.00     0.038 C 
ATOM      4  C   LIG d   1      -4.509  90.698 116.592  0.00  0.00     0.028 C 
ATOM      5  C   LIG d   1      -5.713  90.159 115.827  0.00  0.00    -0.047 C 
ATOM      6  C   LIG d   1      -6.824  91.234 115.818  0.00  0.00     0.091 C 
ENDROOT
BRANCH   1   7
ATOM      7  O   LIG d   1      -7.869  92.955 117.214  0.00  0.00    -0.368 OA
BRANCH   7   8
ATOM      8  C   LIG d   1      -7.906  93.691 118.462  0.00  0.00     0.119 C 
BRANCH   8   9
ATOM      9  C   LIG d   1      -9.304  93.487 119.078  0.00  0.00     0.028 C 
ATOM     10  C   LIG d   1      -9.243  93.197 120.588  0.00  0.00     0.006 C 
ENDBRANCH   8   9
BRANCH   8  11
ATOM     11  C   LIG d   1      -7.785  95.199 118.224  0.00  0.00     0.028 C 
ATOM     12  C   LIG d   1      -6.777  95.872 119.169  0.00  0.00     0.006 C 
ENDBRANCH   8  11
ENDBRANCH   7   8
ENDBRANCH   1   7
BRANCH   6  13
ATOM     13  N   LIG d   1      -8.070  90.757 115.163  0.00  0.00    -0.311 N 
ATOM     14  C   LIG d   1      -8.684  89.623 115.494  0.00  0.00     0.210 C 
ATOM     15  C   LIG d   1      -9.943  89.308 114.680  0.00  0.00     0.109 C 
ATOM     16  O   LIG d   1      -8.325  88.864 116.407  0.00  0.00    -0.276 OA
ATOM     17  H   LIG d   1      -8.448  91.327 114.432  0.00  0.00     0.149 HD
ENDBRANCH   6  13
BRANCH   5  18
ATOM     18  N   LIG d   1      -5.254  89.791 114.474  0.00  0.00     0.381 N 
ATOM     19  H   LIG d   1      -4.445  90.328 114.233  0.00  0.00    -0.090 HD
ATOM     20  H   LIG d   1      -5.982  90.004 113.815  0.00  0.00    -0.090 HD
ATOM     21  H   LIG d   1      -5.039  88.819 114.440  0.00  0.00    -0.090 HD
ENDBRANCH   5  18
BRANCH   3  22
ATOM     22  C   LIG d   1      -3.880  91.132 118.862  0.00  0.00     0.382 C 
ATOM     23  O   LIG d   1      -2.685  90.881 118.574  0.00  0.00    -0.241 OA
ATOM     24  O   LIG d   1      -4.207  91.270 120.056  0.00  0.00    -0.241 OA
ENDBRANCH   3  22
TORSDOF 7
ENDMDL
MODEL 9
REMARK VINA RESULT:      -4.6      2.915      6.210
REMARK  7 active torsions:
REMARK  status: ('A' for Active; 'I' for Inactive)
REMARK    1  A    between atoms: C_2  and  C_3 
REMARK    2  A    between atoms: C_3  and  O_6 
REMARK    3  A    between atoms: C_3  and  C_4 
REMARK    4  A    between atoms: C_7  and  O_6 
REMARK    5  A    between atoms: C_9  and  C_10 
REMARK    6  A    between atoms: N_15  and  C_14 
REMARK    7  A    between atoms: N_20  and  C_19 
REMARK       I    between atoms: C_22  and  N_20 
ROOT
ATOM      1  C   LIG d   1      -5.886  93.027 120.413  0.00  0.00     0.161 C 
ATOM      2  C   LIG d   1      -7.177  92.961 119.863  0.00  0.00     0.016 C 
ATOM      3  C   LIG d   1      -7.812  94.055 119.231  0.00  0.00     0.038 C 
ATOM      4  C   LIG d   1      -7.134  95.255 118.970  0.00  0.00     0.028 C 
ATOM      5  C   LIG d   1      -6.003  95.538 119.953  0.00  0.00    -0.047 C 
ATOM      6  C   LIG d   1      -5.089  94.295 120.039  0.00  0.00     0.091 C 
ENDROOT
BRANCH   1   7
ATOM      7  O   LIG d   1      -5.143  91.845 120.058  0.00  0.00    -0.368 OA
BRANCH   7   8
ATOM      8  C   LIG d   1      -4.428  91.895 118.799  0.00  0.00     0.119 C 
BRANCH   8   9
ATOM      9  C   LIG d   1      -4.908  90.703 117.947  0.00  0.00     0.028 C 
ATOM     10  C   LIG d   1      -6.092  91.071 117.037  0.00  0.00     0.006 C 
ENDBRANCH   8   9
BRANCH   8  11
ATOM     11  C   LIG d   1      -2.927  91.671 119.000  0.00  0.00     0.028 C 
ATOM     12  C   LIG d   1      -2.071  92.377 117.936  0.00  0.00     0.006 C 
ENDBRANCH   8  11
ENDBRANCH   7   8
ENDBRANCH   1   7
BRANCH   6  13
ATOM     13  N   LIG d   1      -4.005  94.456 121.042  0.00  0.00    -0.311 N 
ATOM     14  C   LIG d   1      -2.808  94.964 120.753  0.00  0.00     0.210 C 
ATOM     15  C   LIG d   1      -1.829  95.024 121.930  0.00  0.00     0.109 C 
ATOM     16  O   LIG d   1      -2.475  95.401 119.641  0.00  0.00    -0.276 OA
ATOM     17  H   LIG d   1      -4.200  94.156 121.977  0.00  0.00     0.149 HD
ENDBRANCH   6  13
BRANCH   5  18
ATOM     18  N   LIG d   1      -5.296  96.744 119.483  0.00  0.00     0.381 N 
ATOM     19  H   LIG d   1      -5.952  97.392 119.095  0.00  0.00    -0.090 HD
ATOM     20  H   LIG d   1      -4.648  96.481 118.762  0.00  0.00    -0.090 HD
ATOM     21  H   LIG d   1      -4.807  97.169 120.240  0.00  0.00    -0.090 HD
ENDBRANCH   5  18
BRANCH   3  22
ATOM     22  C   LIG d   1      -9.152  93.968 118.889  0.00  0.00     0.382 C 
ATOM     23  O   LIG d   1      -9.606  94.663 117.948  0.00  0.00    -0.241 OA
ATOM     24  O   LIG d   1      -9.924  93.236 119.537  0.00  0.00    -0.241 OA
ENDBRANCH   3  22
TORSDOF 7
ENDMDL
