MODEL 1
REMARK VINA RESULT:      -4.8      0.000      0.000
REMARK  7 active torsions:
REMARK  status: ('A' for Active; 'I' for Inactive)
REMARK    1  A    between atoms: C_2  and  C_3 
REMARK    2  A    between atoms: C_3  and  O_6 
REMARK    3  A    between atoms: C_3  and  C_4 
REMARK    4  A    between atoms: C_7  and  O_6 
REMARK    5  A    between atoms: C_9  and  C_10 
REMARK    6  A    between atoms: N_15  and  C_14 
REMARK    7  A    between atoms: N_20  and  C_19 
REMARK       I    between atoms: C_22  and  N_20 
ROOT
ATOM      1  C   LIG d   1      -2.449  90.926 117.941  0.00  0.00     0.161 C 
ATOM      2  C   LIG d   1      -3.187  90.397 116.869  0.00  0.00     0.016 C 
ATOM      3  C   LIG d   1      -4.565  90.649 116.675  0.00  0.00     0.038 C 
ATOM      4  C   LIG d   1      -5.268  91.574 117.460  0.00  0.00     0.028 C 
ATOM      5  C   LIG d   1      -4.688  91.745 118.860  0.00  0.00    -0.047 C 
ATOM      6  C   LIG d   1      -3.172  92.027 118.744  0.00  0.00     0.091 C 
ENDROOT
BRANCH   1   7
ATOM      7  O   LIG d   1      -1.176  91.407 117.466  0.00  0.00    -0.368 OA
BRANCH   7   8
ATOM      8  C   LIG d   1      -0.054  90.504 117.623  0.00  0.00     0.119 C 
BRANCH   8   9
ATOM      9  C   LIG d   1       0.939  91.164 118.600  0.00  0.00     0.028 C 
ATOM     10  C   LIG d   1       1.317  92.593 118.175  0.00  0.00     0.006 C 
ENDBRANCH   8   9
BRANCH   8  11
ATOM     11  C   LIG d   1       0.718  90.339 116.311  0.00  0.00     0.028 C 
ATOM     12  C   LIG d   1       1.737  89.190 116.359  0.00  0.00     0.006 C 
ENDBRANCH   8  11
ENDBRANCH   7   8
ENDBRANCH   1   7
BRANCH   6  13
ATOM     13  N   LIG d   1      -2.510  92.124 120.071  0.00  0.00    -0.311 N 
ATOM     14  C   LIG d   1      -1.724  93.139 120.426  0.00  0.00     0.210 C 
ATOM     15  C   LIG d   1      -1.126  93.032 121.832  0.00  0.00     0.109 C 
ATOM     16  O   LIG d   1      -1.492  94.133 119.722  0.00  0.00    -0.276 OA
ATOM     17  H   LIG d   1      -2.670  91.375 120.716  0.00  0.00     0.149 HD
ENDBRANCH   6  13
BRANCH   5  18
ATOM     18  N   LIG d   1      -5.430  92.836 119.520  0.00  0.00     0.381 N 
ATOM     19  H   LIG d   1      -4.829  93.625 119.649  0.00  0.00    -0.090 HD
ATOM     20  H   LIG d   1      -5.735  92.521 120.424  0.00  0.00    -0.090 HD
ATOM     21  H   LIG d   1      -6.217  93.095 118.968  0.00  0.00    -0.090 HD
ENDBRANCH   5  18
BRANCH   3  22
ATOM     22  C   LIG d   1      -5.264  89.939 115.710  0.00  0.00     0.382 C 
ATOM     23  O   LIG d   1      -4.641  89.269 114.851  0.00  0.00    -0.241 OA
ATOM     24  O   LIG d   1      -6.507  89.996 115.660  0.00  0.00    -0.241 OA
ENDBRANCH   3  22
TORSDOF 7
ENDMDL
MODEL 2
REMARK VINA RESULT:      -4.8      2.559      5.497
REMARK  7 active torsions:
REMARK  status: ('A' for Active; 'I' for Inactive)
REMARK    1  A    between atoms: C_2  and  C_3 
REMARK    2  A    between atoms: C_3  and  O_6 
REMARK    3  A    between atoms: C_3  and  C_4 
REMARK    4  A    between atoms: C_7  and  O_6 
REMARK    5  A    between atoms: C_9  and  C_10 
REMARK    6  A    between atoms: N_15  and  C_14 
REMARK    7  A    between atoms: N_20  and  C_19 
REMARK       I    between atoms: C_22  and  N_20 
ROOT
ATOM      1  C   LIG d   1      -0.142  91.203 117.222  0.00  0.00     0.161 C 
ATOM      2  C   LIG d   1       0.550  90.335 116.362  0.00  0.00     0.016 C 
ATOM      3  C   LIG d   1       1.960  90.310 116.251  0.00  0.00     0.038 C 
ATOM      4  C   LIG d   1       2.784  91.053 117.110  0.00  0.00     0.028 C 
ATOM      5  C   LIG d   1       2.119  92.315 117.646  0.00  0.00    -0.047 C 
ATOM      6  C   LIG d   1       0.744  91.942 118.247  0.00  0.00     0.091 C 
ENDROOT
BRANCH   1   7
ATOM      7  O   LIG d   1      -1.195  90.486 117.896  0.00  0.00    -0.368 OA
BRANCH   7   8
ATOM      8  C   LIG d   1      -2.518  91.073 117.818  0.00  0.00     0.119 C 
BRANCH   8   9
ATOM      9  C   LIG d   1      -3.129  91.025 119.232  0.00  0.00     0.028 C 
ATOM     10  C   LIG d   1      -2.320  90.138 120.192  0.00  0.00     0.006 C 
ENDBRANCH   8   9
BRANCH   8  11
ATOM     11  C   LIG d   1      -3.451  90.230 116.944  0.00  0.00     0.028 C 
ATOM     12  C   LIG d   1      -4.800  90.917 116.678  0.00  0.00     0.006 C 
ENDBRANCH   8  11
ENDBRANCH   7   8
ENDBRANCH   1   7
BRANCH   6  13
ATOM     13  N   LIG d   1      -0.011  93.132 118.719  0.00  0.00    -0.311 N 
ATOM     14  C   LIG d   1      -0.292  93.360 120.000  0.00  0.00     0.210 C 
ATOM     15  C   LIG d   1      -1.098  94.636 120.268  0.00  0.00     0.109 C 
ATOM     16  O   LIG d   1       0.076  92.645 120.944  0.00  0.00    -0.276 OA
ATOM     17  H   LIG d   1      -0.321  93.781 118.023  0.00  0.00     0.149 HD
ENDBRANCH   6  13
BRANCH   5  18
ATOM     18  N   LIG d   1       3.036  92.918 118.632  0.00  0.00     0.381 N 
ATOM     19  H   LIG d   1       2.523  93.199 119.444  0.00  0.00    -0.090 HD
ATOM     20  H   LIG d   1       3.457  93.735 118.227  0.00  0.00    -0.090 HD
ATOM     21  H   LIG d   1       3.741  92.262 118.887  0.00  0.00    -0.090 HD
ENDBRANCH   5  18
BRANCH   3  22
ATOM     22  C   LIG d   1       2.557  89.565 115.246  0.00  0.00     0.382 C 
ATOM     23  O   LIG d   1       3.529  90.038 114.608  0.00  0.00    -0.241 OA
ATOM     24  O   LIG d   1       2.108  88.445 114.938  0.00  0.00    -0.241 OA
ENDBRANCH   3  22
TORSDOF 7
ENDMDL
MODEL 3
REMARK VINA RESULT:      -4.7      2.846      4.664
REMARK  7 active torsions:
REMARK  status: ('A' for Active; 'I' for Inactive)
REMARK    1  A    between atoms: C_2  and  C_3 
REMARK    2  A    between atoms: C_3  and  O_6 
REMARK    3  A    between atoms: C_3  and  C_4 
REMARK    4  A    between atoms: C_7  and  O_6 
REMARK    5  A    between atoms: C_9  and  C_10 
REMARK    6  A    between atoms: N_15  and  C_14 
REMARK    7  A    between atoms: N_20  and  C_19 
REMARK       I    between atoms: C_22  and  N_20 
ROOT
ATOM      1  C   LIG d   1       0.780  90.225 117.074  0.00  0.00     0.161 C 
ATOM      2  C   LIG d   1      -0.624  90.172 117.071  0.00  0.00     0.016 C 
ATOM      3  C   LIG d   1      -1.439  91.127 117.721  0.00  0.00     0.038 C 
ATOM      4  C   LIG d   1      -0.906  92.290 118.295  0.00  0.00     0.028 C 
ATOM      5  C   LIG d   1       0.537  92.129 118.760  0.00  0.00    -0.047 C 
ATOM      6  C   LIG d   1       1.377  91.547 117.600  0.00  0.00     0.091 C 
ENDROOT
BRANCH   1   7
ATOM      7  O   LIG d   1       1.282  89.938 115.754  0.00  0.00    -0.368 OA
BRANCH   7   8
ATOM      8  C   LIG d   1       2.258  88.871 115.661  0.00  0.00     0.119 C 
BRANCH   8   9
ATOM      9  C   LIG d   1       3.340  89.320 114.660  0.00  0.00     0.028 C 
ATOM     10  C   LIG d   1       4.734  89.413 115.304  0.00  0.00     0.006 C 
ENDBRANCH   8   9
BRANCH   8  11
ATOM     11  C   LIG d   1       1.644  87.606 115.055  0.00  0.00     0.028 C 
ATOM     12  C   LIG d   1       2.378  86.325 115.481  0.00  0.00     0.006 C 
ENDBRANCH   8  11
ENDBRANCH   7   8
ENDBRANCH   1   7
BRANCH   6  13
ATOM     13  N   LIG d   1       2.784  91.279 117.997  0.00  0.00    -0.311 N 
ATOM     14  C   LIG d   1       3.767  92.166 117.855  0.00  0.00     0.210 C 
ATOM     15  C   LIG d   1       5.147  91.680 118.310  0.00  0.00     0.109 C 
ATOM     16  O   LIG d   1       3.622  93.320 117.426  0.00  0.00    -0.276 OA
ATOM     17  H   LIG d   1       2.985  90.377 118.384  0.00  0.00     0.149 HD
ENDBRANCH   6  13
BRANCH   5  18
ATOM     18  N   LIG d   1       1.011  93.452 119.209  0.00  0.00     0.381 N 
ATOM     19  H   LIG d   1       1.945  93.377 119.559  0.00  0.00    -0.090 HD
ATOM     20  H   LIG d   1       0.420  93.773 119.955  0.00  0.00    -0.090 HD
ATOM     21  H   LIG d   1       0.984  94.099 118.452  0.00  0.00    -0.090 HD
ENDBRANCH   5  18
BRANCH   3  22
ATOM     22  C   LIG d   1      -2.803  90.901 117.837  0.00  0.00     0.382 C 
ATOM     23  O   LIG d   1      -3.221  89.815 118.306  0.00  0.00    -0.241 OA
ATOM     24  O   LIG d   1      -3.620  91.752 117.437  0.00  0.00    -0.241 OA
ENDBRANCH   3  22
TORSDOF 7
ENDMDL
MODEL 4
REMARK VINA RESULT:      -4.7      2.299      4.572
REMARK  7 active torsions:
REMARK  status: ('A' for Active; 'I' for Inactive)
REMARK    1  A    between atoms: C_2  and  C_3 
REMARK    2  A    between atoms: C_3  and  O_6 
REMARK    3  A    between atoms: C_3  and  C_4 
REMARK    4  A    between atoms: C_7  and  O_6 
REMARK    5  A    between atoms: C_9  and  C_10 
REMARK    6  A    between atoms: N_15  and  C_14 
REMARK    7  A    between atoms: N_20  and  C_19 
REMARK       I    between atoms: C_22  and  N_20 
ROOT
ATOM      1  C   LIG d   1      -3.906  92.136 119.119  0.00  0.00     0.161 C 
ATOM      2  C   LIG d   1      -5.043  91.807 118.363  0.00  0.00     0.016 C 
ATOM      3  C   LIG d   1      -4.995  91.025 117.186  0.00  0.00     0.038 C 
ATOM      4  C   LIG d   1      -3.818  90.388 116.766  0.00  0.00     0.028 C 
ATOM      5  C   LIG d   1      -2.549  91.103 117.217  0.00  0.00    -0.047 C 
ATOM      6  C   LIG d   1      -2.629  91.357 118.739  0.00  0.00     0.091 C 
ENDROOT
BRANCH   1   7
ATOM      7  O   LIG d   1      -4.191  91.976 120.523  0.00  0.00    -0.368 OA
BRANCH   7   8
ATOM      8  C   LIG d   1      -4.276  93.197 121.299  0.00  0.00     0.119 C 
BRANCH   8   9
ATOM      9  C   LIG d   1      -5.764  93.436 121.623  0.00  0.00     0.028 C 
ATOM     10  C   LIG d   1      -6.407  94.477 120.692  0.00  0.00     0.006 C 
ENDBRANCH   8   9
BRANCH   8  11
ATOM     11  C   LIG d   1      -3.840  94.412 120.475  0.00  0.00     0.028 C 
ATOM     12  C   LIG d   1      -2.601  95.112 121.056  0.00  0.00     0.006 C 
ENDBRANCH   8  11
ENDBRANCH   7   8
ENDBRANCH   1   7
BRANCH   6  13
ATOM     13  N   LIG d   1      -1.465  92.128 119.248  0.00  0.00    -0.311 N 
ATOM     14  C   LIG d   1      -0.378  91.559 119.765  0.00  0.00     0.210 C 
ATOM     15  C   LIG d   1       0.698  92.537 120.248  0.00  0.00     0.109 C 
ATOM     16  O   LIG d   1      -0.188  90.335 119.839  0.00  0.00    -0.276 OA
ATOM     17  H   LIG d   1      -1.521  93.127 119.196  0.00  0.00     0.149 HD
ENDBRANCH   6  13
BRANCH   5  18
ATOM     18  N   LIG d   1      -1.401  90.260 116.831  0.00  0.00     0.381 N 
ATOM     19  H   LIG d   1      -1.573  89.312 117.098  0.00  0.00    -0.090 HD
ATOM     20  H   LIG d   1      -0.583  90.582 117.318  0.00  0.00    -0.090 HD
ATOM     21  H   LIG d   1      -1.254  90.315 115.847  0.00  0.00    -0.090 HD
ENDBRANCH   5  18
BRANCH   3  22
ATOM     22  C   LIG d   1      -6.127  90.906 116.393  0.00  0.00     0.382 C 
ATOM     23  O   LIG d   1      -7.031  91.774 116.457  0.00  0.00    -0.241 OA
ATOM     24  O   LIG d   1      -6.275  89.920 115.646  0.00  0.00    -0.241 OA
ENDBRANCH   3  22
TORSDOF 7
ENDMDL
MODEL 5
REMARK VINA RESULT:      -4.6      2.026      4.908
REMARK  7 active torsions:
REMARK  status: ('A' for Active; 'I' for Inactive)
REMARK    1  A    between atoms: C_2  and  C_3 
REMARK    2  A    between atoms: C_3  and  O_6 
REMARK    3  A    between atoms: C_3  and  C_4 
REMARK    4  A    between atoms: C_7  and  O_6 
REMARK    5  A    between atoms: C_9  and  C_10 
REMARK    6  A    between atoms: N_15  and  C_14 
REMARK    7  A    between atoms: N_20  and  C_19 
REMARK       I    between atoms: C_22  and  N_20 
ROOT
ATOM      1  C   LIG d   1      -1.422  93.523 117.984  0.00  0.00     0.161 C 
ATOM      2  C   LIG d   1      -1.182  94.625 118.822  0.00  0.00     0.016 C 
ATOM      3  C   LIG d   1      -1.980  94.934 119.948  0.00  0.00     0.038 C 
ATOM      4  C   LIG d   1      -2.989  94.072 120.402  0.00  0.00     0.028 C 
ATOM      5  C   LIG d   1      -3.592  93.211 119.297  0.00  0.00    -0.047 C 
ATOM      6  C   LIG d   1      -2.450  92.509 118.527  0.00  0.00     0.091 C 
ENDROOT
BRANCH   1   7
ATOM      7  O   LIG d   1      -0.179  92.862 117.678  0.00  0.00    -0.368 OA
BRANCH   7   8
ATOM      8  C   LIG d   1       0.314  91.938 118.679  0.00  0.00     0.119 C 
BRANCH   8   9
ATOM      9  C   LIG d   1       1.646  92.501 119.212  0.00  0.00     0.028 C 
ATOM     10  C   LIG d   1       2.629  92.852 118.083  0.00  0.00     0.006 C 
ENDBRANCH   8   9
BRANCH   8  11
ATOM     11  C   LIG d   1       0.666  90.582 118.060  0.00  0.00     0.028 C 
ATOM     12  C   LIG d   1       0.333  90.506 116.562  0.00  0.00     0.006 C 
ENDBRANCH   8  11
ENDBRANCH   7   8
ENDBRANCH   1   7
BRANCH   6  13
ATOM     13  N   LIG d   1      -2.949  91.713 117.376  0.00  0.00    -0.311 N 
ATOM     14  C   LIG d   1      -3.240  90.415 117.452  0.00  0.00     0.210 C 
ATOM     15  C   LIG d   1      -3.720  89.782 116.143  0.00  0.00     0.109 C 
ATOM     16  O   LIG d   1      -3.177  89.737 118.488  0.00  0.00    -0.276 OA
ATOM     17  H   LIG d   1      -3.059  92.192 116.503  0.00  0.00     0.149 HD
ENDBRANCH   6  13
BRANCH   5  18
ATOM     18  N   LIG d   1      -4.530  92.265 119.931  0.00  0.00     0.381 N 
ATOM     19  H   LIG d   1      -4.018  91.555 120.416  0.00  0.00    -0.090 HD
ATOM     20  H   LIG d   1      -5.080  91.824 119.215  0.00  0.00    -0.090 HD
ATOM     21  H   LIG d   1      -5.125  92.749 120.566  0.00  0.00    -0.090 HD
ENDBRANCH   5  18
BRANCH   3  22
ATOM     22  C   LIG d   1      -1.797  96.140 120.609  0.00  0.00     0.382 C 
ATOM     23  O   LIG d   1      -0.876  96.259 121.452  0.00  0.00    -0.241 OA
ATOM     24  O   LIG d   1      -2.569  97.095 120.405  0.00  0.00    -0.241 OA
ENDBRANCH   3  22
TORSDOF 7
ENDMDL
MODEL 6
REMARK VINA RESULT:      -4.6      2.881      4.753
REMARK  7 active torsions:
REMARK  status: ('A' for Active; 'I' for Inactive)
REMARK    1  A    between atoms: C_2  and  C_3 
REMARK    2  A    between atoms: C_3  and  O_6 
REMARK    3  A    between atoms: C_3  and  C_4 
REMARK    4  A    between atoms: C_7  and  O_6 
REMARK    5  A    between atoms: C_9  and  C_10 
REMARK    6  A    between atoms: N_15  and  C_14 
REMARK    7  A    between atoms: N_20  and  C_19 
REMARK       I    between atoms: C_22  and  N_20 
ROOT
ATOM      1  C   LIG d   1       0.931  90.233 117.063  0.00  0.00     0.161 C 
ATOM      2  C   LIG d   1      -0.472  90.152 117.059  0.00  0.00     0.016 C 
ATOM      3  C   LIG d   1      -1.307  91.079 117.726  0.00  0.00     0.038 C 
ATOM      4  C   LIG d   1      -0.797  92.242 118.320  0.00  0.00     0.028 C 
ATOM      5  C   LIG d   1       0.650  92.102 118.783  0.00  0.00    -0.047 C 
ATOM      6  C   LIG d   1       1.500  91.558 117.613  0.00  0.00     0.091 C 
ENDROOT
BRANCH   1   7
ATOM      7  O   LIG d   1       1.439  89.980 115.738  0.00  0.00    -0.368 OA
BRANCH   7   8
ATOM      8  C   LIG d   1       2.034  88.678 115.522  0.00  0.00     0.119 C 
BRANCH   8   9
ATOM      9  C   LIG d   1       2.592  88.193 116.874  0.00  0.00     0.028 C 
ATOM     10  C   LIG d   1       2.757  86.665 116.927  0.00  0.00     0.006 C 
ENDBRANCH   8   9
BRANCH   8  11
ATOM     11  C   LIG d   1       3.247  88.767 114.591  0.00  0.00     0.028 C 
ATOM     12  C   LIG d   1       4.413  89.556 115.207  0.00  0.00     0.006 C 
ENDBRANCH   8  11
ENDBRANCH   7   8
ENDBRANCH   1   7
BRANCH   6  13
ATOM     13  N   LIG d   1       2.912  91.311 118.005  0.00  0.00    -0.311 N 
ATOM     14  C   LIG d   1       3.879  92.217 117.871  0.00  0.00     0.210 C 
ATOM     15  C   LIG d   1       5.269  91.752 118.319  0.00  0.00     0.109 C 
ATOM     16  O   LIG d   1       3.713  93.373 117.454  0.00  0.00    -0.276 OA
ATOM     17  H   LIG d   1       3.130  90.410 118.382  0.00  0.00     0.149 HD
ENDBRANCH   6  13
BRANCH   5  18
ATOM     18  N   LIG d   1       1.097  93.426 119.255  0.00  0.00     0.381 N 
ATOM     19  H   LIG d   1       1.092  94.077 118.495  0.00  0.00    -0.090 HD
ATOM     20  H   LIG d   1       2.038  93.348 119.598  0.00  0.00    -0.090 HD
ATOM     21  H   LIG d   1       0.496  93.750 119.982  0.00  0.00    -0.090 HD
ENDBRANCH   5  18
BRANCH   3  22
ATOM     22  C   LIG d   1      -2.665  90.823 117.837  0.00  0.00     0.382 C 
ATOM     23  O   LIG d   1      -3.497  91.675 117.442  0.00  0.00    -0.241 OA
ATOM     24  O   LIG d   1      -3.069  89.771 118.367  0.00  0.00    -0.241 OA
ENDBRANCH   3  22
TORSDOF 7
ENDMDL
MODEL 7
REMARK VINA RESULT:      -4.5      2.707      4.013
REMARK  7 active torsions:
REMARK  status: ('A' for Active; 'I' for Inactive)
REMARK    1  A    between atoms: C_2  and  C_3 
REMARK    2  A    between atoms: C_3  and  O_6 
REMARK    3  A    between atoms: C_3  and  C_4 
REMARK    4  A    between atoms: C_7  and  O_6 
REMARK    5  A    between atoms: C_9  and  C_10 
REMARK    6  A    between atoms: N_15  and  C_14 
REMARK    7  A    between atoms: N_20  and  C_19 
REMARK       I    between atoms: C_22  and  N_20 
ROOT
ATOM      1  C   LIG d   1       0.433  90.877 118.865  0.00  0.00     0.161 C 
ATOM      2  C   LIG d   1      -0.856  90.436 118.521  0.00  0.00     0.016 C 
ATOM      3  C   LIG d   1      -1.861  91.292 118.013  0.00  0.00     0.038 C 
ATOM      4  C   LIG d   1      -1.596  92.626 117.672  0.00  0.00     0.028 C 
ATOM      5  C   LIG d   1      -0.454  93.241 118.474  0.00  0.00    -0.047 C 
ATOM      6  C   LIG d   1       0.775  92.306 118.395  0.00  0.00     0.091 C 
ENDROOT
BRANCH   1   7
ATOM      7  O   LIG d   1       1.415  89.941 118.379  0.00  0.00    -0.368 OA
BRANCH   7   8
ATOM      8  C   LIG d   1       1.930  90.191 117.048  0.00  0.00     0.119 C 
BRANCH   8   9
ATOM      9  C   LIG d   1       1.171  89.267 116.077  0.00  0.00     0.028 C 
ATOM     10  C   LIG d   1       2.074  88.174 115.481  0.00  0.00     0.006 C 
ENDBRANCH   8   9
BRANCH   8  11
ATOM     11  C   LIG d   1       3.401  89.781 116.933  0.00  0.00     0.028 C 
ATOM     12  C   LIG d   1       4.110  89.719 118.295  0.00  0.00     0.006 C 
ENDBRANCH   8  11
ENDBRANCH   7   8
ENDBRANCH   1   7
BRANCH   6  13
ATOM     13  N   LIG d   1       1.910  92.792 119.222  0.00  0.00    -0.311 N 
ATOM     14  C   LIG d   1       3.069  93.200 118.709  0.00  0.00     0.210 C 
ATOM     15  C   LIG d   1       4.113  93.642 119.739  0.00  0.00     0.109 C 
ATOM     16  O   LIG d   1       3.321  93.268 117.496  0.00  0.00    -0.276 OA
ATOM     17  H   LIG d   1       1.781  92.800 120.215  0.00  0.00     0.149 HD
ENDBRANCH   6  13
BRANCH   5  18
ATOM     18  N   LIG d   1      -0.194  94.584 117.922  0.00  0.00     0.381 N 
ATOM     19  H   LIG d   1       0.558  95.016 118.421  0.00  0.00    -0.090 HD
ATOM     20  H   LIG d   1      -1.017  95.149 118.040  0.00  0.00    -0.090 HD
ATOM     21  H   LIG d   1       0.035  94.517 116.955  0.00  0.00    -0.090 HD
ENDBRANCH   5  18
BRANCH   3  22
ATOM     22  C   LIG d   1      -3.159  90.824 117.880  0.00  0.00     0.382 C 
ATOM     23  O   LIG d   1      -3.478  89.712 118.367  0.00  0.00    -0.241 OA
ATOM     24  O   LIG d   1      -4.005  91.478 117.242  0.00  0.00    -0.241 OA
ENDBRANCH   3  22
TORSDOF 7
ENDMDL
MODEL 8
REMARK VINA RESULT:      -4.5      3.661      7.459
REMARK  7 active torsions:
REMARK  status: ('A' for Active; 'I' for Inactive)
REMARK    1  A    between atoms: C_2  and  C_3 
REMARK    2  A    between atoms: C_3  and  O_6 
REMARK    3  A    between atoms: C_3  and  C_4 
REMARK    4  A    between atoms: C_7  and  O_6 
REMARK    5  A    between atoms: C_9  and  C_10 
REMARK    6  A    between atoms: N_15  and  C_14 
REMARK    7  A    between atoms: N_20  and  C_19 
REMARK       I    between atoms: C_22  and  N_20 
ROOT
ATOM      1  C   LIG d   1       1.087  91.451 118.220  0.00  0.00     0.161 C 
ATOM      2  C   LIG d   1       1.398  92.507 119.092  0.00  0.00     0.016 C 
ATOM      3  C   LIG d   1       2.710  93.001 119.278  0.00  0.00     0.038 C 
ATOM      4  C   LIG d   1       3.784  92.570 118.486  0.00  0.00     0.028 C 
ATOM      5  C   LIG d   1       3.610  91.153 117.949  0.00  0.00    -0.047 C 
ATOM      6  C   LIG d   1       2.229  91.042 117.265  0.00  0.00     0.091 C 
ENDROOT
BRANCH   1   7
ATOM      7  O   LIG d   1      -0.102  91.770 117.470  0.00  0.00    -0.368 OA
BRANCH   7   8
ATOM      8  C   LIG d   1      -1.330  91.865 118.234  0.00  0.00     0.119 C 
BRANCH   8   9
ATOM      9  C   LIG d   1      -2.246  90.711 117.781  0.00  0.00     0.028 C 
ATOM     10  C   LIG d   1      -2.846  89.938 118.968  0.00  0.00     0.006 C 
ENDBRANCH   8   9
BRANCH   8  11
ATOM     11  C   LIG d   1      -2.097  93.147 117.898  0.00  0.00     0.028 C 
ATOM     12  C   LIG d   1      -1.890  94.255 118.942  0.00  0.00     0.006 C 
ENDBRANCH   8  11
ENDBRANCH   7   8
ENDBRANCH   1   7
BRANCH   6  13
ATOM     13  N   LIG d   1       1.943  89.665 116.786  0.00  0.00    -0.311 N 
ATOM     14  C   LIG d   1       2.223  89.244 115.553  0.00  0.00     0.210 C 
ATOM     15  C   LIG d   1       1.828  87.794 115.259  0.00  0.00     0.109 C 
ATOM     16  O   LIG d   1       2.791  89.925 114.686  0.00  0.00    -0.276 OA
ATOM     17  H   LIG d   1       1.511  89.036 117.435  0.00  0.00     0.149 HD
ENDBRANCH   6  13
BRANCH   5  18
ATOM     18  N   LIG d   1       4.733  90.884 117.031  0.00  0.00     0.381 N 
ATOM     19  H   LIG d   1       4.443  91.040 116.086  0.00  0.00    -0.090 HD
ATOM     20  H   LIG d   1       5.004  89.920 117.123  0.00  0.00    -0.090 HD
ATOM     21  H   LIG d   1       5.504  91.475 117.252  0.00  0.00    -0.090 HD
ENDBRANCH   5  18
BRANCH   3  22
ATOM     22  C   LIG d   1       2.964  93.910 120.294  0.00  0.00     0.382 C 
ATOM     23  O   LIG d   1       2.012  94.509 120.852  0.00  0.00    -0.241 OA
ATOM     24  O   LIG d   1       4.134  94.172 120.629  0.00  0.00    -0.241 OA
ENDBRANCH   3  22
TORSDOF 7
ENDMDL
MODEL 9
REMARK VINA RESULT:      -4.5      2.894      6.328
REMARK  7 active torsions:
REMARK  status: ('A' for Active; 'I' for Inactive)
REMARK    1  A    between atoms: C_2  and  C_3 
REMARK    2  A    between atoms: C_3  and  O_6 
REMARK    3  A    between atoms: C_3  and  C_4 
REMARK    4  A    between atoms: C_7  and  O_6 
REMARK    5  A    between atoms: C_9  and  C_10 
REMARK    6  A    between atoms: N_15  and  C_14 
REMARK    7  A    between atoms: N_20  and  C_19 
REMARK       I    between atoms: C_22  and  N_20 
ROOT
ATOM      1  C   LIG d   1       1.426  90.446 116.636  0.00  0.00     0.161 C 
ATOM      2  C   LIG d   1       2.710  90.964 116.873  0.00  0.00     0.016 C 
ATOM      3  C   LIG d   1       2.966  92.031 117.764  0.00  0.00     0.038 C 
ATOM      4  C   LIG d   1       1.969  92.556 118.599  0.00  0.00     0.028 C 
ATOM      5  C   LIG d   1       0.562  92.406 118.030  0.00  0.00    -0.047 C 
ATOM      6  C   LIG d   1       0.341  90.931 117.620  0.00  0.00     0.091 C 
ENDROOT
BRANCH   1   7
ATOM      7  O   LIG d   1       1.476  89.005 116.617  0.00  0.00    -0.368 OA
BRANCH   7   8
ATOM      8  C   LIG d   1       2.748  88.417 116.250  0.00  0.00     0.119 C 
BRANCH   8   9
ATOM      9  C   LIG d   1       2.574  87.766 114.864  0.00  0.00     0.028 C 
ATOM     10  C   LIG d   1       1.298  86.912 114.773  0.00  0.00     0.006 C 
ENDBRANCH   8   9
BRANCH   8  11
ATOM     11  C   LIG d   1       3.124  87.270 117.192  0.00  0.00     0.028 C 
ATOM     12  C   LIG d   1       3.928  87.742 118.414  0.00  0.00     0.006 C 
ENDBRANCH   8  11
ENDBRANCH   7   8
ENDBRANCH   1   7
BRANCH   6  13
ATOM     13  N   LIG d   1      -0.980  90.714 116.976  0.00  0.00    -0.311 N 
ATOM     14  C   LIG d   1      -2.068  90.332 117.644  0.00  0.00     0.210 C 
ATOM     15  C   LIG d   1      -3.322  90.146 116.785  0.00  0.00     0.109 C 
ATOM     16  O   LIG d   1      -2.120  90.161 118.871  0.00  0.00    -0.276 OA
ATOM     17  H   LIG d   1      -1.035  90.860 115.987  0.00  0.00     0.149 HD
ENDBRANCH   6  13
BRANCH   5  18
ATOM     18  N   LIG d   1      -0.388  92.868 119.059  0.00  0.00     0.381 N 
ATOM     19  H   LIG d   1      -0.168  93.807 119.325  0.00  0.00    -0.090 HD
ATOM     20  H   LIG d   1      -0.298  92.282 119.871  0.00  0.00    -0.090 HD
ATOM     21  H   LIG d   1      -1.319  92.823 118.709  0.00  0.00    -0.090 HD
ENDBRANCH   5  18
BRANCH   3  22
ATOM     22  C   LIG d   1       4.226  92.611 117.798  0.00  0.00     0.382 C 
ATOM     23  O   LIG d   1       5.203  91.962 118.242  0.00  0.00    -0.241 OA
ATOM     24  O   LIG d   1       4.388  93.790 117.431  0.00  0.00    -0.241 OA
ENDBRANCH   3  22
TORSDOF 7
ENDMDL
