MODEL 1
REMARK VINA RESULT:      -5.3      0.000      0.000
REMARK  7 active torsions:
REMARK  status: ('A' for Active; 'I' for Inactive)
REMARK    1  A    between atoms: C_2  and  C_3 
REMARK    2  A    between atoms: C_3  and  O_6 
REMARK    3  A    between atoms: C_3  and  C_4 
REMARK    4  A    between atoms: C_7  and  O_6 
REMARK    5  A    between atoms: C_9  and  C_10 
REMARK    6  A    between atoms: N_15  and  C_14 
REMARK    7  A    between atoms: N_20  and  C_19 
REMARK       I    between atoms: C_22  and  N_20 
ROOT
ATOM      1  C   LIG d   1      -5.472  91.651 118.699  0.00  0.00     0.161 C 
ATOM      2  C   LIG d   1      -4.385  91.747 119.584  0.00  0.00     0.016 C 
ATOM      3  C   LIG d   1      -3.112  91.194 119.316  0.00  0.00     0.038 C 
ATOM      4  C   LIG d   1      -2.795  90.633 118.070  0.00  0.00     0.028 C 
ATOM      5  C   LIG d   1      -4.005  90.064 117.336  0.00  0.00    -0.047 C 
ATOM      6  C   LIG d   1      -5.114  91.139 117.288  0.00  0.00     0.091 C 
ENDROOT
BRANCH   1   7
ATOM      7  O   LIG d   1      -6.148  92.921 118.616  0.00  0.00    -0.368 OA
BRANCH   7   8
ATOM      8  C   LIG d   1      -6.206  93.694 119.840  0.00  0.00     0.119 C 
BRANCH   8   9
ATOM      9  C   LIG d   1      -7.691  93.981 120.136  0.00  0.00     0.028 C 
ATOM     10  C   LIG d   1      -8.021  95.482 120.080  0.00  0.00     0.006 C 
ENDBRANCH   8   9
BRANCH   8  11
ATOM     11  C   LIG d   1      -5.555  95.069 119.662  0.00  0.00     0.028 C 
ATOM     12  C   LIG d   1      -4.296  95.248 120.525  0.00  0.00     0.006 C 
ENDBRANCH   8  11
ENDBRANCH   7   8
ENDBRANCH   1   7
BRANCH   6  13
ATOM     13  N   LIG d   1      -6.364  90.637 116.662  0.00  0.00    -0.311 N 
ATOM     14  C   LIG d   1      -6.672  90.832 115.380  0.00  0.00     0.210 C 
ATOM     15  C   LIG d   1      -8.018  90.247 114.943  0.00  0.00     0.109 C 
ATOM     16  O   LIG d   1      -5.943  91.406 114.558  0.00  0.00    -0.276 OA
ATOM     17  H   LIG d   1      -6.999  90.133 117.250  0.00  0.00     0.149 HD
ENDBRANCH   6  13
BRANCH   5  18
ATOM     18  N   LIG d   1      -3.554  89.637 115.998  0.00  0.00     0.381 N 
ATOM     19  H   LIG d   1      -2.945  90.329 115.609  0.00  0.00    -0.090 HD
ATOM     20  H   LIG d   1      -4.356  89.551 115.398  0.00  0.00    -0.090 HD
ATOM     21  H   LIG d   1      -3.081  88.763 116.060  0.00  0.00    -0.090 HD
ENDBRANCH   5  18
BRANCH   3  22
ATOM     22  C   LIG d   1      -2.151  91.163 120.315  0.00  0.00     0.382 C 
ATOM     23  O   LIG d   1      -1.989  92.160 121.060  0.00  0.00    -0.241 OA
ATOM     24  O   LIG d   1      -1.415  90.167 120.454  0.00  0.00    -0.241 OA
ENDBRANCH   3  22
TORSDOF 7
ENDMDL
MODEL 2
REMARK VINA RESULT:      -5.3      2.659      6.109
REMARK  7 active torsions:
REMARK  status: ('A' for Active; 'I' for Inactive)
REMARK    1  A    between atoms: C_2  and  C_3 
REMARK    2  A    between atoms: C_3  and  O_6 
REMARK    3  A    between atoms: C_3  and  C_4 
REMARK    4  A    between atoms: C_7  and  O_6 
REMARK    5  A    between atoms: C_9  and  C_10 
REMARK    6  A    between atoms: N_15  and  C_14 
REMARK    7  A    between atoms: N_20  and  C_19 
REMARK       I    between atoms: C_22  and  N_20 
ROOT
ATOM      1  C   LIG d   1      -3.361  90.522 117.883  0.00  0.00     0.161 C 
ATOM      2  C   LIG d   1      -3.780  89.954 116.668  0.00  0.00     0.016 C 
ATOM      3  C   LIG d   1      -5.045  90.201 116.088  0.00  0.00     0.038 C 
ATOM      4  C   LIG d   1      -5.926  91.160 116.612  0.00  0.00     0.028 C 
ATOM      5  C   LIG d   1      -5.756  91.383 118.111  0.00  0.00    -0.047 C 
ATOM      6  C   LIG d   1      -4.264  91.656 118.412  0.00  0.00     0.091 C 
ENDROOT
BRANCH   1   7
ATOM      7  O   LIG d   1      -2.000  90.980 117.764  0.00  0.00    -0.368 OA
BRANCH   7   8
ATOM      8  C   LIG d   1      -0.978  90.075 118.250  0.00  0.00     0.119 C 
BRANCH   8   9
ATOM      9  C   LIG d   1      -0.556  90.561 119.650  0.00  0.00     0.028 C 
ATOM     10  C   LIG d   1      -1.126  89.680 120.774  0.00  0.00     0.006 C 
ENDBRANCH   8   9
BRANCH   8  11
ATOM     11  C   LIG d   1       0.290  90.154 117.395  0.00  0.00     0.028 C 
ATOM     12  C   LIG d   1       0.969  91.531 117.462  0.00  0.00     0.006 C 
ENDBRANCH   8  11
ENDBRANCH   7   8
ENDBRANCH   1   7
BRANCH   6  13
ATOM     13  N   LIG d   1      -3.996  91.802 119.866  0.00  0.00    -0.311 N 
ATOM     14  C   LIG d   1      -3.350  92.842 120.391  0.00  0.00     0.210 C 
ATOM     15  C   LIG d   1      -3.164  92.786 121.911  0.00  0.00     0.109 C 
ATOM     16  O   LIG d   1      -2.943  93.820 119.747  0.00  0.00    -0.276 OA
ATOM     17  H   LIG d   1      -4.320  91.069 120.466  0.00  0.00     0.149 HD
ENDBRANCH   6  13
BRANCH   5  18
ATOM     18  N   LIG d   1      -6.637  92.501 118.498  0.00  0.00     0.381 N 
ATOM     19  H   LIG d   1      -7.568  92.326 118.176  0.00  0.00    -0.090 HD
ATOM     20  H   LIG d   1      -6.305  93.343 118.060  0.00  0.00    -0.090 HD
ATOM     21  H   LIG d   1      -6.635  92.610 119.488  0.00  0.00    -0.090 HD
ENDBRANCH   5  18
BRANCH   3  22
ATOM     22  C   LIG d   1      -5.458  89.457 114.994  0.00  0.00     0.382 C 
ATOM     23  O   LIG d   1      -4.656  88.674 114.430  0.00  0.00    -0.241 OA
ATOM     24  O   LIG d   1      -6.608  89.591 114.536  0.00  0.00    -0.241 OA
ENDBRANCH   3  22
TORSDOF 7
ENDMDL
MODEL 3
REMARK VINA RESULT:      -5.3      1.719      4.869
REMARK  7 active torsions:
REMARK  status: ('A' for Active; 'I' for Inactive)
REMARK    1  A    between atoms: C_2  and  C_3 
REMARK    2  A    between atoms: C_3  and  O_6 
REMARK    3  A    between atoms: C_3  and  C_4 
REMARK    4  A    between atoms: C_7  and  O_6 
REMARK    5  A    between atoms: C_9  and  C_10 
REMARK    6  A    between atoms: N_15  and  C_14 
REMARK    7  A    between atoms: N_20  and  C_19 
REMARK       I    between atoms: C_22  and  N_20 
ROOT
ATOM      1  C   LIG d   1      -5.229  91.768 118.105  0.00  0.00     0.161 C 
ATOM      2  C   LIG d   1      -6.386  91.326 117.442  0.00  0.00     0.016 C 
ATOM      3  C   LIG d   1      -6.378  90.319 116.449  0.00  0.00     0.038 C 
ATOM      4  C   LIG d   1      -5.225  89.574 116.159  0.00  0.00     0.028 C 
ATOM      5  C   LIG d   1      -3.930  90.328 116.442  0.00  0.00    -0.047 C 
ATOM      6  C   LIG d   1      -3.980  90.890 117.881  0.00  0.00     0.091 C 
ENDROOT
BRANCH   1   7
ATOM      7  O   LIG d   1      -5.497  91.907 119.514  0.00  0.00    -0.368 OA
BRANCH   7   8
ATOM      8  C   LIG d   1      -5.344  93.239 120.063  0.00  0.00     0.119 C 
BRANCH   8   9
ATOM      9  C   LIG d   1      -4.312  93.153 121.205  0.00  0.00     0.028 C 
ATOM     10  C   LIG d   1      -4.117  91.715 121.713  0.00  0.00     0.006 C 
ENDBRANCH   8   9
BRANCH   8  11
ATOM     11  C   LIG d   1      -6.639  93.723 120.723  0.00  0.00     0.028 C 
ATOM     12  C   LIG d   1      -7.677  94.218 119.705  0.00  0.00     0.006 C 
ENDBRANCH   8  11
ENDBRANCH   7   8
ENDBRANCH   1   7
BRANCH   6  13
ATOM     13  N   LIG d   1      -2.787  91.713 118.210  0.00  0.00    -0.311 N 
ATOM     14  C   LIG d   1      -1.719  91.233 118.844  0.00  0.00     0.210 C 
ATOM     15  C   LIG d   1      -0.608  92.256 119.103  0.00  0.00     0.109 C 
ATOM     16  O   LIG d   1      -1.572  90.051 119.189  0.00  0.00    -0.276 OA
ATOM     17  H   LIG d   1      -2.809  92.676 117.939  0.00  0.00     0.149 HD
ENDBRANCH   6  13
BRANCH   5  18
ATOM     18  N   LIG d   1      -2.812  89.389 116.226  0.00  0.00     0.381 N 
ATOM     19  H   LIG d   1      -1.949  89.828 116.476  0.00  0.00    -0.090 HD
ATOM     20  H   LIG d   1      -2.774  89.148 115.252  0.00  0.00    -0.090 HD
ATOM     21  H   LIG d   1      -2.946  88.568 116.774  0.00  0.00    -0.090 HD
ENDBRANCH   5  18
BRANCH   3  22
ATOM     22  C   LIG d   1      -7.524  90.076 115.708  0.00  0.00     0.382 C 
ATOM     23  O   LIG d   1      -8.008  90.982 114.987  0.00  0.00    -0.241 OA
ATOM     24  O   LIG d   1      -8.104  88.976 115.784  0.00  0.00    -0.241 OA
ENDBRANCH   3  22
TORSDOF 7
ENDMDL
MODEL 4
REMARK VINA RESULT:      -5.1      2.459      4.897
REMARK  7 active torsions:
REMARK  status: ('A' for Active; 'I' for Inactive)
REMARK    1  A    between atoms: C_2  and  C_3 
REMARK    2  A    between atoms: C_3  and  O_6 
REMARK    3  A    between atoms: C_3  and  C_4 
REMARK    4  A    between atoms: C_7  and  O_6 
REMARK    5  A    between atoms: C_9  and  C_10 
REMARK    6  A    between atoms: N_15  and  C_14 
REMARK    7  A    between atoms: N_20  and  C_19 
REMARK       I    between atoms: C_22  and  N_20 
ROOT
ATOM      1  C   LIG d   1      -3.412  90.833 117.598  0.00  0.00     0.161 C 
ATOM      2  C   LIG d   1      -2.212  90.121 117.430  0.00  0.00     0.016 C 
ATOM      3  C   LIG d   1      -1.201  90.056 118.416  0.00  0.00     0.038 C 
ATOM      4  C   LIG d   1      -1.388  90.577 119.705  0.00  0.00     0.028 C 
ATOM      5  C   LIG d   1      -2.376  91.738 119.752  0.00  0.00    -0.047 C 
ATOM      6  C   LIG d   1      -3.681  91.316 119.039  0.00  0.00     0.091 C 
ENDROOT
BRANCH   1   7
ATOM      7  O   LIG d   1      -4.519  90.045 117.118  0.00  0.00    -0.368 OA
BRANCH   7   8
ATOM      8  C   LIG d   1      -5.334  90.653 116.085  0.00  0.00     0.119 C 
BRANCH   8   9
ATOM      9  C   LIG d   1      -6.771  90.756 116.631  0.00  0.00     0.028 C 
ATOM     10  C   LIG d   1      -7.674  89.620 116.123  0.00  0.00     0.006 C 
ENDBRANCH   8   9
BRANCH   8  11
ATOM     11  C   LIG d   1      -5.432  89.751 114.851  0.00  0.00     0.028 C 
ATOM     12  C   LIG d   1      -4.305  88.708 114.784  0.00  0.00     0.006 C 
ENDBRANCH   8  11
ENDBRANCH   7   8
ENDBRANCH   1   7
BRANCH   6  13
ATOM     13  N   LIG d   1      -4.670  92.422 118.965  0.00  0.00    -0.311 N 
ATOM     14  C   LIG d   1      -5.623  92.615 119.876  0.00  0.00     0.210 C 
ATOM     15  C   LIG d   1      -6.551  93.802 119.599  0.00  0.00     0.109 C 
ATOM     16  O   LIG d   1      -5.768  91.935 120.903  0.00  0.00    -0.276 OA
ATOM     17  H   LIG d   1      -4.606  93.040 118.180  0.00  0.00     0.149 HD
ENDBRANCH   6  13
BRANCH   5  18
ATOM     18  N   LIG d   1      -2.580  92.093 121.169  0.00  0.00     0.381 N 
ATOM     19  H   LIG d   1      -1.734  92.470 121.549  0.00  0.00    -0.090 HD
ATOM     20  H   LIG d   1      -2.813  91.261 121.682  0.00  0.00    -0.090 HD
ATOM     21  H   LIG d   1      -3.315  92.760 121.251  0.00  0.00    -0.090 HD
ENDBRANCH   5  18
BRANCH   3  22
ATOM     22  C   LIG d   1       0.029  89.498 118.103  0.00  0.00     0.382 C 
ATOM     23  O   LIG d   1       0.810  89.148 119.020  0.00  0.00    -0.241 OA
ATOM     24  O   LIG d   1       0.385  89.380 116.915  0.00  0.00    -0.241 OA
ENDBRANCH   3  22
TORSDOF 7
ENDMDL
MODEL 5
REMARK VINA RESULT:      -5.1      3.120      6.883
REMARK  7 active torsions:
REMARK  status: ('A' for Active; 'I' for Inactive)
REMARK    1  A    between atoms: C_2  and  C_3 
REMARK    2  A    between atoms: C_3  and  O_6 
REMARK    3  A    between atoms: C_3  and  C_4 
REMARK    4  A    between atoms: C_7  and  O_6 
REMARK    5  A    between atoms: C_9  and  C_10 
REMARK    6  A    between atoms: N_15  and  C_14 
REMARK    7  A    between atoms: N_20  and  C_19 
REMARK       I    between atoms: C_22  and  N_20 
ROOT
ATOM      1  C   LIG d   1      -2.225  90.042 117.570  0.00  0.00     0.161 C 
ATOM      2  C   LIG d   1      -3.066  89.563 116.552  0.00  0.00     0.016 C 
ATOM      3  C   LIG d   1      -4.389  90.020 116.356  0.00  0.00     0.038 C 
ATOM      4  C   LIG d   1      -4.913  91.105 117.075  0.00  0.00     0.028 C 
ATOM      5  C   LIG d   1      -4.278  91.283 118.450  0.00  0.00    -0.047 C 
ATOM      6  C   LIG d   1      -2.741  91.304 118.294  0.00  0.00     0.091 C 
ENDROOT
BRANCH   1   7
ATOM      7  O   LIG d   1      -0.903  90.272 117.044  0.00  0.00    -0.368 OA
BRANCH   7   8
ATOM      8  C   LIG d   1       0.128  89.356 117.489  0.00  0.00     0.119 C 
BRANCH   8   9
ATOM      9  C   LIG d   1       1.188  90.184 118.242  0.00  0.00     0.028 C 
ATOM     10  C   LIG d   1       1.206  91.656 117.800  0.00  0.00     0.006 C 
ENDBRANCH   8   9
BRANCH   8  11
ATOM     11  C   LIG d   1       0.868  88.732 116.303  0.00  0.00     0.028 C 
ATOM     12  C   LIG d   1       0.596  87.226 116.157  0.00  0.00     0.006 C 
ENDBRANCH   8  11
ENDBRANCH   7   8
ENDBRANCH   1   7
BRANCH   6  13
ATOM     13  N   LIG d   1      -2.039  91.390 119.602  0.00  0.00    -0.311 N 
ATOM     14  C   LIG d   1      -1.580  92.531 120.113  0.00  0.00     0.210 C 
ATOM     15  C   LIG d   1      -0.870  92.395 121.464  0.00  0.00     0.109 C 
ATOM     16  O   LIG d   1      -1.722  93.647 119.592  0.00  0.00    -0.276 OA
ATOM     17  H   LIG d   1      -1.909  90.536 120.107  0.00  0.00     0.149 HD
ENDBRANCH   6  13
BRANCH   5  18
ATOM     18  N   LIG d   1      -4.818  92.526 119.032  0.00  0.00     0.381 N 
ATOM     19  H   LIG d   1      -5.661  92.784 118.560  0.00  0.00    -0.090 HD
ATOM     20  H   LIG d   1      -4.147  93.263 118.904  0.00  0.00    -0.090 HD
ATOM     21  H   LIG d   1      -4.999  92.398 120.004  0.00  0.00    -0.090 HD
ENDBRANCH   5  18
BRANCH   3  22
ATOM     22  C   LIG d   1      -5.217  89.364 115.458  0.00  0.00     0.382 C 
ATOM     23  O   LIG d   1      -6.447  89.273 115.690  0.00  0.00    -0.241 OA
ATOM     24  O   LIG d   1      -4.743  88.824 114.440  0.00  0.00    -0.241 OA
ENDBRANCH   3  22
TORSDOF 7
ENDMDL
MODEL 6
REMARK VINA RESULT:      -5.0      1.593      4.667
REMARK  7 active torsions:
REMARK  status: ('A' for Active; 'I' for Inactive)
REMARK    1  A    between atoms: C_2  and  C_3 
REMARK    2  A    between atoms: C_3  and  O_6 
REMARK    3  A    between atoms: C_3  and  C_4 
REMARK    4  A    between atoms: C_7  and  O_6 
REMARK    5  A    between atoms: C_9  and  C_10 
REMARK    6  A    between atoms: N_15  and  C_14 
REMARK    7  A    between atoms: N_20  and  C_19 
REMARK       I    between atoms: C_22  and  N_20 
ROOT
ATOM      1  C   LIG d   1      -4.742  91.742 118.799  0.00  0.00     0.161 C 
ATOM      2  C   LIG d   1      -5.729  91.640 117.805  0.00  0.00     0.016 C 
ATOM      3  C   LIG d   1      -5.560  90.895 116.615  0.00  0.00     0.038 C 
ATOM      4  C   LIG d   1      -4.442  90.073 116.407  0.00  0.00     0.028 C 
ATOM      5  C   LIG d   1      -3.198  90.541 117.155  0.00  0.00    -0.047 C 
ATOM      6  C   LIG d   1      -3.560  90.762 118.641  0.00  0.00     0.091 C 
ENDROOT
BRANCH   1   7
ATOM      7  O   LIG d   1      -5.344  91.596 120.101  0.00  0.00    -0.368 OA
BRANCH   7   8
ATOM      8  C   LIG d   1      -5.324  92.771 120.948  0.00  0.00     0.119 C 
BRANCH   8   9
ATOM      9  C   LIG d   1      -6.784  93.226 121.141  0.00  0.00     0.028 C 
ATOM     10  C   LIG d   1      -7.220  94.261 120.091  0.00  0.00     0.006 C 
ENDBRANCH   8   9
BRANCH   8  11
ATOM     11  C   LIG d   1      -4.622  93.944 120.258  0.00  0.00     0.028 C 
ATOM     12  C   LIG d   1      -3.410  94.461 121.049  0.00  0.00     0.006 C 
ENDBRANCH   8  11
ENDBRANCH   7   8
ENDBRANCH   1   7
BRANCH   6  13
ATOM     13  N   LIG d   1      -2.421  91.302 119.428  0.00  0.00    -0.311 N 
ATOM     14  C   LIG d   1      -2.039  90.802 120.602  0.00  0.00     0.210 C 
ATOM     15  C   LIG d   1      -0.853  91.519 121.255  0.00  0.00     0.109 C 
ATOM     16  O   LIG d   1      -2.548  89.812 121.149  0.00  0.00    -0.276 OA
ATOM     17  H   LIG d   1      -1.931  92.085 119.043  0.00  0.00     0.149 HD
ENDBRANCH   6  13
BRANCH   5  18
ATOM     18  N   LIG d   1      -2.151  89.521 116.961  0.00  0.00     0.381 N 
ATOM     19  H   LIG d   1      -1.866  89.155 117.847  0.00  0.00    -0.090 HD
ATOM     20  H   LIG d   1      -1.354  89.952 116.526  0.00  0.00    -0.090 HD
ATOM     21  H   LIG d   1      -2.495  88.785 116.384  0.00  0.00    -0.090 HD
ENDBRANCH   5  18
BRANCH   3  22
ATOM     22  C   LIG d   1      -6.498  91.000 115.599  0.00  0.00     0.382 C 
ATOM     23  O   LIG d   1      -6.150  91.403 114.463  0.00  0.00    -0.241 OA
ATOM     24  O   LIG d   1      -7.696  90.740 115.817  0.00  0.00    -0.241 OA
ENDBRANCH   3  22
TORSDOF 7
ENDMDL
MODEL 7
REMARK VINA RESULT:      -4.8      5.322      8.908
REMARK  7 active torsions:
REMARK  status: ('A' for Active; 'I' for Inactive)
REMARK    1  A    between atoms: C_2  and  C_3 
REMARK    2  A    between atoms: C_3  and  O_6 
REMARK    3  A    between atoms: C_3  and  C_4 
REMARK    4  A    between atoms: C_7  and  O_6 
REMARK    5  A    between atoms: C_9  and  C_10 
REMARK    6  A    between atoms: N_15  and  C_14 
REMARK    7  A    between atoms: N_20  and  C_19 
REMARK       I    between atoms: C_22  and  N_20 
ROOT
ATOM      1  C   LIG d   1       0.833  89.474 117.134  0.00  0.00     0.161 C 
ATOM      2  C   LIG d   1      -0.545  89.222 117.024  0.00  0.00     0.016 C 
ATOM      3  C   LIG d   1      -1.536  90.049 117.601  0.00  0.00     0.038 C 
ATOM      4  C   LIG d   1      -1.219  91.277 118.201  0.00  0.00     0.028 C 
ATOM      5  C   LIG d   1       0.192  91.323 118.777  0.00  0.00    -0.047 C 
ATOM      6  C   LIG d   1       1.193  90.868 117.690  0.00  0.00     0.091 C 
ENDROOT
BRANCH   1   7
ATOM      7  O   LIG d   1       1.471  89.264 115.859  0.00  0.00    -0.368 OA
BRANCH   7   8
ATOM      8  C   LIG d   1       2.338  88.107 115.763  0.00  0.00     0.119 C 
BRANCH   8   9
ATOM      9  C   LIG d   1       3.749  88.615 115.406  0.00  0.00     0.028 C 
ATOM     10  C   LIG d   1       4.807  88.180 116.434  0.00  0.00     0.006 C 
ENDBRANCH   8   9
BRANCH   8  11
ATOM     11  C   LIG d   1       1.929  87.198 114.600  0.00  0.00     0.028 C 
ATOM     12  C   LIG d   1       0.688  86.348 114.917  0.00  0.00     0.006 C 
ENDBRANCH   8  11
ENDBRANCH   7   8
ENDBRANCH   1   7
BRANCH   6  13
ATOM     13  N   LIG d   1       2.589  90.804 118.196  0.00  0.00    -0.311 N 
ATOM     14  C   LIG d   1       3.568  91.586 117.746  0.00  0.00     0.210 C 
ATOM     15  C   LIG d   1       4.937  91.343 118.388  0.00  0.00     0.109 C 
ATOM     16  O   LIG d   1       3.426  92.481 116.899  0.00  0.00    -0.276 OA
ATOM     17  H   LIG d   1       2.786  90.127 118.907  0.00  0.00     0.149 HD
ENDBRANCH   6  13
BRANCH   5  18
ATOM     18  N   LIG d   1       0.437  92.700 119.247  0.00  0.00     0.381 N 
ATOM     19  H   LIG d   1       0.152  92.787 120.203  0.00  0.00    -0.090 HD
ATOM     20  H   LIG d   1      -0.114  93.334 118.695  0.00  0.00    -0.090 HD
ATOM     21  H   LIG d   1       1.403  92.924 119.159  0.00  0.00    -0.090 HD
ENDBRANCH   5  18
BRANCH   3  22
ATOM     22  C   LIG d   1      -2.858  89.631 117.614  0.00  0.00     0.382 C 
ATOM     23  O   LIG d   1      -3.486  89.574 118.699  0.00  0.00    -0.241 OA
ATOM     24  O   LIG d   1      -3.416  89.267 116.562  0.00  0.00    -0.241 OA
ENDBRANCH   3  22
TORSDOF 7
ENDMDL
MODEL 8
REMARK VINA RESULT:      -4.8      5.062      7.956
REMARK  7 active torsions:
REMARK  status: ('A' for Active; 'I' for Inactive)
REMARK    1  A    between atoms: C_2  and  C_3 
REMARK    2  A    between atoms: C_3  and  O_6 
REMARK    3  A    between atoms: C_3  and  C_4 
REMARK    4  A    between atoms: C_7  and  O_6 
REMARK    5  A    between atoms: C_9  and  C_10 
REMARK    6  A    between atoms: N_15  and  C_14 
REMARK    7  A    between atoms: N_20  and  C_19 
REMARK       I    between atoms: C_22  and  N_20 
ROOT
ATOM      1  C   LIG d   1       0.948  89.511 116.564  0.00  0.00     0.161 C 
ATOM      2  C   LIG d   1       2.245  90.013 116.762  0.00  0.00     0.016 C 
ATOM      3  C   LIG d   1       2.512  91.257 117.380  0.00  0.00     0.038 C 
ATOM      4  C   LIG d   1       1.499  92.017 117.983  0.00  0.00     0.028 C 
ATOM      5  C   LIG d   1       0.123  91.793 117.364  0.00  0.00    -0.047 C 
ATOM      6  C   LIG d   1      -0.163  90.275 117.314  0.00  0.00     0.091 C 
ENDROOT
BRANCH   1   7
ATOM      7  O   LIG d   1       0.910  88.111 116.903  0.00  0.00    -0.368 OA
BRANCH   7   8
ATOM      8  C   LIG d   1       1.926  87.279 116.291  0.00  0.00     0.119 C 
BRANCH   8   9
ATOM      9  C   LIG d   1       1.264  86.524 115.122  0.00  0.00     0.028 C 
ATOM     10  C   LIG d   1      -0.173  86.084 115.446  0.00  0.00     0.006 C 
ENDBRANCH   8   9
BRANCH   8  11
ATOM     11  C   LIG d   1       2.409  86.190 117.254  0.00  0.00     0.028 C 
ATOM     12  C   LIG d   1       2.556  86.695 118.699  0.00  0.00     0.006 C 
ENDBRANCH   8  11
ENDBRANCH   7   8
ENDBRANCH   1   7
BRANCH   6  13
ATOM     13  N   LIG d   1      -1.453  89.963 116.645  0.00  0.00    -0.311 N 
ATOM     14  C   LIG d   1      -2.592  89.763 117.306  0.00  0.00     0.210 C 
ATOM     15  C   LIG d   1      -3.802  89.434 116.426  0.00  0.00     0.109 C 
ATOM     16  O   LIG d   1      -2.722  89.857 118.536  0.00  0.00    -0.276 OA
ATOM     17  H   LIG d   1      -1.445  89.899 115.646  0.00  0.00     0.149 HD
ENDBRANCH   6  13
BRANCH   5  18
ATOM     18  N   LIG d   1      -0.857  92.540 118.174  0.00  0.00     0.381 N 
ATOM     19  H   LIG d   1      -0.473  92.733 119.078  0.00  0.00    -0.090 HD
ATOM     20  H   LIG d   1      -1.678  91.974 118.295  0.00  0.00    -0.090 HD
ATOM     21  H   LIG d   1      -1.097  93.393 117.718  0.00  0.00    -0.090 HD
ENDBRANCH   5  18
BRANCH   3  22
ATOM     22  C   LIG d   1       3.800  91.769 117.365  0.00  0.00     0.382 C 
ATOM     23  O   LIG d   1       4.004  92.941 116.964  0.00  0.00    -0.241 OA
ATOM     24  O   LIG d   1       4.766  91.060 117.705  0.00  0.00    -0.241 OA
ENDBRANCH   3  22
TORSDOF 7
ENDMDL
MODEL 9
REMARK VINA RESULT:      -4.7      5.317      8.831
REMARK  7 active torsions:
REMARK  status: ('A' for Active; 'I' for Inactive)
REMARK    1  A    between atoms: C_2  and  C_3 
REMARK    2  A    between atoms: C_3  and  O_6 
REMARK    3  A    between atoms: C_3  and  C_4 
REMARK    4  A    between atoms: C_7  and  O_6 
REMARK    5  A    between atoms: C_9  and  C_10 
REMARK    6  A    between atoms: N_15  and  C_14 
REMARK    7  A    between atoms: N_20  and  C_19 
REMARK       I    between atoms: C_22  and  N_20 
ROOT
ATOM      1  C   LIG d   1       0.775  89.243 116.946  0.00  0.00     0.161 C 
ATOM      2  C   LIG d   1      -0.617  89.055 116.917  0.00  0.00     0.016 C 
ATOM      3  C   LIG d   1      -1.536  89.951 117.510  0.00  0.00     0.038 C 
ATOM      4  C   LIG d   1      -1.130  91.182 118.045  0.00  0.00     0.028 C 
ATOM      5  C   LIG d   1       0.310  91.180 118.546  0.00  0.00    -0.047 C 
ATOM      6  C   LIG d   1       1.229  90.636 117.429  0.00  0.00     0.091 C 
ENDROOT
BRANCH   1   7
ATOM      7  O   LIG d   1       1.334  88.954 115.650  0.00  0.00    -0.368 OA
BRANCH   7   8
ATOM      8  C   LIG d   1       1.813  87.602 115.449  0.00  0.00     0.119 C 
BRANCH   8   9
ATOM      9  C   LIG d   1       2.184  87.031 116.832  0.00  0.00     0.028 C 
ATOM     10  C   LIG d   1       1.750  85.565 116.997  0.00  0.00     0.006 C 
ENDBRANCH   8   9
BRANCH   8  11
ATOM     11  C   LIG d   1       3.115  87.586 114.642  0.00  0.00     0.028 C 
ATOM     12  C   LIG d   1       4.117  88.654 115.106  0.00  0.00     0.006 C 
ENDBRANCH   8  11
ENDBRANCH   7   8
ENDBRANCH   1   7
BRANCH   6  13
ATOM     13  N   LIG d   1       2.645  90.522 117.865  0.00  0.00    -0.311 N 
ATOM     14  C   LIG d   1       3.572  91.440 117.596  0.00  0.00     0.210 C 
ATOM     15  C   LIG d   1       4.974  91.117 118.121  0.00  0.00     0.109 C 
ATOM     16  O   LIG d   1       3.358  92.507 117.001  0.00  0.00    -0.276 OA
ATOM     17  H   LIG d   1       2.898  89.702 118.381  0.00  0.00     0.149 HD
ENDBRANCH   6  13
BRANCH   5  18
ATOM     18  N   LIG d   1       0.644  92.559 118.949  0.00  0.00     0.381 N 
ATOM     19  H   LIG d   1       0.826  92.590 119.932  0.00  0.00    -0.090 HD
ATOM     20  H   LIG d   1      -0.143  93.154 118.755  0.00  0.00    -0.090 HD
ATOM     21  H   LIG d   1       1.442  92.878 118.445  0.00  0.00    -0.090 HD
ENDBRANCH   5  18
BRANCH   3  22
ATOM     22  C   LIG d   1      -2.874  89.599 117.607  0.00  0.00     0.382 C 
ATOM     23  O   LIG d   1      -3.504  89.244 116.582  0.00  0.00    -0.241 OA
ATOM     24  O   LIG d   1      -3.470  89.675 118.698  0.00  0.00    -0.241 OA
ENDBRANCH   3  22
TORSDOF 7
ENDMDL
