MODEL 1
REMARK VINA RESULT:      -5.5      0.000      0.000
REMARK  7 active torsions:
REMARK  status: ('A' for Active; 'I' for Inactive)
REMARK    1  A    between atoms: C_2  and  C_3 
REMARK    2  A    between atoms: C_3  and  O_6 
REMARK    3  A    between atoms: C_3  and  C_4 
REMARK    4  A    between atoms: C_7  and  O_6 
REMARK    5  A    between atoms: C_9  and  C_10 
REMARK    6  A    between atoms: N_15  and  C_14 
REMARK    7  A    between atoms: N_20  and  C_19 
REMARK       I    between atoms: C_22  and  N_20 
ROOT
ATOM      1  C   LIG d   1      -6.437  93.208 117.349  0.00  0.00     0.161 C 
ATOM      2  C   LIG d   1      -7.184  92.298 116.584  0.00  0.00     0.016 C 
ATOM      3  C   LIG d   1      -6.668  91.068 116.114  0.00  0.00     0.038 C 
ATOM      4  C   LIG d   1      -5.408  90.594 116.508  0.00  0.00     0.028 C 
ATOM      5  C   LIG d   1      -4.427  91.706 116.866  0.00  0.00    -0.047 C 
ATOM      6  C   LIG d   1      -5.097  92.658 117.882  0.00  0.00     0.091 C 
ENDROOT
BRANCH   1   7
ATOM      7  O   LIG d   1      -7.240  93.709 118.436  0.00  0.00    -0.368 OA
BRANCH   7   8
ATOM      8  C   LIG d   1      -7.302  95.150 118.572  0.00  0.00     0.119 C 
BRANCH   8   9
ATOM      9  C   LIG d   1      -6.856  95.500 120.005  0.00  0.00     0.028 C 
ATOM     10  C   LIG d   1      -6.869  94.277 120.938  0.00  0.00     0.006 C 
ENDBRANCH   8   9
BRANCH   8  11
ATOM     11  C   LIG d   1      -8.742  95.660 118.460  0.00  0.00     0.028 C 
ATOM     12  C   LIG d   1      -8.820  97.149 118.088  0.00  0.00     0.006 C 
ENDBRANCH   8  11
ENDBRANCH   7   8
ENDBRANCH   1   7
BRANCH   6  13
ATOM     13  N   LIG d   1      -4.236  93.821 118.222  0.00  0.00    -0.311 N 
ATOM     14  C   LIG d   1      -3.452  93.864 119.297  0.00  0.00     0.210 C 
ATOM     15  C   LIG d   1      -2.662  95.165 119.471  0.00  0.00     0.109 C 
ATOM     16  O   LIG d   1      -3.311  92.935 120.107  0.00  0.00    -0.276 OA
ATOM     17  H   LIG d   1      -4.265  94.607 117.601  0.00  0.00     0.149 HD
ENDBRANCH   6  13
BRANCH   5  18
ATOM     18  N   LIG d   1      -3.204  91.069 117.389  0.00  0.00     0.381 N 
ATOM     19  H   LIG d   1      -2.576  91.770 117.728  0.00  0.00    -0.090 HD
ATOM     20  H   LIG d   1      -2.750  90.574 116.641  0.00  0.00    -0.090 HD
ATOM     21  H   LIG d   1      -3.436  90.437 118.123  0.00  0.00    -0.090 HD
ENDBRANCH   5  18
BRANCH   3  22
ATOM     22  C   LIG d   1      -7.401  90.317 115.208  0.00  0.00     0.382 C 
ATOM     23  O   LIG d   1      -8.653  90.394 115.197  0.00  0.00    -0.241 OA
ATOM     24  O   LIG d   1      -6.828  89.530 114.430  0.00  0.00    -0.241 OA
ENDBRANCH   3  22
TORSDOF 7
ENDMDL
MODEL 2
REMARK VINA RESULT:      -5.3      2.288      4.733
REMARK  7 active torsions:
REMARK  status: ('A' for Active; 'I' for Inactive)
REMARK    1  A    between atoms: C_2  and  C_3 
REMARK    2  A    between atoms: C_3  and  O_6 
REMARK    3  A    between atoms: C_3  and  C_4 
REMARK    4  A    between atoms: C_7  and  O_6 
REMARK    5  A    between atoms: C_9  and  C_10 
REMARK    6  A    between atoms: N_15  and  C_14 
REMARK    7  A    between atoms: N_20  and  C_19 
REMARK       I    between atoms: C_22  and  N_20 
ROOT
ATOM      1  C   LIG d   1      -4.596  91.337 117.540  0.00  0.00     0.161 C 
ATOM      2  C   LIG d   1      -5.363  90.714 116.541  0.00  0.00     0.016 C 
ATOM      3  C   LIG d   1      -6.541  91.276 116.000  0.00  0.00     0.038 C 
ATOM      4  C   LIG d   1      -6.954  92.579 116.316  0.00  0.00     0.028 C 
ATOM      5  C   LIG d   1      -6.492  93.044 117.693  0.00  0.00    -0.047 C 
ATOM      6  C   LIG d   1      -4.969  92.808 117.818  0.00  0.00     0.091 C 
ENDROOT
BRANCH   1   7
ATOM      7  O   LIG d   1      -3.195  91.227 117.221  0.00  0.00    -0.368 OA
BRANCH   7   8
ATOM      8  C   LIG d   1      -2.375  90.523 118.186  0.00  0.00     0.119 C 
BRANCH   8   9
ATOM      9  C   LIG d   1      -0.904  90.705 117.764  0.00  0.00     0.028 C 
ATOM     10  C   LIG d   1      -0.225  91.877 118.491  0.00  0.00     0.006 C 
ENDBRANCH   8   9
BRANCH   8  11
ATOM     11  C   LIG d   1      -2.628  89.014 118.137  0.00  0.00     0.028 C 
ATOM     12  C   LIG d   1      -2.733  88.381 119.534  0.00  0.00     0.006 C 
ENDBRANCH   8  11
ENDBRANCH   7   8
ENDBRANCH   1   7
BRANCH   6  13
ATOM     13  N   LIG d   1      -4.450  93.157 119.166  0.00  0.00    -0.311 N 
ATOM     14  C   LIG d   1      -3.380  93.926 119.363  0.00  0.00     0.210 C 
ATOM     15  C   LIG d   1      -3.003  94.145 120.831  0.00  0.00     0.109 C 
ATOM     16  O   LIG d   1      -2.727  94.473 118.462  0.00  0.00    -0.276 OA
ATOM     17  H   LIG d   1      -4.939  92.781 119.954  0.00  0.00     0.149 HD
ENDBRANCH   6  13
BRANCH   5  18
ATOM     18  N   LIG d   1      -6.872  94.462 117.836  0.00  0.00     0.381 N 
ATOM     19  H   LIG d   1      -6.304  95.026 117.236  0.00  0.00    -0.090 HD
ATOM     20  H   LIG d   1      -6.709  94.748 118.785  0.00  0.00    -0.090 HD
ATOM     21  H   LIG d   1      -7.833  94.582 117.606  0.00  0.00    -0.090 HD
ENDBRANCH   5  18
BRANCH   3  22
ATOM     22  C   LIG d   1      -7.343  90.517 115.161  0.00  0.00     0.382 C 
ATOM     23  O   LIG d   1      -8.579  90.728 115.115  0.00  0.00    -0.241 OA
ATOM     24  O   LIG d   1      -6.853  89.594 114.484  0.00  0.00    -0.241 OA
ENDBRANCH   3  22
TORSDOF 7
ENDMDL
MODEL 3
REMARK VINA RESULT:      -5.3      2.211      4.955
REMARK  7 active torsions:
REMARK  status: ('A' for Active; 'I' for Inactive)
REMARK    1  A    between atoms: C_2  and  C_3 
REMARK    2  A    between atoms: C_3  and  O_6 
REMARK    3  A    between atoms: C_3  and  C_4 
REMARK    4  A    between atoms: C_7  and  O_6 
REMARK    5  A    between atoms: C_9  and  C_10 
REMARK    6  A    between atoms: N_15  and  C_14 
REMARK    7  A    between atoms: N_20  and  C_19 
REMARK       I    between atoms: C_22  and  N_20 
ROOT
ATOM      1  C   LIG d   1      -6.252  93.151 119.488  0.00  0.00     0.161 C 
ATOM      2  C   LIG d   1      -7.512  93.659 119.129  0.00  0.00     0.016 C 
ATOM      3  C   LIG d   1      -7.746  95.021 118.833  0.00  0.00     0.038 C 
ATOM      4  C   LIG d   1      -6.698  95.948 118.729  0.00  0.00     0.028 C 
ATOM      5  C   LIG d   1      -5.482  95.586 119.575  0.00  0.00    -0.047 C 
ATOM      6  C   LIG d   1      -5.076  94.126 119.271  0.00  0.00     0.091 C 
ENDROOT
BRANCH   1   7
ATOM      7  O   LIG d   1      -6.009  91.911 118.794  0.00  0.00    -0.368 OA
BRANCH   7   8
ATOM      8  C   LIG d   1      -5.612  92.025 117.405  0.00  0.00     0.119 C 
BRANCH   8   9
ATOM      9  C   LIG d   1      -6.704  91.346 116.555  0.00  0.00     0.028 C 
ATOM     10  C   LIG d   1      -7.392  92.328 115.592  0.00  0.00     0.006 C 
ENDBRANCH   8   9
BRANCH   8  11
ATOM     11  C   LIG d   1      -4.331  91.235 117.125  0.00  0.00     0.028 C 
ATOM     12  C   LIG d   1      -3.846  90.433 118.344  0.00  0.00     0.006 C 
ENDBRANCH   8  11
ENDBRANCH   7   8
ENDBRANCH   1   7
BRANCH   6  13
ATOM     13  N   LIG d   1      -3.946  93.663 120.119  0.00  0.00    -0.311 N 
ATOM     14  C   LIG d   1      -2.676  93.678 119.719  0.00  0.00     0.210 C 
ATOM     15  C   LIG d   1      -1.670  93.139 120.741  0.00  0.00     0.109 C 
ATOM     16  O   LIG d   1      -2.283  94.117 118.628  0.00  0.00    -0.276 OA
ATOM     17  H   LIG d   1      -4.172  93.321 121.032  0.00  0.00     0.149 HD
ENDBRANCH   6  13
BRANCH   5  18
ATOM     18  N   LIG d   1      -4.418  96.559 119.266  0.00  0.00     0.381 N 
ATOM     19  H   LIG d   1      -4.825  97.423 118.967  0.00  0.00    -0.090 HD
ATOM     20  H   LIG d   1      -3.856  96.198 118.515  0.00  0.00    -0.090 HD
ATOM     21  H   LIG d   1      -3.851  96.711 120.071  0.00  0.00    -0.090 HD
ENDBRANCH   5  18
BRANCH   3  22
ATOM     22  C   LIG d   1      -9.046  95.477 118.677  0.00  0.00     0.382 C 
ATOM     23  O   LIG d   1      -9.257  96.622 118.209  0.00  0.00    -0.241 OA
ATOM     24  O   LIG d   1     -10.009  94.775 119.040  0.00  0.00    -0.241 OA
ENDBRANCH   3  22
TORSDOF 7
ENDMDL
MODEL 4
REMARK VINA RESULT:      -5.1      2.184      4.565
REMARK  7 active torsions:
REMARK  status: ('A' for Active; 'I' for Inactive)
REMARK    1  A    between atoms: C_2  and  C_3 
REMARK    2  A    between atoms: C_3  and  O_6 
REMARK    3  A    between atoms: C_3  and  C_4 
REMARK    4  A    between atoms: C_7  and  O_6 
REMARK    5  A    between atoms: C_9  and  C_10 
REMARK    6  A    between atoms: N_15  and  C_14 
REMARK    7  A    between atoms: N_20  and  C_19 
REMARK       I    between atoms: C_22  and  N_20 
ROOT
ATOM      1  C   LIG d   1      -4.639  91.816 117.668  0.00  0.00     0.161 C 
ATOM      2  C   LIG d   1      -5.137  90.877 116.749  0.00  0.00     0.016 C 
ATOM      3  C   LIG d   1      -6.396  90.999 116.117  0.00  0.00     0.038 C 
ATOM      4  C   LIG d   1      -7.182  92.154 116.249  0.00  0.00     0.028 C 
ATOM      5  C   LIG d   1      -6.950  92.899 117.559  0.00  0.00    -0.047 C 
ATOM      6  C   LIG d   1      -5.433  93.136 117.739  0.00  0.00     0.091 C 
ENDROOT
BRANCH   1   7
ATOM      7  O   LIG d   1      -3.249  92.081 117.391  0.00  0.00    -0.368 OA
BRANCH   7   8
ATOM      8  C   LIG d   1      -2.302  91.630 118.390  0.00  0.00     0.119 C 
BRANCH   8   9
ATOM      9  C   LIG d   1      -1.366  92.812 118.709  0.00  0.00     0.028 C 
ATOM     10  C   LIG d   1      -1.664  94.046 117.841  0.00  0.00     0.006 C 
ENDBRANCH   8   9
BRANCH   8  11
ATOM     11  C   LIG d   1      -1.392  90.529 117.837  0.00  0.00     0.028 C 
ATOM     12  C   LIG d   1      -1.910  89.116 118.146  0.00  0.00     0.006 C 
ENDBRANCH   8  11
ENDBRANCH   7   8
ENDBRANCH   1   7
BRANCH   6  13
ATOM     13  N   LIG d   1      -5.112  93.786 119.037  0.00  0.00    -0.311 N 
ATOM     14  C   LIG d   1      -5.400  93.244 120.219  0.00  0.00     0.210 C 
ATOM     15  C   LIG d   1      -5.000  94.089 121.432  0.00  0.00     0.109 C 
ATOM     16  O   LIG d   1      -5.919  92.129 120.378  0.00  0.00    -0.276 OA
ATOM     17  H   LIG d   1      -4.661  94.679 119.001  0.00  0.00     0.149 HD
ENDBRANCH   6  13
BRANCH   5  18
ATOM     18  N   LIG d   1      -7.729  94.151 117.503  0.00  0.00     0.381 N 
ATOM     19  H   LIG d   1      -8.455  94.068 116.820  0.00  0.00    -0.090 HD
ATOM     20  H   LIG d   1      -7.119  94.900 117.227  0.00  0.00    -0.090 HD
ATOM     21  H   LIG d   1      -8.124  94.346 118.396  0.00  0.00    -0.090 HD
ENDBRANCH   5  18
BRANCH   3  22
ATOM     22  C   LIG d   1      -6.898  89.941 115.375  0.00  0.00     0.382 C 
ATOM     23  O   LIG d   1      -6.224  89.463 114.431  0.00  0.00    -0.241 OA
ATOM     24  O   LIG d   1      -8.034  89.488 115.610  0.00  0.00    -0.241 OA
ENDBRANCH   3  22
TORSDOF 7
ENDMDL
MODEL 5
REMARK VINA RESULT:      -5.1      1.952      4.683
REMARK  7 active torsions:
REMARK  status: ('A' for Active; 'I' for Inactive)
REMARK    1  A    between atoms: C_2  and  C_3 
REMARK    2  A    between atoms: C_3  and  O_6 
REMARK    3  A    between atoms: C_3  and  C_4 
REMARK    4  A    between atoms: C_7  and  O_6 
REMARK    5  A    between atoms: C_9  and  C_10 
REMARK    6  A    between atoms: N_15  and  C_14 
REMARK    7  A    between atoms: N_20  and  C_19 
REMARK       I    between atoms: C_22  and  N_20 
ROOT
ATOM      1  C   LIG d   1      -6.907  92.183 119.309  0.00  0.00     0.161 C 
ATOM      2  C   LIG d   1      -6.011  92.435 120.361  0.00  0.00     0.016 C 
ATOM      3  C   LIG d   1      -4.609  92.309 120.235  0.00  0.00     0.038 C 
ATOM      4  C   LIG d   1      -3.994  92.067 118.998  0.00  0.00     0.028 C 
ATOM      5  C   LIG d   1      -4.883  91.309 118.018  0.00  0.00    -0.047 C 
ATOM      6  C   LIG d   1      -6.249  92.026 117.922  0.00  0.00     0.091 C 
ENDROOT
BRANCH   1   7
ATOM      7  O   LIG d   1      -7.917  93.211 119.270  0.00  0.00    -0.368 OA
BRANCH   7   8
ATOM      8  C   LIG d   1      -7.473  94.553 119.586  0.00  0.00     0.119 C 
BRANCH   8   9
ATOM      9  C   LIG d   1      -8.535  95.189 120.504  0.00  0.00     0.028 C 
ATOM     10  C   LIG d   1      -9.245  94.149 121.387  0.00  0.00     0.006 C 
ENDBRANCH   8   9
BRANCH   8  11
ATOM     11  C   LIG d   1      -7.436  95.437 118.335  0.00  0.00     0.028 C 
ATOM     12  C   LIG d   1      -8.471  96.573 118.378  0.00  0.00     0.006 C 
ENDBRANCH   8  11
ENDBRANCH   7   8
ENDBRANCH   1   7
BRANCH   6  13
ATOM     13  N   LIG d   1      -7.209  91.303 117.048  0.00  0.00    -0.311 N 
ATOM     14  C   LIG d   1      -7.377  91.581 115.756  0.00  0.00     0.210 C 
ATOM     15  C   LIG d   1      -8.432  90.729 115.043  0.00  0.00     0.109 C 
ATOM     16  O   LIG d   1      -6.731  92.431 115.126  0.00  0.00    -0.276 OA
ATOM     17  H   LIG d   1      -7.752  90.576 117.471  0.00  0.00     0.149 HD
ENDBRANCH   6  13
BRANCH   5  18
ATOM     18  N   LIG d   1      -4.171  91.246 116.727  0.00  0.00     0.381 N 
ATOM     19  H   LIG d   1      -4.795  91.488 115.984  0.00  0.00    -0.090 HD
ATOM     20  H   LIG d   1      -3.851  90.306 116.578  0.00  0.00    -0.090 HD
ATOM     21  H   LIG d   1      -3.395  91.871 116.735  0.00  0.00    -0.090 HD
ENDBRANCH   5  18
BRANCH   3  22
ATOM     22  C   LIG d   1      -3.808  92.386 121.365  0.00  0.00     0.382 C 
ATOM     23  O   LIG d   1      -3.442  93.505 121.798  0.00  0.00    -0.241 OA
ATOM     24  O   LIG d   1      -3.411  91.350 121.930  0.00  0.00    -0.241 OA
ENDBRANCH   3  22
TORSDOF 7
ENDMDL
MODEL 6
REMARK VINA RESULT:      -5.0      1.146      2.077
REMARK  7 active torsions:
REMARK  status: ('A' for Active; 'I' for Inactive)
REMARK    1  A    between atoms: C_2  and  C_3 
REMARK    2  A    between atoms: C_3  and  O_6 
REMARK    3  A    between atoms: C_3  and  C_4 
REMARK    4  A    between atoms: C_7  and  O_6 
REMARK    5  A    between atoms: C_9  and  C_10 
REMARK    6  A    between atoms: N_15  and  C_14 
REMARK    7  A    between atoms: N_20  and  C_19 
REMARK       I    between atoms: C_22  and  N_20 
ROOT
ATOM      1  C   LIG d   1      -5.779  93.376 117.787  0.00  0.00     0.161 C 
ATOM      2  C   LIG d   1      -6.664  92.457 117.199  0.00  0.00     0.016 C 
ATOM      3  C   LIG d   1      -6.267  91.181 116.735  0.00  0.00     0.038 C 
ATOM      4  C   LIG d   1      -4.979  90.676 116.967  0.00  0.00     0.028 C 
ATOM      5  C   LIG d   1      -3.918  91.763 117.106  0.00  0.00    -0.047 C 
ATOM      6  C   LIG d   1      -4.395  92.799 118.149  0.00  0.00     0.091 C 
ENDROOT
BRANCH   1   7
ATOM      7  O   LIG d   1      -6.393  93.971 118.947  0.00  0.00    -0.368 OA
BRANCH   7   8
ATOM      8  C   LIG d   1      -7.421  93.185 119.598  0.00  0.00     0.119 C 
BRANCH   8   9
ATOM      9  C   LIG d   1      -8.474  94.166 120.150  0.00  0.00     0.028 C 
ATOM     10  C   LIG d   1      -8.908  95.209 119.107  0.00  0.00     0.006 C 
ENDBRANCH   8   9
BRANCH   8  11
ATOM     11  C   LIG d   1      -6.869  92.452 120.824  0.00  0.00     0.028 C 
ATOM     12  C   LIG d   1      -7.920  92.262 121.929  0.00  0.00     0.006 C 
ENDBRANCH   8  11
ENDBRANCH   7   8
ENDBRANCH   1   7
BRANCH   6  13
ATOM     13  N   LIG d   1      -3.453  93.941 118.285  0.00  0.00    -0.311 N 
ATOM     14  C   LIG d   1      -3.010  94.390 119.457  0.00  0.00     0.210 C 
ATOM     15  C   LIG d   1      -2.062  95.591 119.373  0.00  0.00     0.109 C 
ATOM     16  O   LIG d   1      -3.286  93.889 120.557  0.00  0.00    -0.276 OA
ATOM     17  H   LIG d   1      -3.153  94.387 117.440  0.00  0.00     0.149 HD
ENDBRANCH   6  13
BRANCH   5  18
ATOM     18  N   LIG d   1      -2.652  91.104 117.482  0.00  0.00     0.381 N 
ATOM     19  H   LIG d   1      -1.907  91.456 116.915  0.00  0.00    -0.090 HD
ATOM     20  H   LIG d   1      -2.737  90.117 117.314  0.00  0.00    -0.090 HD
ATOM     21  H   LIG d   1      -2.454  91.270 118.444  0.00  0.00    -0.090 HD
ENDBRANCH   5  18
BRANCH   3  22
ATOM     22  C   LIG d   1      -7.152  90.412 115.995  0.00  0.00     0.382 C 
ATOM     23  O   LIG d   1      -8.383  90.650 116.046  0.00  0.00    -0.241 OA
ATOM     24  O   LIG d   1      -6.740  89.456 115.312  0.00  0.00    -0.241 OA
ENDBRANCH   3  22
TORSDOF 7
ENDMDL
MODEL 7
REMARK VINA RESULT:      -4.8      1.544      1.804
REMARK  7 active torsions:
REMARK  status: ('A' for Active; 'I' for Inactive)
REMARK    1  A    between atoms: C_2  and  C_3 
REMARK    2  A    between atoms: C_3  and  O_6 
REMARK    3  A    between atoms: C_3  and  C_4 
REMARK    4  A    between atoms: C_7  and  O_6 
REMARK    5  A    between atoms: C_9  and  C_10 
REMARK    6  A    between atoms: N_15  and  C_14 
REMARK    7  A    between atoms: N_20  and  C_19 
REMARK       I    between atoms: C_22  and  N_20 
ROOT
ATOM      1  C   LIG d   1      -5.725  93.181 118.587  0.00  0.00     0.161 C 
ATOM      2  C   LIG d   1      -6.702  92.438 117.904  0.00  0.00     0.016 C 
ATOM      3  C   LIG d   1      -6.399  91.340 117.066  0.00  0.00     0.038 C 
ATOM      4  C   LIG d   1      -5.102  90.814 116.972  0.00  0.00     0.028 C 
ATOM      5  C   LIG d   1      -4.010  91.843 117.247  0.00  0.00    -0.047 C 
ATOM      6  C   LIG d   1      -4.315  92.554 118.585  0.00  0.00     0.091 C 
ENDROOT
BRANCH   1   7
ATOM      7  O   LIG d   1      -6.159  93.434 119.938  0.00  0.00    -0.368 OA
BRANCH   7   8
ATOM      8  C   LIG d   1      -6.751  94.733 120.185  0.00  0.00     0.119 C 
BRANCH   8   9
ATOM      9  C   LIG d   1      -5.653  95.637 120.777  0.00  0.00     0.028 C 
ATOM     10  C   LIG d   1      -5.160  96.695 119.774  0.00  0.00     0.006 C 
ENDBRANCH   8   9
BRANCH   8  11
ATOM     11  C   LIG d   1      -7.836  94.655 121.263  0.00  0.00     0.028 C 
ATOM     12  C   LIG d   1      -9.113  93.954 120.774  0.00  0.00     0.006 C 
ENDBRANCH   8  11
ENDBRANCH   7   8
ENDBRANCH   1   7
BRANCH   6  13
ATOM     13  N   LIG d   1      -3.341  93.634 118.889  0.00  0.00    -0.311 N 
ATOM     14  C   LIG d   1      -2.585  93.654 119.985  0.00  0.00     0.210 C 
ATOM     15  C   LIG d   1      -1.662  94.870 120.113  0.00  0.00     0.109 C 
ATOM     16  O   LIG d   1      -2.568  92.763 120.848  0.00  0.00    -0.276 OA
ATOM     17  H   LIG d   1      -3.268  94.381 118.226  0.00  0.00     0.149 HD
ENDBRANCH   6  13
BRANCH   5  18
ATOM     18  N   LIG d   1      -2.718  91.131 117.253  0.00  0.00     0.381 N 
ATOM     19  H   LIG d   1      -2.211  91.355 118.085  0.00  0.00    -0.090 HD
ATOM     20  H   LIG d   1      -2.177  91.434 116.462  0.00  0.00    -0.090 HD
ATOM     21  H   LIG d   1      -2.870  90.147 117.203  0.00  0.00    -0.090 HD
ENDBRANCH   5  18
BRANCH   3  22
ATOM     22  C   LIG d   1      -7.394  90.782 116.278  0.00  0.00     0.382 C 
ATOM     23  O   LIG d   1      -8.189  91.524 115.653  0.00  0.00    -0.241 OA
ATOM     24  O   LIG d   1      -7.535  89.546 116.221  0.00  0.00    -0.241 OA
ENDBRANCH   3  22
TORSDOF 7
ENDMDL
MODEL 8
REMARK VINA RESULT:      -4.8      2.671      6.458
REMARK  7 active torsions:
REMARK  status: ('A' for Active; 'I' for Inactive)
REMARK    1  A    between atoms: C_2  and  C_3 
REMARK    2  A    between atoms: C_3  and  O_6 
REMARK    3  A    between atoms: C_3  and  C_4 
REMARK    4  A    between atoms: C_7  and  O_6 
REMARK    5  A    between atoms: C_9  and  C_10 
REMARK    6  A    between atoms: N_15  and  C_14 
REMARK    7  A    between atoms: N_20  and  C_19 
REMARK       I    between atoms: C_22  and  N_20 
ROOT
ATOM      1  C   LIG d   1      -4.624  91.964 118.383  0.00  0.00     0.161 C 
ATOM      2  C   LIG d   1      -4.580  92.943 119.389  0.00  0.00     0.016 C 
ATOM      3  C   LIG d   1      -5.549  93.964 119.523  0.00  0.00     0.038 C 
ATOM      4  C   LIG d   1      -6.717  93.985 118.747  0.00  0.00     0.028 C 
ATOM      5  C   LIG d   1      -6.553  93.312 117.388  0.00  0.00    -0.047 C 
ATOM      6  C   LIG d   1      -5.949  91.904 117.595  0.00  0.00     0.091 C 
ENDROOT
BRANCH   1   7
ATOM      7  O   LIG d   1      -4.316  90.672 118.944  0.00  0.00    -0.368 OA
BRANCH   7   8
ATOM      8  C   LIG d   1      -2.928  90.263 118.877  0.00  0.00     0.119 C 
BRANCH   8   9
ATOM      9  C   LIG d   1      -2.286  90.994 117.682  0.00  0.00     0.028 C 
ATOM     10  C   LIG d   1      -0.764  91.150 117.837  0.00  0.00     0.006 C 
ENDBRANCH   8   9
BRANCH   8  11
ATOM     11  C   LIG d   1      -2.802  88.771 118.554  0.00  0.00     0.028 C 
ATOM     12  C   LIG d   1      -1.964  88.005 119.590  0.00  0.00     0.006 C 
ENDBRANCH   8  11
ENDBRANCH   7   8
ENDBRANCH   1   7
BRANCH   6  13
ATOM     13  N   LIG d   1      -5.678  91.209 116.310  0.00  0.00    -0.311 N 
ATOM     14  C   LIG d   1      -6.485  90.285 115.791  0.00  0.00     0.210 C 
ATOM     15  C   LIG d   1      -6.008  89.680 114.467  0.00  0.00     0.109 C 
ATOM     16  O   LIG d   1      -7.567  89.933 116.285  0.00  0.00    -0.276 OA
ATOM     17  H   LIG d   1      -4.836  91.456 115.826  0.00  0.00     0.149 HD
ENDBRANCH   6  13
BRANCH   5  18
ATOM     18  N   LIG d   1      -7.879  93.283 116.742  0.00  0.00     0.381 N 
ATOM     19  H   LIG d   1      -8.087  92.353 116.436  0.00  0.00    -0.090 HD
ATOM     20  H   LIG d   1      -7.861  93.883 115.936  0.00  0.00    -0.090 HD
ATOM     21  H   LIG d   1      -8.577  93.594 117.381  0.00  0.00    -0.090 HD
ENDBRANCH   5  18
BRANCH   3  22
ATOM     22  C   LIG d   1      -5.334  95.002 120.417  0.00  0.00     0.382 C 
ATOM     23  O   LIG d   1      -5.393  94.788 121.652  0.00  0.00    -0.241 OA
ATOM     24  O   LIG d   1      -5.126  96.158 120.004  0.00  0.00    -0.241 OA
ENDBRANCH   3  22
TORSDOF 7
ENDMDL
MODEL 9
REMARK VINA RESULT:      -4.7      2.674      6.589
REMARK  7 active torsions:
REMARK  status: ('A' for Active; 'I' for Inactive)
REMARK    1  A    between atoms: C_2  and  C_3 
REMARK    2  A    between atoms: C_3  and  O_6 
REMARK    3  A    between atoms: C_3  and  C_4 
REMARK    4  A    between atoms: C_7  and  O_6 
REMARK    5  A    between atoms: C_9  and  C_10 
REMARK    6  A    between atoms: N_15  and  C_14 
REMARK    7  A    between atoms: N_20  and  C_19 
REMARK       I    between atoms: C_22  and  N_20 
ROOT
ATOM      1  C   LIG d   1      -3.796  92.369 117.438  0.00  0.00     0.161 C 
ATOM      2  C   LIG d   1      -3.347  93.251 118.434  0.00  0.00     0.016 C 
ATOM      3  C   LIG d   1      -4.213  94.055 119.210  0.00  0.00     0.038 C 
ATOM      4  C   LIG d   1      -5.608  93.919 119.145  0.00  0.00     0.028 C 
ATOM      5  C   LIG d   1      -6.104  93.405 117.797  0.00  0.00    -0.047 C 
ATOM      6  C   LIG d   1      -5.320  92.125 117.429  0.00  0.00     0.091 C 
ENDROOT
BRANCH   1   7
ATOM      7  O   LIG d   1      -3.089  91.117 117.539  0.00  0.00    -0.368 OA
BRANCH   7   8
ATOM      8  C   LIG d   1      -1.932  91.107 118.411  0.00  0.00     0.119 C 
BRANCH   8   9
ATOM      9  C   LIG d   1      -0.710  90.724 117.554  0.00  0.00     0.028 C 
ATOM     10  C   LIG d   1       0.568  90.562 118.394  0.00  0.00     0.006 C 
ENDBRANCH   8   9
BRANCH   8  11
ATOM     11  C   LIG d   1      -2.043  90.008 119.472  0.00  0.00     0.028 C 
ATOM     12  C   LIG d   1      -2.753  88.748 118.952  0.00  0.00     0.006 C 
ENDBRANCH   8  11
ENDBRANCH   7   8
ENDBRANCH   1   7
BRANCH   6  13
ATOM     13  N   LIG d   1      -5.684  91.604 116.086  0.00  0.00    -0.311 N 
ATOM     14  C   LIG d   1      -6.567  90.626 115.894  0.00  0.00     0.210 C 
ATOM     15  C   LIG d   1      -6.782  90.226 114.430  0.00  0.00     0.109 C 
ATOM     16  O   LIG d   1      -7.218  90.074 116.793  0.00  0.00    -0.276 OA
ATOM     17  H   LIG d   1      -5.227  92.017 115.297  0.00  0.00     0.149 HD
ENDBRANCH   6  13
BRANCH   5  18
ATOM     18  N   LIG d   1      -7.557  93.180 117.914  0.00  0.00     0.381 N 
ATOM     19  H   LIG d   1      -7.879  92.640 117.135  0.00  0.00    -0.090 HD
ATOM     20  H   LIG d   1      -8.026  94.068 117.898  0.00  0.00    -0.090 HD
ATOM     21  H   LIG d   1      -7.761  92.703 118.765  0.00  0.00    -0.090 HD
ENDBRANCH   5  18
BRANCH   3  22
ATOM     22  C   LIG d   1      -3.685  95.037 120.035  0.00  0.00     0.382 C 
ATOM     23  O   LIG d   1      -3.238  96.099 119.538  0.00  0.00    -0.241 OA
ATOM     24  O   LIG d   1      -3.609  94.855 121.265  0.00  0.00    -0.241 OA
ENDBRANCH   3  22
TORSDOF 7
ENDMDL
