MODEL 1
REMARK VINA RESULT:      -5.6      0.000      0.000
REMARK  7 active torsions:
REMARK  status: ('A' for Active; 'I' for Inactive)
REMARK    1  A    between atoms: C_2  and  C_3 
REMARK    2  A    between atoms: C_3  and  O_6 
REMARK    3  A    between atoms: C_3  and  C_4 
REMARK    4  A    between atoms: C_7  and  O_6 
REMARK    5  A    between atoms: C_9  and  C_10 
REMARK    6  A    between atoms: N_15  and  C_14 
REMARK    7  A    between atoms: N_20  and  C_19 
REMARK       I    between atoms: C_22  and  N_20 
ROOT
ATOM      1  C   LIG d   1      -5.465  92.246 117.999  0.00  0.00     0.161 C 
ATOM      2  C   LIG d   1      -5.515  91.405 116.874  0.00  0.00     0.016 C 
ATOM      3  C   LIG d   1      -6.630  91.331 116.008  0.00  0.00     0.038 C 
ATOM      4  C   LIG d   1      -7.718  92.209 116.122  0.00  0.00     0.028 C 
ATOM      5  C   LIG d   1      -7.932  92.727 117.540  0.00  0.00    -0.047 C 
ATOM      6  C   LIG d   1      -6.596  93.292 118.075  0.00  0.00     0.091 C 
ENDROOT
BRANCH   1   7
ATOM      7  O   LIG d   1      -4.179  92.893 118.067  0.00  0.00    -0.368 OA
BRANCH   7   8
ATOM      8  C   LIG d   1      -3.024  92.019 118.050  0.00  0.00     0.119 C 
BRANCH   8   9
ATOM      9  C   LIG d   1      -2.946  91.327 119.424  0.00  0.00     0.028 C 
ATOM     10  C   LIG d   1      -3.097  89.800 119.322  0.00  0.00     0.006 C 
ENDBRANCH   8   9
BRANCH   8  11
ATOM     11  C   LIG d   1      -1.723  92.817 117.923  0.00  0.00     0.028 C 
ATOM     12  C   LIG d   1      -1.960  94.332 117.825  0.00  0.00     0.006 C 
ENDBRANCH   8  11
ENDBRANCH   7   8
ENDBRANCH   1   7
BRANCH   6  13
ATOM     13  N   LIG d   1      -6.697  93.743 119.488  0.00  0.00    -0.311 N 
ATOM     14  C   LIG d   1      -6.986  94.995 119.838  0.00  0.00     0.210 C 
ATOM     15  C   LIG d   1      -7.020  95.252 121.348  0.00  0.00     0.109 C 
ATOM     16  O   LIG d   1      -7.248  95.910 119.043  0.00  0.00    -0.276 OA
ATOM     17  H   LIG d   1      -6.530  93.058 120.198  0.00  0.00     0.149 HD
ENDBRANCH   6  13
BRANCH   5  18
ATOM     18  N   LIG d   1      -9.007  93.736 117.489  0.00  0.00     0.381 N 
ATOM     19  H   LIG d   1      -9.522  93.639 116.636  0.00  0.00    -0.090 HD
ATOM     20  H   LIG d   1      -8.595  94.652 117.506  0.00  0.00    -0.090 HD
ATOM     21  H   LIG d   1      -9.618  93.623 118.268  0.00  0.00    -0.090 HD
ENDBRANCH   5  18
BRANCH   3  22
ATOM     22  C   LIG d   1      -6.681  90.341 115.038  0.00  0.00     0.382 C 
ATOM     23  O   LIG d   1      -7.755  90.114 114.430  0.00  0.00    -0.241 OA
ATOM     24  O   LIG d   1      -5.679  89.643 114.793  0.00  0.00    -0.241 OA
ENDBRANCH   3  22
TORSDOF 7
ENDMDL
MODEL 2
REMARK VINA RESULT:      -5.5      0.521      1.678
REMARK  7 active torsions:
REMARK  status: ('A' for Active; 'I' for Inactive)
REMARK    1  A    between atoms: C_2  and  C_3 
REMARK    2  A    between atoms: C_3  and  O_6 
REMARK    3  A    between atoms: C_3  and  C_4 
REMARK    4  A    between atoms: C_7  and  O_6 
REMARK    5  A    between atoms: C_9  and  C_10 
REMARK    6  A    between atoms: N_15  and  C_14 
REMARK    7  A    between atoms: N_20  and  C_19 
REMARK       I    between atoms: C_22  and  N_20 
ROOT
ATOM      1  C   LIG d   1      -5.340  92.116 117.800  0.00  0.00     0.161 C 
ATOM      2  C   LIG d   1      -5.491  91.297 116.669  0.00  0.00     0.016 C 
ATOM      3  C   LIG d   1      -6.664  91.269 115.880  0.00  0.00     0.038 C 
ATOM      4  C   LIG d   1      -7.715  92.176 116.081  0.00  0.00     0.028 C 
ATOM      5  C   LIG d   1      -7.817  92.675 117.519  0.00  0.00    -0.047 C 
ATOM      6  C   LIG d   1      -6.432  93.192 117.970  0.00  0.00     0.091 C 
ENDROOT
BRANCH   1   7
ATOM      7  O   LIG d   1      -4.034  92.725 117.791  0.00  0.00    -0.368 OA
BRANCH   7   8
ATOM      8  C   LIG d   1      -3.090  92.224 118.769  0.00  0.00     0.119 C 
BRANCH   8   9
ATOM      9  C   LIG d   1      -2.082  93.353 119.060  0.00  0.00     0.028 C 
ATOM     10  C   LIG d   1      -1.787  94.211 117.819  0.00  0.00     0.006 C 
ENDBRANCH   8   9
BRANCH   8  11
ATOM     11  C   LIG d   1      -2.255  91.073 118.200  0.00  0.00     0.028 C 
ATOM     12  C   LIG d   1      -2.738  89.694 118.678  0.00  0.00     0.006 C 
ENDBRANCH   8  11
ENDBRANCH   7   8
ENDBRANCH   1   7
BRANCH   6  13
ATOM     13  N   LIG d   1      -6.423  93.621 119.393  0.00  0.00    -0.311 N 
ATOM     14  C   LIG d   1      -6.674  94.870 119.784  0.00  0.00     0.210 C 
ATOM     15  C   LIG d   1      -6.593  95.102 121.296  0.00  0.00     0.109 C 
ATOM     16  O   LIG d   1      -6.986  95.799 119.025  0.00  0.00    -0.276 OA
ATOM     17  H   LIG d   1      -6.210  92.923 120.078  0.00  0.00     0.149 HD
ENDBRANCH   6  13
BRANCH   5  18
ATOM     18  N   LIG d   1      -8.863  93.714 117.557  0.00  0.00     0.381 N 
ATOM     19  H   LIG d   1      -9.766  93.285 117.604  0.00  0.00    -0.090 HD
ATOM     20  H   LIG d   1      -8.815  94.255 116.711  0.00  0.00    -0.090 HD
ATOM     21  H   LIG d   1      -8.727  94.306 118.346  0.00  0.00    -0.090 HD
ENDBRANCH   5  18
BRANCH   3  22
ATOM     22  C   LIG d   1      -6.810  90.299 114.900  0.00  0.00     0.382 C 
ATOM     23  O   LIG d   1      -7.947  90.049 114.430  0.00  0.00    -0.241 OA
ATOM     24  O   LIG d   1      -5.827  89.640 114.511  0.00  0.00    -0.241 OA
ENDBRANCH   3  22
TORSDOF 7
ENDMDL
MODEL 3
REMARK VINA RESULT:      -5.1      1.543      5.060
REMARK  7 active torsions:
REMARK  status: ('A' for Active; 'I' for Inactive)
REMARK    1  A    between atoms: C_2  and  C_3 
REMARK    2  A    between atoms: C_3  and  O_6 
REMARK    3  A    between atoms: C_3  and  C_4 
REMARK    4  A    between atoms: C_7  and  O_6 
REMARK    5  A    between atoms: C_9  and  C_10 
REMARK    6  A    between atoms: N_15  and  C_14 
REMARK    7  A    between atoms: N_20  and  C_19 
REMARK       I    between atoms: C_22  and  N_20 
ROOT
ATOM      1  C   LIG d   1      -5.431  93.381 118.774  0.00  0.00     0.161 C 
ATOM      2  C   LIG d   1      -5.587  94.292 119.832  0.00  0.00     0.016 C 
ATOM      3  C   LIG d   1      -6.798  94.972 120.102  0.00  0.00     0.038 C 
ATOM      4  C   LIG d   1      -7.985  94.670 119.419  0.00  0.00     0.028 C 
ATOM      5  C   LIG d   1      -7.755  94.125 118.013  0.00  0.00    -0.047 C 
ATOM      6  C   LIG d   1      -6.746  92.956 118.088  0.00  0.00     0.091 C 
ENDROOT
BRANCH   1   7
ATOM      7  O   LIG d   1      -4.707  92.222 119.231  0.00  0.00    -0.368 OA
BRANCH   7   8
ATOM      8  C   LIG d   1      -3.262  92.314 119.183  0.00  0.00     0.119 C 
BRANCH   8   9
ATOM      9  C   LIG d   1      -2.879  92.861 117.794  0.00  0.00     0.028 C 
ATOM     10  C   LIG d   1      -1.766  93.920 117.868  0.00  0.00     0.006 C 
ENDBRANCH   8   9
BRANCH   8  11
ATOM     11  C   LIG d   1      -2.613  90.929 119.266  0.00  0.00     0.028 C 
ATOM     12  C   LIG d   1      -3.344  89.876 118.418  0.00  0.00     0.006 C 
ENDBRANCH   8  11
ENDBRANCH   7   8
ENDBRANCH   1   7
BRANCH   6  13
ATOM     13  N   LIG d   1      -6.400  92.420 116.745  0.00  0.00    -0.311 N 
ATOM     14  C   LIG d   1      -7.071  91.433 116.154  0.00  0.00     0.210 C 
ATOM     15  C   LIG d   1      -6.536  91.019 114.780  0.00  0.00     0.109 C 
ATOM     16  O   LIG d   1      -8.079  90.883 116.624  0.00  0.00    -0.276 OA
ATOM     17  H   LIG d   1      -5.615  92.831 116.279  0.00  0.00     0.149 HD
ENDBRANCH   6  13
BRANCH   5  18
ATOM     18  N   LIG d   1      -9.066  93.725 117.470  0.00  0.00     0.381 N 
ATOM     19  H   LIG d   1      -9.794  94.024 118.087  0.00  0.00    -0.090 HD
ATOM     20  H   LIG d   1      -9.098  92.722 117.405  0.00  0.00    -0.090 HD
ATOM     21  H   LIG d   1      -9.199  94.127 116.568  0.00  0.00    -0.090 HD
ENDBRANCH   5  18
BRANCH   3  22
ATOM     22  C   LIG d   1      -6.818  95.994 121.038  0.00  0.00     0.382 C 
ATOM     23  O   LIG d   1      -5.762  96.614 121.313  0.00  0.00    -0.241 OA
ATOM     24  O   LIG d   1      -7.869  96.275 121.644  0.00  0.00    -0.241 OA
ENDBRANCH   3  22
TORSDOF 7
ENDMDL
MODEL 4
REMARK VINA RESULT:      -5.0      2.590      4.645
REMARK  7 active torsions:
REMARK  status: ('A' for Active; 'I' for Inactive)
REMARK    1  A    between atoms: C_2  and  C_3 
REMARK    2  A    between atoms: C_3  and  O_6 
REMARK    3  A    between atoms: C_3  and  C_4 
REMARK    4  A    between atoms: C_7  and  O_6 
REMARK    5  A    between atoms: C_9  and  C_10 
REMARK    6  A    between atoms: N_15  and  C_14 
REMARK    7  A    between atoms: N_20  and  C_19 
REMARK       I    between atoms: C_22  and  N_20 
ROOT
ATOM      1  C   LIG d   1      -5.053  92.874 118.825  0.00  0.00     0.161 C 
ATOM      2  C   LIG d   1      -6.265  93.584 118.854  0.00  0.00     0.016 C 
ATOM      3  C   LIG d   1      -7.296  93.402 117.904  0.00  0.00     0.038 C 
ATOM      4  C   LIG d   1      -7.246  92.382 116.942  0.00  0.00     0.028 C 
ATOM      5  C   LIG d   1      -5.826  91.978 116.560  0.00  0.00    -0.047 C 
ATOM      6  C   LIG d   1      -5.026  91.679 117.849  0.00  0.00     0.091 C 
ENDROOT
BRANCH   1   7
ATOM      7  O   LIG d   1      -4.708  92.442 120.156  0.00  0.00    -0.368 OA
BRANCH   7   8
ATOM      8  C   LIG d   1      -3.707  93.233 120.843  0.00  0.00     0.119 C 
BRANCH   8   9
ATOM      9  C   LIG d   1      -2.882  93.970 119.771  0.00  0.00     0.028 C 
ATOM     10  C   LIG d   1      -1.436  93.454 119.684  0.00  0.00     0.006 C 
ENDBRANCH   8   9
BRANCH   8  11
ATOM     11  C   LIG d   1      -2.705  92.342 121.583  0.00  0.00     0.028 C 
ATOM     12  C   LIG d   1      -3.235  90.919 121.821  0.00  0.00     0.006 C 
ENDBRANCH   8  11
ENDBRANCH   7   8
ENDBRANCH   1   7
BRANCH   6  13
ATOM     13  N   LIG d   1      -3.602  91.358 117.570  0.00  0.00    -0.311 N 
ATOM     14  C   LIG d   1      -2.997  90.260 118.019  0.00  0.00     0.210 C 
ATOM     15  C   LIG d   1      -1.520  90.132 117.633  0.00  0.00     0.109 C 
ATOM     16  O   LIG d   1      -3.552  89.364 118.673  0.00  0.00    -0.276 OA
ATOM     17  H   LIG d   1      -3.085  92.016 117.020  0.00  0.00     0.149 HD
ENDBRANCH   6  13
BRANCH   5  18
ATOM     18  N   LIG d   1      -5.921  90.816 115.656  0.00  0.00     0.381 N 
ATOM     19  H   LIG d   1      -5.498  90.017 116.086  0.00  0.00    -0.090 HD
ATOM     20  H   LIG d   1      -5.421  91.021 114.810  0.00  0.00    -0.090 HD
ATOM     21  H   LIG d   1      -6.876  90.623 115.448  0.00  0.00    -0.090 HD
ENDBRANCH   5  18
BRANCH   3  22
ATOM     22  C   LIG d   1      -8.375  94.272 117.886  0.00  0.00     0.382 C 
ATOM     23  O   LIG d   1      -8.204  95.489 118.138  0.00  0.00    -0.241 OA
ATOM     24  O   LIG d   1      -9.525  93.848 117.665  0.00  0.00    -0.241 OA
ENDBRANCH   3  22
TORSDOF 7
ENDMDL
MODEL 5
REMARK VINA RESULT:      -4.6      1.994      2.524
REMARK  7 active torsions:
REMARK  status: ('A' for Active; 'I' for Inactive)
REMARK    1  A    between atoms: C_2  and  C_3 
REMARK    2  A    between atoms: C_3  and  O_6 
REMARK    3  A    between atoms: C_3  and  C_4 
REMARK    4  A    between atoms: C_7  and  O_6 
REMARK    5  A    between atoms: C_9  and  C_10 
REMARK    6  A    between atoms: N_15  and  C_14 
REMARK    7  A    between atoms: N_20  and  C_19 
REMARK       I    between atoms: C_22  and  N_20 
ROOT
ATOM      1  C   LIG d   1      -5.833  93.666 119.373  0.00  0.00     0.161 C 
ATOM      2  C   LIG d   1      -5.187  92.706 118.576  0.00  0.00     0.016 C 
ATOM      3  C   LIG d   1      -5.783  92.106 117.443  0.00  0.00     0.038 C 
ATOM      4  C   LIG d   1      -7.018  92.540 116.938  0.00  0.00     0.028 C 
ATOM      5  C   LIG d   1      -7.926  93.150 118.000  0.00  0.00    -0.047 C 
ATOM      6  C   LIG d   1      -7.137  94.232 118.773  0.00  0.00     0.091 C 
ENDROOT
BRANCH   1   7
ATOM      7  O   LIG d   1      -4.920  94.736 119.686  0.00  0.00    -0.368 OA
BRANCH   7   8
ATOM      8  C   LIG d   1      -3.509  94.418 119.592  0.00  0.00     0.119 C 
BRANCH   8   9
ATOM      9  C   LIG d   1      -2.986  94.207 121.026  0.00  0.00     0.028 C 
ATOM     10  C   LIG d   1      -1.471  94.450 121.140  0.00  0.00     0.006 C 
ENDBRANCH   8   9
BRANCH   8  11
ATOM     11  C   LIG d   1      -2.707  95.599 119.037  0.00  0.00     0.028 C 
ATOM     12  C   LIG d   1      -3.500  96.916 119.051  0.00  0.00     0.006 C 
ENDBRANCH   8  11
ENDBRANCH   7   8
ENDBRANCH   1   7
BRANCH   6  13
ATOM     13  N   LIG d   1      -7.925  94.821 119.887  0.00  0.00    -0.311 N 
ATOM     14  C   LIG d   1      -8.615  95.955 119.777  0.00  0.00     0.210 C 
ATOM     15  C   LIG d   1      -9.342  96.396 121.052  0.00  0.00     0.109 C 
ATOM     16  O   LIG d   1      -8.720  96.621 118.736  0.00  0.00    -0.276 OA
ATOM     17  H   LIG d   1      -7.921  94.329 120.759  0.00  0.00     0.149 HD
ENDBRANCH   6  13
BRANCH   5  18
ATOM     18  N   LIG d   1      -9.118  93.683 117.315  0.00  0.00     0.381 N 
ATOM     19  H   LIG d   1      -9.909  93.103 117.511  0.00  0.00    -0.090 HD
ATOM     20  H   LIG d   1      -8.956  93.671 116.323  0.00  0.00    -0.090 HD
ATOM     21  H   LIG d   1      -9.298  94.615 117.618  0.00  0.00    -0.090 HD
ENDBRANCH   5  18
BRANCH   3  22
ATOM     22  C   LIG d   1      -5.159  91.033 116.826  0.00  0.00     0.382 C 
ATOM     23  O   LIG d   1      -5.608  90.585 115.743  0.00  0.00    -0.241 OA
ATOM     24  O   LIG d   1      -4.180  90.478 117.360  0.00  0.00    -0.241 OA
ENDBRANCH   3  22
TORSDOF 7
ENDMDL
MODEL 6
REMARK VINA RESULT:      -4.5      2.734      5.238
REMARK  7 active torsions:
REMARK  status: ('A' for Active; 'I' for Inactive)
REMARK    1  A    between atoms: C_2  and  C_3 
REMARK    2  A    between atoms: C_3  and  O_6 
REMARK    3  A    between atoms: C_3  and  C_4 
REMARK    4  A    between atoms: C_7  and  O_6 
REMARK    5  A    between atoms: C_9  and  C_10 
REMARK    6  A    between atoms: N_15  and  C_14 
REMARK    7  A    between atoms: N_20  and  C_19 
REMARK       I    between atoms: C_22  and  N_20 
ROOT
ATOM      1  C   LIG d   1      -3.336  90.454 118.168  0.00  0.00     0.161 C 
ATOM      2  C   LIG d   1      -1.964  90.280 117.921  0.00  0.00     0.016 C 
ATOM      3  C   LIG d   1      -1.045  91.352 117.841  0.00  0.00     0.038 C 
ATOM      4  C   LIG d   1      -1.414  92.669 118.153  0.00  0.00     0.028 C 
ATOM      5  C   LIG d   1      -2.892  92.957 117.913  0.00  0.00    -0.047 C 
ATOM      6  C   LIG d   1      -3.736  91.873 118.622  0.00  0.00     0.091 C 
ENDROOT
BRANCH   1   7
ATOM      7  O   LIG d   1      -3.788  89.476 119.125  0.00  0.00    -0.368 OA
BRANCH   7   8
ATOM      8  C   LIG d   1      -2.801  89.014 120.080  0.00  0.00     0.119 C 
BRANCH   8   9
ATOM      9  C   LIG d   1      -3.066  87.517 120.332  0.00  0.00     0.028 C 
ATOM     10  C   LIG d   1      -1.876  86.633 119.921  0.00  0.00     0.006 C 
ENDBRANCH   8   9
BRANCH   8  11
ATOM     11  C   LIG d   1      -2.982  89.693 121.441  0.00  0.00     0.028 C 
ATOM     12  C   LIG d   1      -1.920  90.770 121.715  0.00  0.00     0.006 C 
ENDBRANCH   8  11
ENDBRANCH   7   8
ENDBRANCH   1   7
BRANCH   6  13
ATOM     13  N   LIG d   1      -5.192  92.033 118.367  0.00  0.00    -0.311 N 
ATOM     14  C   LIG d   1      -5.743  91.911 117.161  0.00  0.00     0.210 C 
ATOM     15  C   LIG d   1      -7.258  92.134 117.117  0.00  0.00     0.109 C 
ATOM     16  O   LIG d   1      -5.126  91.607 116.129  0.00  0.00    -0.276 OA
ATOM     17  H   LIG d   1      -5.771  92.250 119.155  0.00  0.00     0.149 HD
ENDBRANCH   6  13
BRANCH   5  18
ATOM     18  N   LIG d   1      -3.166  94.319 118.409  0.00  0.00     0.381 N 
ATOM     19  H   LIG d   1      -4.141  94.523 118.317  0.00  0.00    -0.090 HD
ATOM     20  H   LIG d   1      -2.652  94.978 117.851  0.00  0.00    -0.090 HD
ATOM     21  H   LIG d   1      -2.892  94.396 119.364  0.00  0.00    -0.090 HD
ENDBRANCH   5  18
BRANCH   3  22
ATOM     22  C   LIG d   1       0.250  91.116 117.404  0.00  0.00     0.382 C 
ATOM     23  O   LIG d   1       0.447  90.476 116.343  0.00  0.00    -0.241 OA
ATOM     24  O   LIG d   1       1.223  91.496 118.082  0.00  0.00    -0.241 OA
ENDBRANCH   3  22
TORSDOF 7
ENDMDL
MODEL 7
REMARK VINA RESULT:      -4.4      2.590      4.861
REMARK  7 active torsions:
REMARK  status: ('A' for Active; 'I' for Inactive)
REMARK    1  A    between atoms: C_2  and  C_3 
REMARK    2  A    between atoms: C_3  and  O_6 
REMARK    3  A    between atoms: C_3  and  C_4 
REMARK    4  A    between atoms: C_7  and  O_6 
REMARK    5  A    between atoms: C_9  and  C_10 
REMARK    6  A    between atoms: N_15  and  C_14 
REMARK    7  A    between atoms: N_20  and  C_19 
REMARK       I    between atoms: C_22  and  N_20 
ROOT
ATOM      1  C   LIG d   1      -4.815  93.290 119.097  0.00  0.00     0.161 C 
ATOM      2  C   LIG d   1      -5.894  93.025 118.236  0.00  0.00     0.016 C 
ATOM      3  C   LIG d   1      -5.840  92.074 117.191  0.00  0.00     0.038 C 
ATOM      4  C   LIG d   1      -4.746  91.211 117.030  0.00  0.00     0.028 C 
ATOM      5  C   LIG d   1      -3.436  91.787 117.558  0.00  0.00    -0.047 C 
ATOM      6  C   LIG d   1      -3.653  92.279 119.007  0.00  0.00     0.091 C 
ENDROOT
BRANCH   1   7
ATOM      7  O   LIG d   1      -5.288  93.390 120.455  0.00  0.00    -0.368 OA
BRANCH   7   8
ATOM      8  C   LIG d   1      -6.225  94.461 120.726  0.00  0.00     0.119 C 
BRANCH   8   9
ATOM      9  C   LIG d   1      -5.410  95.684 121.189  0.00  0.00     0.028 C 
ATOM     10  C   LIG d   1      -4.123  95.285 121.930  0.00  0.00     0.006 C 
ENDBRANCH   8   9
BRANCH   8  11
ATOM     11  C   LIG d   1      -7.142  94.115 121.903  0.00  0.00     0.028 C 
ATOM     12  C   LIG d   1      -8.526  94.774 121.795  0.00  0.00     0.006 C 
ENDBRANCH   8  11
ENDBRANCH   7   8
ENDBRANCH   1   7
BRANCH   6  13
ATOM     13  N   LIG d   1      -2.443  92.934 119.570  0.00  0.00    -0.311 N 
ATOM     14  C   LIG d   1      -1.936  92.635 120.765  0.00  0.00     0.210 C 
ATOM     15  C   LIG d   1      -0.697  93.442 121.162  0.00  0.00     0.109 C 
ATOM     16  O   LIG d   1      -2.377  91.755 121.519  0.00  0.00    -0.276 OA
ATOM     17  H   LIG d   1      -2.004  93.638 119.010  0.00  0.00     0.149 HD
ENDBRANCH   6  13
BRANCH   5  18
ATOM     18  N   LIG d   1      -2.411  90.732 117.452  0.00  0.00     0.381 N 
ATOM     19  H   LIG d   1      -2.804  89.919 117.021  0.00  0.00    -0.090 HD
ATOM     20  H   LIG d   1      -2.105  90.482 118.376  0.00  0.00    -0.090 HD
ATOM     21  H   LIG d   1      -1.638  91.060 116.916  0.00  0.00    -0.090 HD
ENDBRANCH   5  18
BRANCH   3  22
ATOM     22  C   LIG d   1      -6.872  92.009 116.268  0.00  0.00     0.382 C 
ATOM     23  O   LIG d   1      -6.622  92.085 115.041  0.00  0.00    -0.241 OA
ATOM     24  O   LIG d   1      -8.055  91.918 116.648  0.00  0.00    -0.241 OA
ENDBRANCH   3  22
TORSDOF 7
ENDMDL
MODEL 8
REMARK VINA RESULT:      -4.3      3.750      6.871
REMARK  7 active torsions:
REMARK  status: ('A' for Active; 'I' for Inactive)
REMARK    1  A    between atoms: C_2  and  C_3 
REMARK    2  A    between atoms: C_3  and  O_6 
REMARK    3  A    between atoms: C_3  and  C_4 
REMARK    4  A    between atoms: C_7  and  O_6 
REMARK    5  A    between atoms: C_9  and  C_10 
REMARK    6  A    between atoms: N_15  and  C_14 
REMARK    7  A    between atoms: N_20  and  C_19 
REMARK       I    between atoms: C_22  and  N_20 
ROOT
ATOM      1  C   LIG d   1      -0.423  91.330 118.028  0.00  0.00     0.161 C 
ATOM      2  C   LIG d   1       0.917  91.685 118.255  0.00  0.00     0.016 C 
ATOM      3  C   LIG d   1       1.350  93.021 118.424  0.00  0.00     0.038 C 
ATOM      4  C   LIG d   1       0.444  94.087 118.529  0.00  0.00     0.028 C 
ATOM      5  C   LIG d   1      -0.873  93.836 117.802  0.00  0.00    -0.047 C 
ATOM      6  C   LIG d   1      -1.440  92.469 118.250  0.00  0.00     0.091 C 
ENDROOT
BRANCH   1   7
ATOM      7  O   LIG d   1      -0.769  90.186 118.834  0.00  0.00    -0.368 OA
BRANCH   7   8
ATOM      8  C   LIG d   1      -1.215  89.011 118.114  0.00  0.00     0.119 C 
BRANCH   8   9
ATOM      9  C   LIG d   1      -2.134  88.211 119.057  0.00  0.00     0.028 C 
ATOM     10  C   LIG d   1      -3.250  89.079 119.664  0.00  0.00     0.006 C 
ENDBRANCH   8   9
BRANCH   8  11
ATOM     11  C   LIG d   1      -0.045  88.074 117.797  0.00  0.00     0.028 C 
ATOM     12  C   LIG d   1      -0.053  86.800 118.656  0.00  0.00     0.006 C 
ENDBRANCH   8  11
ENDBRANCH   7   8
ENDBRANCH   1   7
BRANCH   6  13
ATOM     13  N   LIG d   1      -2.686  92.108 117.524  0.00  0.00    -0.311 N 
ATOM     14  C   LIG d   1      -3.907  92.371 117.986  0.00  0.00     0.210 C 
ATOM     15  C   LIG d   1      -5.054  91.895 117.090  0.00  0.00     0.109 C 
ATOM     16  O   LIG d   1      -4.148  92.983 119.038  0.00  0.00    -0.276 OA
ATOM     17  H   LIG d   1      -2.582  91.636 116.646  0.00  0.00     0.149 HD
ENDBRANCH   6  13
BRANCH   5  18
ATOM     18  N   LIG d   1      -1.772  94.964 118.108  0.00  0.00     0.381 N 
ATOM     19  H   LIG d   1      -2.725  94.662 118.052  0.00  0.00    -0.090 HD
ATOM     20  H   LIG d   1      -1.630  95.687 117.425  0.00  0.00    -0.090 HD
ATOM     21  H   LIG d   1      -1.580  95.315 119.020  0.00  0.00    -0.090 HD
ENDBRANCH   5  18
BRANCH   3  22
ATOM     22  C   LIG d   1       2.707  93.304 118.450  0.00  0.00     0.382 C 
ATOM     23  O   LIG d   1       3.253  93.657 119.524  0.00  0.00    -0.241 OA
ATOM     24  O   LIG d   1       3.383  93.255 117.405  0.00  0.00    -0.241 OA
ENDBRANCH   3  22
TORSDOF 7
ENDMDL
MODEL 9
REMARK VINA RESULT:      -4.2      4.492      7.474
REMARK  7 active torsions:
REMARK  status: ('A' for Active; 'I' for Inactive)
REMARK    1  A    between atoms: C_2  and  C_3 
REMARK    2  A    between atoms: C_3  and  O_6 
REMARK    3  A    between atoms: C_3  and  C_4 
REMARK    4  A    between atoms: C_7  and  O_6 
REMARK    5  A    between atoms: C_9  and  C_10 
REMARK    6  A    between atoms: N_15  and  C_14 
REMARK    7  A    between atoms: N_20  and  C_19 
REMARK       I    between atoms: C_22  and  N_20 
ROOT
ATOM      1  C   LIG d   1       0.122  90.384 116.962  0.00  0.00     0.161 C 
ATOM      2  C   LIG d   1       1.496  90.651 117.077  0.00  0.00     0.016 C 
ATOM      3  C   LIG d   1       2.018  91.760 117.782  0.00  0.00     0.038 C 
ATOM      4  C   LIG d   1       1.200  92.599 118.553  0.00  0.00     0.028 C 
ATOM      5  C   LIG d   1      -0.240  92.665 118.056  0.00  0.00    -0.047 C 
ATOM      6  C   LIG d   1      -0.780  91.226 117.889  0.00  0.00     0.091 C 
ENDROOT
BRANCH   1   7
ATOM      7  O   LIG d   1      -0.122  88.978 117.168  0.00  0.00    -0.368 OA
BRANCH   7   8
ATOM      8  C   LIG d   1      -0.002  88.503 118.531  0.00  0.00     0.119 C 
BRANCH   8   9
ATOM      9  C   LIG d   1       0.984  87.319 118.524  0.00  0.00     0.028 C 
ATOM     10  C   LIG d   1       1.240  86.777 117.107  0.00  0.00     0.006 C 
ENDBRANCH   8   9
BRANCH   8  11
ATOM     11  C   LIG d   1      -1.326  87.925 119.038  0.00  0.00     0.028 C 
ATOM     12  C   LIG d   1      -1.659  88.365 120.473  0.00  0.00     0.006 C 
ENDBRANCH   8  11
ENDBRANCH   7   8
ENDBRANCH   1   7
BRANCH   6  13
ATOM     13  N   LIG d   1      -2.155  91.198 117.326  0.00  0.00    -0.311 N 
ATOM     14  C   LIG d   1      -3.255  91.189 118.078  0.00  0.00     0.210 C 
ATOM     15  C   LIG d   1      -4.571  91.139 117.296  0.00  0.00     0.109 C 
ATOM     16  O   LIG d   1      -3.265  91.251 119.316  0.00  0.00    -0.276 OA
ATOM     17  H   LIG d   1      -2.239  91.178 116.329  0.00  0.00     0.149 HD
ENDBRANCH   6  13
BRANCH   5  18
ATOM     18  N   LIG d   1      -1.011  93.463 119.028  0.00  0.00     0.381 N 
ATOM     19  H   LIG d   1      -0.831  93.134 119.955  0.00  0.00    -0.090 HD
ATOM     20  H   LIG d   1      -1.991  93.348 118.838  0.00  0.00    -0.090 HD
ATOM     21  H   LIG d   1      -0.762  94.424 118.954  0.00  0.00    -0.090 HD
ENDBRANCH   5  18
BRANCH   3  22
ATOM     22  C   LIG d   1       3.368  92.061 117.687  0.00  0.00     0.382 C 
ATOM     23  O   LIG d   1       4.226  91.194 117.978  0.00  0.00    -0.241 OA
ATOM     24  O   LIG d   1       3.738  93.204 117.357  0.00  0.00    -0.241 OA
ENDBRANCH   3  22
TORSDOF 7
ENDMDL
