MODEL 1
REMARK VINA RESULT:      -5.7      0.000      0.000
REMARK  7 active torsions:
REMARK  status: ('A' for Active; 'I' for Inactive)
REMARK    1  A    between atoms: C_2  and  C_3 
REMARK    2  A    between atoms: C_3  and  O_6 
REMARK    3  A    between atoms: C_3  and  C_4 
REMARK    4  A    between atoms: C_7  and  O_6 
REMARK    5  A    between atoms: C_9  and  C_10 
REMARK    6  A    between atoms: N_15  and  C_14 
REMARK    7  A    between atoms: N_20  and  C_19 
REMARK       I    between atoms: C_22  and  N_20 
ROOT
ATOM      1  C   LIG d   1      -3.946  91.790 117.847  0.00  0.00     0.161 C 
ATOM      2  C   LIG d   1      -4.319  91.080 116.694  0.00  0.00     0.016 C 
ATOM      3  C   LIG d   1      -5.579  91.217 116.068  0.00  0.00     0.038 C 
ATOM      4  C   LIG d   1      -6.503  92.194 116.469  0.00  0.00     0.028 C 
ATOM      5  C   LIG d   1      -6.373  92.583 117.938  0.00  0.00    -0.047 C 
ATOM      6  C   LIG d   1      -4.899  92.940 118.234  0.00  0.00     0.091 C 
ENDROOT
BRANCH   1   7
ATOM      7  O   LIG d   1      -2.599  92.281 117.704  0.00  0.00    -0.368 OA
BRANCH   7   8
ATOM      8  C   LIG d   1      -1.557  91.468 118.299  0.00  0.00     0.119 C 
BRANCH   8   9
ATOM      9  C   LIG d   1      -2.071  90.989 119.671  0.00  0.00     0.028 C 
ATOM     10  C   LIG d   1      -1.184  91.471 120.831  0.00  0.00     0.006 C 
ENDBRANCH   8   9
BRANCH   8  11
ATOM     11  C   LIG d   1      -0.307  92.299 118.602  0.00  0.00     0.028 C 
ATOM     12  C   LIG d   1      -0.276  93.631 117.835  0.00  0.00     0.006 C 
ENDBRANCH   8  11
ENDBRANCH   7   8
ENDBRANCH   1   7
BRANCH   6  13
ATOM     13  N   LIG d   1      -4.668  93.252 119.669  0.00  0.00    -0.311 N 
ATOM     14  C   LIG d   1      -3.873  94.235 120.087  0.00  0.00     0.210 C 
ATOM     15  C   LIG d   1      -3.760  94.373 121.608  0.00  0.00     0.109 C 
ATOM     16  O   LIG d   1      -3.277  95.028 119.342  0.00  0.00    -0.276 OA
ATOM     17  H   LIG d   1      -5.138  92.678 120.341  0.00  0.00     0.149 HD
ENDBRANCH   6  13
BRANCH   5  18
ATOM     18  N   LIG d   1      -7.300  93.703 118.185  0.00  0.00     0.381 N 
ATOM     19  H   LIG d   1      -7.651  94.052 117.315  0.00  0.00    -0.090 HD
ATOM     20  H   LIG d   1      -6.800  94.445 118.643  0.00  0.00    -0.090 HD
ATOM     21  H   LIG d   1      -8.057  93.400 118.759  0.00  0.00    -0.090 HD
ENDBRANCH   5  18
BRANCH   3  22
ATOM     22  C   LIG d   1      -5.941  90.345 115.053  0.00  0.00     0.382 C 
ATOM     23  O   LIG d   1      -7.017  90.520 114.430  0.00  0.00    -0.241 OA
ATOM     24  O   LIG d   1      -5.229  89.360 114.782  0.00  0.00    -0.241 OA
ENDBRANCH   3  22
TORSDOF 7
ENDMDL
MODEL 2
REMARK VINA RESULT:      -5.4      2.639      5.133
REMARK  7 active torsions:
REMARK  status: ('A' for Active; 'I' for Inactive)
REMARK    1  A    between atoms: C_2  and  C_3 
REMARK    2  A    between atoms: C_3  and  O_6 
REMARK    3  A    between atoms: C_3  and  C_4 
REMARK    4  A    between atoms: C_7  and  O_6 
REMARK    5  A    between atoms: C_9  and  C_10 
REMARK    6  A    between atoms: N_15  and  C_14 
REMARK    7  A    between atoms: N_20  and  C_19 
REMARK       I    between atoms: C_22  and  N_20 
ROOT
ATOM      1  C   LIG d   1      -5.906  93.273 118.371  0.00  0.00     0.161 C 
ATOM      2  C   LIG d   1      -6.942  94.198 118.161  0.00  0.00     0.016 C 
ATOM      3  C   LIG d   1      -7.032  95.434 118.841  0.00  0.00     0.038 C 
ATOM      4  C   LIG d   1      -6.003  95.898 119.674  0.00  0.00     0.028 C 
ATOM      5  C   LIG d   1      -5.182  94.779 120.304  0.00  0.00    -0.047 C 
ATOM      6  C   LIG d   1      -4.716  93.811 119.192  0.00  0.00     0.091 C 
ENDROOT
BRANCH   1   7
ATOM      7  O   LIG d   1      -5.448  92.756 117.106  0.00  0.00    -0.368 OA
BRANCH   7   8
ATOM      8  C   LIG d   1      -5.929  91.438 116.744  0.00  0.00     0.119 C 
BRANCH   8   9
ATOM      9  C   LIG d   1      -4.779  90.708 116.024  0.00  0.00     0.028 C 
ATOM     10  C   LIG d   1      -3.538  90.542 116.917  0.00  0.00     0.006 C 
ENDBRANCH   8   9
BRANCH   8  11
ATOM     11  C   LIG d   1      -7.062  91.521 115.717  0.00  0.00     0.028 C 
ATOM     12  C   LIG d   1      -7.708  90.156 115.431  0.00  0.00     0.006 C 
ENDBRANCH   8  11
ENDBRANCH   7   8
ENDBRANCH   1   7
BRANCH   6  13
ATOM     13  N   LIG d   1      -3.976  92.641 119.733  0.00  0.00    -0.311 N 
ATOM     14  C   LIG d   1      -2.649  92.598 119.841  0.00  0.00     0.210 C 
ATOM     15  C   LIG d   1      -2.089  91.289 120.405  0.00  0.00     0.109 C 
ATOM     16  O   LIG d   1      -1.886  93.532 119.554  0.00  0.00    -0.276 OA
ATOM     17  H   LIG d   1      -4.520  91.851 120.020  0.00  0.00     0.149 HD
ENDBRANCH   6  13
BRANCH   5  18
ATOM     18  N   LIG d   1      -4.062  95.404 121.034  0.00  0.00     0.381 N 
ATOM     19  H   LIG d   1      -3.851  94.869 121.852  0.00  0.00    -0.090 HD
ATOM     20  H   LIG d   1      -4.337  96.326 121.322  0.00  0.00    -0.090 HD
ATOM     21  H   LIG d   1      -3.260  95.457 120.446  0.00  0.00    -0.090 HD
ENDBRANCH   5  18
BRANCH   3  22
ATOM     22  C   LIG d   1      -8.181  96.201 118.723  0.00  0.00     0.382 C 
ATOM     23  O   LIG d   1      -8.093  97.424 118.455  0.00  0.00    -0.241 OA
ATOM     24  O   LIG d   1      -9.302  95.696 118.925  0.00  0.00    -0.241 OA
ENDBRANCH   3  22
TORSDOF 7
ENDMDL
MODEL 3
REMARK VINA RESULT:      -5.4      2.639      6.106
REMARK  7 active torsions:
REMARK  status: ('A' for Active; 'I' for Inactive)
REMARK    1  A    between atoms: C_2  and  C_3 
REMARK    2  A    between atoms: C_3  and  O_6 
REMARK    3  A    between atoms: C_3  and  C_4 
REMARK    4  A    between atoms: C_7  and  O_6 
REMARK    5  A    between atoms: C_9  and  C_10 
REMARK    6  A    between atoms: N_15  and  C_14 
REMARK    7  A    between atoms: N_20  and  C_19 
REMARK       I    between atoms: C_22  and  N_20 
ROOT
ATOM      1  C   LIG d   1      -5.143  93.189 118.902  0.00  0.00     0.161 C 
ATOM      2  C   LIG d   1      -4.090  93.735 119.654  0.00  0.00     0.016 C 
ATOM      3  C   LIG d   1      -2.739  93.346 119.498  0.00  0.00     0.038 C 
ATOM      4  C   LIG d   1      -2.329  92.488 118.467  0.00  0.00     0.028 C 
ATOM      5  C   LIG d   1      -3.421  91.527 118.008  0.00  0.00    -0.047 C 
ATOM      6  C   LIG d   1      -4.702  92.334 117.696  0.00  0.00     0.091 C 
ENDROOT
BRANCH   1   7
ATOM      7  O   LIG d   1      -6.032  94.240 118.472  0.00  0.00    -0.368 OA
BRANCH   7   8
ATOM      8  C   LIG d   1      -6.379  95.230 119.472  0.00  0.00     0.119 C 
BRANCH   8   9
ATOM      9  C   LIG d   1      -7.706  94.788 120.119  0.00  0.00     0.028 C 
ATOM     10  C   LIG d   1      -7.580  94.591 121.639  0.00  0.00     0.006 C 
ENDBRANCH   8   9
BRANCH   8  11
ATOM     11  C   LIG d   1      -6.673  96.589 118.831  0.00  0.00     0.028 C 
ATOM     12  C   LIG d   1      -8.168  96.805 118.550  0.00  0.00     0.006 C 
ENDBRANCH   8  11
ENDBRANCH   7   8
ENDBRANCH   1   7
BRANCH   6  13
ATOM     13  N   LIG d   1      -5.845  91.461 117.321  0.00  0.00    -0.311 N 
ATOM     14  C   LIG d   1      -6.358  91.412 116.093  0.00  0.00     0.210 C 
ATOM     15  C   LIG d   1      -7.546  90.460 115.926  0.00  0.00     0.109 C 
ATOM     16  O   LIG d   1      -5.921  92.042 115.118  0.00  0.00    -0.276 OA
ATOM     17  H   LIG d   1      -6.241  90.893 118.044  0.00  0.00     0.149 HD
ENDBRANCH   6  13
BRANCH   5  18
ATOM     18  N   LIG d   1      -2.903  90.789 116.841  0.00  0.00     0.381 N 
ATOM     19  H   LIG d   1      -2.538  91.432 116.168  0.00  0.00    -0.090 HD
ATOM     20  H   LIG d   1      -3.660  90.282 116.415  0.00  0.00    -0.090 HD
ATOM     21  H   LIG d   1      -2.190  90.155 117.127  0.00  0.00    -0.090 HD
ENDBRANCH   5  18
BRANCH   3  22
ATOM     22  C   LIG d   1      -1.788  93.786 120.406  0.00  0.00     0.382 C 
ATOM     23  O   LIG d   1      -0.675  94.198 119.998  0.00  0.00    -0.241 OA
ATOM     24  O   LIG d   1      -2.012  93.735 121.630  0.00  0.00    -0.241 OA
ENDBRANCH   3  22
TORSDOF 7
ENDMDL
MODEL 4
REMARK VINA RESULT:      -5.3      2.360      4.313
REMARK  7 active torsions:
REMARK  status: ('A' for Active; 'I' for Inactive)
REMARK    1  A    between atoms: C_2  and  C_3 
REMARK    2  A    between atoms: C_3  and  O_6 
REMARK    3  A    between atoms: C_3  and  C_4 
REMARK    4  A    between atoms: C_7  and  O_6 
REMARK    5  A    between atoms: C_9  and  C_10 
REMARK    6  A    between atoms: N_15  and  C_14 
REMARK    7  A    between atoms: N_20  and  C_19 
REMARK       I    between atoms: C_22  and  N_20 
ROOT
ATOM      1  C   LIG d   1      -5.125  93.633 118.723  0.00  0.00     0.161 C 
ATOM      2  C   LIG d   1      -5.929  92.940 117.803  0.00  0.00     0.016 C 
ATOM      3  C   LIG d   1      -5.434  91.937 116.938  0.00  0.00     0.038 C 
ATOM      4  C   LIG d   1      -4.122  91.450 117.041  0.00  0.00     0.028 C 
ATOM      5  C   LIG d   1      -3.141  92.469 117.609  0.00  0.00    -0.047 C 
ATOM      6  C   LIG d   1      -3.715  93.039 118.927  0.00  0.00     0.091 C 
ENDROOT
BRANCH   1   7
ATOM      7  O   LIG d   1      -5.810  93.742 119.986  0.00  0.00    -0.368 OA
BRANCH   7   8
ATOM      8  C   LIG d   1      -6.365  95.043 120.300  0.00  0.00     0.119 C 
BRANCH   8   9
ATOM      9  C   LIG d   1      -7.886  94.966 120.069  0.00  0.00     0.028 C 
ATOM     10  C   LIG d   1      -8.327  95.724 118.805  0.00  0.00     0.006 C 
ENDBRANCH   8   9
BRANCH   8  11
ATOM     11  C   LIG d   1      -5.860  96.113 119.327  0.00  0.00     0.028 C 
ATOM     12  C   LIG d   1      -4.892  97.109 119.986  0.00  0.00     0.006 C 
ENDBRANCH   8  11
ENDBRANCH   7   8
ENDBRANCH   1   7
BRANCH   6  13
ATOM     13  N   LIG d   1      -2.857  94.105 119.506  0.00  0.00    -0.311 N 
ATOM     14  C   LIG d   1      -1.924  93.875 120.428  0.00  0.00     0.210 C 
ATOM     15  C   LIG d   1      -1.166  95.117 120.905  0.00  0.00     0.109 C 
ATOM     16  O   LIG d   1      -1.631  92.755 120.874  0.00  0.00    -0.276 OA
ATOM     17  H   LIG d   1      -3.006  95.039 119.178  0.00  0.00     0.149 HD
ENDBRANCH   6  13
BRANCH   5  18
ATOM     18  N   LIG d   1      -1.845  91.788 117.790  0.00  0.00     0.381 N 
ATOM     19  H   LIG d   1      -1.484  91.985 118.702  0.00  0.00    -0.090 HD
ATOM     20  H   LIG d   1      -1.195  92.140 117.110  0.00  0.00    -0.090 HD
ATOM     21  H   LIG d   1      -1.958  90.805 117.675  0.00  0.00    -0.090 HD
ENDBRANCH   5  18
BRANCH   3  22
ATOM     22  C   LIG d   1      -6.245  91.437 115.930  0.00  0.00     0.382 C 
ATOM     23  O   LIG d   1      -6.506  90.211 115.885  0.00  0.00    -0.241 OA
ATOM     24  O   LIG d   1      -6.681  92.191 115.039  0.00  0.00    -0.241 OA
ENDBRANCH   3  22
TORSDOF 7
ENDMDL
MODEL 5
REMARK VINA RESULT:      -5.1      1.461      1.846
REMARK  7 active torsions:
REMARK  status: ('A' for Active; 'I' for Inactive)
REMARK    1  A    between atoms: C_2  and  C_3 
REMARK    2  A    between atoms: C_3  and  O_6 
REMARK    3  A    between atoms: C_3  and  C_4 
REMARK    4  A    between atoms: C_7  and  O_6 
REMARK    5  A    between atoms: C_9  and  C_10 
REMARK    6  A    between atoms: N_15  and  C_14 
REMARK    7  A    between atoms: N_20  and  C_19 
REMARK       I    between atoms: C_22  and  N_20 
ROOT
ATOM      1  C   LIG d   1      -2.749  91.859 118.238  0.00  0.00     0.161 C 
ATOM      2  C   LIG d   1      -3.359  91.069 117.249  0.00  0.00     0.016 C 
ATOM      3  C   LIG d   1      -4.673  91.292 116.776  0.00  0.00     0.038 C 
ATOM      4  C   LIG d   1      -5.415  92.421 117.153  0.00  0.00     0.028 C 
ATOM      5  C   LIG d   1      -5.034  92.965 118.525  0.00  0.00    -0.047 C 
ATOM      6  C   LIG d   1      -3.502  93.162 118.580  0.00  0.00     0.091 C 
ENDROOT
BRANCH   1   7
ATOM      7  O   LIG d   1      -1.389  92.151 117.859  0.00  0.00    -0.368 OA
BRANCH   7   8
ATOM      8  C   LIG d   1      -0.362  91.707 118.779  0.00  0.00     0.119 C 
BRANCH   8   9
ATOM      9  C   LIG d   1       0.502  92.933 119.134  0.00  0.00     0.028 C 
ATOM     10  C   LIG d   1       0.858  92.986 120.630  0.00  0.00     0.006 C 
ENDBRANCH   8   9
BRANCH   8  11
ATOM     11  C   LIG d   1       0.595  90.717 118.110  0.00  0.00     0.028 C 
ATOM     12  C   LIG d   1       1.738  91.411 117.353  0.00  0.00     0.006 C 
ENDBRANCH   8  11
ENDBRANCH   7   8
ENDBRANCH   1   7
BRANCH   6  13
ATOM     13  N   LIG d   1      -3.036  93.612 119.917  0.00  0.00    -0.311 N 
ATOM     14  C   LIG d   1      -2.503  94.812 120.142  0.00  0.00     0.210 C 
ATOM     15  C   LIG d   1      -2.070  95.067 121.589  0.00  0.00     0.109 C 
ATOM     16  O   LIG d   1      -2.377  95.701 119.287  0.00  0.00    -0.276 OA
ATOM     17  H   LIG d   1      -3.129  92.965 120.675  0.00  0.00     0.149 HD
ENDBRANCH   6  13
BRANCH   5  18
ATOM     18  N   LIG d   1      -5.785  94.218 118.732  0.00  0.00     0.381 N 
ATOM     19  H   LIG d   1      -5.898  94.388 119.711  0.00  0.00    -0.090 HD
ATOM     20  H   LIG d   1      -6.698  94.121 118.322  0.00  0.00    -0.090 HD
ATOM     21  H   LIG d   1      -5.302  94.979 118.308  0.00  0.00    -0.090 HD
ENDBRANCH   5  18
BRANCH   3  22
ATOM     22  C   LIG d   1      -5.272  90.357 115.945  0.00  0.00     0.382 C 
ATOM     23  O   LIG d   1      -4.568  89.665 115.170  0.00  0.00    -0.241 OA
ATOM     24  O   LIG d   1      -6.511  90.229 115.928  0.00  0.00    -0.241 OA
ENDBRANCH   3  22
TORSDOF 7
ENDMDL
MODEL 6
REMARK VINA RESULT:      -4.8      1.965      5.067
REMARK  7 active torsions:
REMARK  status: ('A' for Active; 'I' for Inactive)
REMARK    1  A    between atoms: C_2  and  C_3 
REMARK    2  A    between atoms: C_3  and  O_6 
REMARK    3  A    between atoms: C_3  and  C_4 
REMARK    4  A    between atoms: C_7  and  O_6 
REMARK    5  A    between atoms: C_9  and  C_10 
REMARK    6  A    between atoms: N_15  and  C_14 
REMARK    7  A    between atoms: N_20  and  C_19 
REMARK       I    between atoms: C_22  and  N_20 
ROOT
ATOM      1  C   LIG d   1      -3.888  92.028 117.472  0.00  0.00     0.161 C 
ATOM      2  C   LIG d   1      -2.649  91.366 117.489  0.00  0.00     0.016 C 
ATOM      3  C   LIG d   1      -1.665  91.582 118.481  0.00  0.00     0.038 C 
ATOM      4  C   LIG d   1      -1.915  92.368 119.615  0.00  0.00     0.028 C 
ATOM      5  C   LIG d   1      -2.963  93.451 119.382  0.00  0.00    -0.047 C 
ATOM      6  C   LIG d   1      -4.223  92.805 118.762  0.00  0.00     0.091 C 
ENDROOT
BRANCH   1   7
ATOM      7  O   LIG d   1      -4.939  91.090 117.165  0.00  0.00    -0.368 OA
BRANCH   7   8
ATOM      8  C   LIG d   1      -5.874  91.495 116.136  0.00  0.00     0.119 C 
BRANCH   8   9
ATOM      9  C   LIG d   1      -7.292  91.168 116.645  0.00  0.00     0.028 C 
ATOM     10  C   LIG d   1      -7.928  89.988 115.891  0.00  0.00     0.006 C 
ENDBRANCH   8   9
BRANCH   8  11
ATOM     11  C   LIG d   1      -5.698  90.663 114.863  0.00  0.00     0.028 C 
ATOM     12  C   LIG d   1      -4.622  89.575 115.007  0.00  0.00     0.006 C 
ENDBRANCH   8  11
ENDBRANCH   7   8
ENDBRANCH   1   7
BRANCH   6  13
ATOM     13  N   LIG d   1      -5.267  93.808 118.424  0.00  0.00    -0.311 N 
ATOM     14  C   LIG d   1      -6.132  94.294 119.313  0.00  0.00     0.210 C 
ATOM     15  C   LIG d   1      -7.138  95.303 118.751  0.00  0.00     0.109 C 
ATOM     16  O   LIG d   1      -6.141  94.009 120.520  0.00  0.00    -0.276 OA
ATOM     17  H   LIG d   1      -5.310  94.118 117.473  0.00  0.00     0.149 HD
ENDBRANCH   6  13
BRANCH   5  18
ATOM     18  N   LIG d   1      -3.226  94.103 120.679  0.00  0.00     0.381 N 
ATOM     19  H   LIG d   1      -2.360  94.326 121.128  0.00  0.00    -0.090 HD
ATOM     20  H   LIG d   1      -3.731  93.465 121.267  0.00  0.00    -0.090 HD
ATOM     21  H   LIG d   1      -3.760  94.933 120.541  0.00  0.00    -0.090 HD
ENDBRANCH   5  18
BRANCH   3  22
ATOM     22  C   LIG d   1      -0.398  91.039 118.322  0.00  0.00     0.382 C 
ATOM     23  O   LIG d   1       0.033  90.781 117.172  0.00  0.00    -0.241 OA
ATOM     24  O   LIG d   1       0.300  90.764 119.316  0.00  0.00    -0.241 OA
ENDBRANCH   3  22
TORSDOF 7
ENDMDL
MODEL 7
REMARK VINA RESULT:      -4.8      2.954      4.858
REMARK  7 active torsions:
REMARK  status: ('A' for Active; 'I' for Inactive)
REMARK    1  A    between atoms: C_2  and  C_3 
REMARK    2  A    between atoms: C_3  and  O_6 
REMARK    3  A    between atoms: C_3  and  C_4 
REMARK    4  A    between atoms: C_7  and  O_6 
REMARK    5  A    between atoms: C_9  and  C_10 
REMARK    6  A    between atoms: N_15  and  C_14 
REMARK    7  A    between atoms: N_20  and  C_19 
REMARK       I    between atoms: C_22  and  N_20 
ROOT
ATOM      1  C   LIG d   1      -5.499  94.006 119.891  0.00  0.00     0.161 C 
ATOM      2  C   LIG d   1      -6.705  94.479 119.348  0.00  0.00     0.016 C 
ATOM      3  C   LIG d   1      -6.912  95.824 118.964  0.00  0.00     0.038 C 
ATOM      4  C   LIG d   1      -5.868  96.762 118.957  0.00  0.00     0.028 C 
ATOM      5  C   LIG d   1      -4.771  96.455 119.971  0.00  0.00    -0.047 C 
ATOM      6  C   LIG d   1      -4.314  94.989 119.787  0.00  0.00     0.091 C 
ENDROOT
BRANCH   1   7
ATOM      7  O   LIG d   1      -5.155  92.742 119.290  0.00  0.00    -0.368 OA
BRANCH   7   8
ATOM      8  C   LIG d   1      -4.693  92.793 117.918  0.00  0.00     0.119 C 
BRANCH   8   9
ATOM      9  C   LIG d   1      -5.481  91.733 117.124  0.00  0.00     0.028 C 
ATOM     10  C   LIG d   1      -6.800  92.285 116.558  0.00  0.00     0.006 C 
ENDBRANCH   8   9
BRANCH   8  11
ATOM     11  C   LIG d   1      -3.224  92.372 117.809  0.00  0.00     0.028 C 
ATOM     12  C   LIG d   1      -3.054  90.878 117.490  0.00  0.00     0.006 C 
ENDBRANCH   8  11
ENDBRANCH   7   8
ENDBRANCH   1   7
BRANCH   6  13
ATOM     13  N   LIG d   1      -3.302  94.581 120.796  0.00  0.00    -0.311 N 
ATOM     14  C   LIG d   1      -1.988  94.644 120.583  0.00  0.00     0.210 C 
ATOM     15  C   LIG d   1      -1.121  94.155 121.747  0.00  0.00     0.109 C 
ATOM     16  O   LIG d   1      -1.459  95.088 119.553  0.00  0.00    -0.276 OA
ATOM     17  H   LIG d   1      -3.643  94.238 121.672  0.00  0.00     0.149 HD
ENDBRANCH   6  13
BRANCH   5  18
ATOM     18  N   LIG d   1      -3.685  97.430 119.761  0.00  0.00     0.381 N 
ATOM     19  H   LIG d   1      -4.066  98.353 119.699  0.00  0.00    -0.090 HD
ATOM     20  H   LIG d   1      -3.223  97.220 118.894  0.00  0.00    -0.090 HD
ATOM     21  H   LIG d   1      -3.033  97.382 120.513  0.00  0.00    -0.090 HD
ENDBRANCH   5  18
BRANCH   3  22
ATOM     22  C   LIG d   1      -8.184  96.253 118.619  0.00  0.00     0.382 C 
ATOM     23  O   LIG d   1      -8.353  97.407 118.157  0.00  0.00    -0.241 OA
ATOM     24  O   LIG d   1      -9.171  95.516 118.805  0.00  0.00    -0.241 OA
ENDBRANCH   3  22
TORSDOF 7
ENDMDL
MODEL 8
REMARK VINA RESULT:      -4.7      2.350      5.555
REMARK  7 active torsions:
REMARK  status: ('A' for Active; 'I' for Inactive)
REMARK    1  A    between atoms: C_2  and  C_3 
REMARK    2  A    between atoms: C_3  and  O_6 
REMARK    3  A    between atoms: C_3  and  C_4 
REMARK    4  A    between atoms: C_7  and  O_6 
REMARK    5  A    between atoms: C_9  and  C_10 
REMARK    6  A    between atoms: N_15  and  C_14 
REMARK    7  A    between atoms: N_20  and  C_19 
REMARK       I    between atoms: C_22  and  N_20 
ROOT
ATOM      1  C   LIG d   1      -3.470  92.947 119.354  0.00  0.00     0.161 C 
ATOM      2  C   LIG d   1      -2.158  92.901 119.854  0.00  0.00     0.016 C 
ATOM      3  C   LIG d   1      -1.157  92.047 119.337  0.00  0.00     0.038 C 
ATOM      4  C   LIG d   1      -1.360  91.284 118.177  0.00  0.00     0.028 C 
ATOM      5  C   LIG d   1      -2.822  90.919 117.941  0.00  0.00    -0.047 C 
ATOM      6  C   LIG d   1      -3.679  92.203 118.018  0.00  0.00     0.091 C 
ENDROOT
BRANCH   1   7
ATOM      7  O   LIG d   1      -3.901  94.317 119.237  0.00  0.00    -0.368 OA
BRANCH   7   8
ATOM      8  C   LIG d   1      -4.250  94.984 120.475  0.00  0.00     0.119 C 
BRANCH   8   9
ATOM      9  C   LIG d   1      -5.637  95.626 120.280  0.00  0.00     0.028 C 
ATOM     10  C   LIG d   1      -6.322  95.160 118.984  0.00  0.00     0.006 C 
ENDBRANCH   8   9
BRANCH   8  11
ATOM     11  C   LIG d   1      -3.301  96.150 120.767  0.00  0.00     0.028 C 
ATOM     12  C   LIG d   1      -2.604  96.681 119.504  0.00  0.00     0.006 C 
ENDBRANCH   8  11
ENDBRANCH   7   8
ENDBRANCH   1   7
BRANCH   6  13
ATOM     13  N   LIG d   1      -5.132  91.924 117.881  0.00  0.00    -0.311 N 
ATOM     14  C   LIG d   1      -5.770  91.916 116.712  0.00  0.00     0.210 C 
ATOM     15  C   LIG d   1      -7.272  91.625 116.797  0.00  0.00     0.109 C 
ATOM     16  O   LIG d   1      -5.229  92.090 115.610  0.00  0.00    -0.276 OA
ATOM     17  H   LIG d   1      -5.643  91.741 118.723  0.00  0.00     0.149 HD
ENDBRANCH   6  13
BRANCH   5  18
ATOM     18  N   LIG d   1      -2.907  90.245 116.631  0.00  0.00     0.381 N 
ATOM     19  H   LIG d   1      -3.061  89.265 116.764  0.00  0.00    -0.090 HD
ATOM     20  H   LIG d   1      -2.034  90.364 116.147  0.00  0.00    -0.090 HD
ATOM     21  H   LIG d   1      -3.649  90.636 116.094  0.00  0.00    -0.090 HD
ENDBRANCH   5  18
BRANCH   3  22
ATOM     22  C   LIG d   1       0.051  91.920 120.006  0.00  0.00     0.382 C 
ATOM     23  O   LIG d   1       0.219  90.983 120.823  0.00  0.00    -0.241 OA
ATOM     24  O   LIG d   1       0.958  92.756 119.835  0.00  0.00    -0.241 OA
ENDBRANCH   3  22
TORSDOF 7
ENDMDL
MODEL 9
REMARK VINA RESULT:      -4.5      2.448      5.028
REMARK  7 active torsions:
REMARK  status: ('A' for Active; 'I' for Inactive)
REMARK    1  A    between atoms: C_2  and  C_3 
REMARK    2  A    between atoms: C_3  and  O_6 
REMARK    3  A    between atoms: C_3  and  C_4 
REMARK    4  A    between atoms: C_7  and  O_6 
REMARK    5  A    between atoms: C_9  and  C_10 
REMARK    6  A    between atoms: N_15  and  C_14 
REMARK    7  A    between atoms: N_20  and  C_19 
REMARK       I    between atoms: C_22  and  N_20 
ROOT
ATOM      1  C   LIG d   1      -4.125  93.282 118.607  0.00  0.00     0.161 C 
ATOM      2  C   LIG d   1      -3.197  92.346 119.092  0.00  0.00     0.016 C 
ATOM      3  C   LIG d   1      -3.216  91.844 120.414  0.00  0.00     0.038 C 
ATOM      4  C   LIG d   1      -4.263  92.133 121.302  0.00  0.00     0.028 C 
ATOM      5  C   LIG d   1      -4.945  93.468 121.020  0.00  0.00    -0.047 C 
ATOM      6  C   LIG d   1      -5.340  93.524 119.527  0.00  0.00     0.091 C 
ENDROOT
BRANCH   1   7
ATOM      7  O   LIG d   1      -4.564  92.897 117.289  0.00  0.00    -0.368 OA
BRANCH   7   8
ATOM      8  C   LIG d   1      -5.365  91.693 117.210  0.00  0.00     0.119 C 
BRANCH   8   9
ATOM      9  C   LIG d   1      -4.709  90.768 116.166  0.00  0.00     0.028 C 
ATOM     10  C   LIG d   1      -3.420  90.113 116.691  0.00  0.00     0.006 C 
ENDBRANCH   8   9
BRANCH   8  11
ATOM     11  C   LIG d   1      -6.765  91.990 116.666  0.00  0.00     0.028 C 
ATOM     12  C   LIG d   1      -6.859  91.823 115.141  0.00  0.00     0.006 C 
ENDBRANCH   8  11
ENDBRANCH   7   8
ENDBRANCH   1   7
BRANCH   6  13
ATOM     13  N   LIG d   1      -5.938  94.831 119.148  0.00  0.00    -0.311 N 
ATOM     14  C   LIG d   1      -7.251  95.048 119.091  0.00  0.00     0.210 C 
ATOM     15  C   LIG d   1      -7.654  96.461 118.658  0.00  0.00     0.109 C 
ATOM     16  O   LIG d   1      -8.119  94.214 119.388  0.00  0.00    -0.276 OA
ATOM     17  H   LIG d   1      -5.305  95.573 118.921  0.00  0.00     0.149 HD
ENDBRANCH   6  13
BRANCH   5  18
ATOM     18  N   LIG d   1      -6.101  93.578 121.929  0.00  0.00     0.381 N 
ATOM     19  H   LIG d   1      -6.635  94.393 121.701  0.00  0.00    -0.090 HD
ATOM     20  H   LIG d   1      -5.766  93.675 122.872  0.00  0.00    -0.090 HD
ATOM     21  H   LIG d   1      -6.673  92.766 121.854  0.00  0.00    -0.090 HD
ENDBRANCH   5  18
BRANCH   3  22
ATOM     22  C   LIG d   1      -2.157  91.075 120.873  0.00  0.00     0.382 C 
ATOM     23  O   LIG d   1      -1.050  91.118 120.284  0.00  0.00    -0.241 OA
ATOM     24  O   LIG d   1      -2.308  90.305 121.840  0.00  0.00    -0.241 OA
ENDBRANCH   3  22
TORSDOF 7
ENDMDL
