MODEL 1
REMARK VINA RESULT:      -5.4      0.000      0.000
REMARK  7 active torsions:
REMARK  status: ('A' for Active; 'I' for Inactive)
REMARK    1  A    between atoms: C_2  and  C_3 
REMARK    2  A    between atoms: C_3  and  O_6 
REMARK    3  A    between atoms: C_3  and  C_4 
REMARK    4  A    between atoms: C_7  and  O_6 
REMARK    5  A    between atoms: C_9  and  C_10 
REMARK    6  A    between atoms: N_15  and  C_14 
REMARK    7  A    between atoms: N_20  and  C_19 
REMARK       I    between atoms: C_22  and  N_20 
ROOT
ATOM      1  C   LIG d   1      -6.380  92.498 118.266  0.00  0.00     0.161 C 
ATOM      2  C   LIG d   1      -6.865  91.654 117.254  0.00  0.00     0.016 C 
ATOM      3  C   LIG d   1      -6.033  90.818 116.473  0.00  0.00     0.038 C 
ATOM      4  C   LIG d   1      -4.669  90.657 116.756  0.00  0.00     0.028 C 
ATOM      5  C   LIG d   1      -4.045  91.868 117.441  0.00  0.00    -0.047 C 
ATOM      6  C   LIG d   1      -4.909  92.253 118.663  0.00  0.00     0.091 C 
ENDROOT
BRANCH   1   7
ATOM      7  O   LIG d   1      -7.233  92.411 119.425  0.00  0.00    -0.368 OA
BRANCH   7   8
ATOM      8  C   LIG d   1      -8.377  93.301 119.442  0.00  0.00     0.119 C 
BRANCH   8   9
ATOM      9  C   LIG d   1      -7.840  94.745 119.455  0.00  0.00     0.028 C 
ATOM     10  C   LIG d   1      -8.276  95.544 118.216  0.00  0.00     0.006 C 
ENDBRANCH   8   9
BRANCH   8  11
ATOM     11  C   LIG d   1      -9.177  93.153 120.740  0.00  0.00     0.028 C 
ATOM     12  C   LIG d   1      -8.415  92.377 121.825  0.00  0.00     0.006 C 
ENDBRANCH   8  11
ENDBRANCH   7   8
ENDBRANCH   1   7
BRANCH   6  13
ATOM     13  N   LIG d   1      -4.416  93.480 119.342  0.00  0.00    -0.311 N 
ATOM     14  C   LIG d   1      -3.590  93.459 120.387  0.00  0.00     0.210 C 
ATOM     15  C   LIG d   1      -3.221  94.835 120.948  0.00  0.00     0.109 C 
ATOM     16  O   LIG d   1      -3.102  92.431 120.881  0.00  0.00    -0.276 OA
ATOM     17  H   LIG d   1      -4.738  94.359 118.986  0.00  0.00     0.149 HD
ENDBRANCH   6  13
BRANCH   5  18
ATOM     18  N   LIG d   1      -2.660  91.512 117.801  0.00  0.00     0.381 N 
ATOM     19  H   LIG d   1      -2.619  90.553 118.081  0.00  0.00    -0.090 HD
ATOM     20  H   LIG d   1      -2.369  92.081 118.577  0.00  0.00    -0.090 HD
ATOM     21  H   LIG d   1      -2.055  91.665 117.024  0.00  0.00    -0.090 HD
ENDBRANCH   5  18
BRANCH   3  22
ATOM     22  C   LIG d   1      -6.559  90.163 115.370  0.00  0.00     0.382 C 
ATOM     23  O   LIG d   1      -7.678  90.502 114.913  0.00  0.00    -0.241 OA
ATOM     24  O   LIG d   1      -5.950  89.208 114.852  0.00  0.00    -0.241 OA
ENDBRANCH   3  22
TORSDOF 7
ENDMDL
MODEL 2
REMARK VINA RESULT:      -5.3      2.271      4.660
REMARK  7 active torsions:
REMARK  status: ('A' for Active; 'I' for Inactive)
REMARK    1  A    between atoms: C_2  and  C_3 
REMARK    2  A    between atoms: C_3  and  O_6 
REMARK    3  A    between atoms: C_3  and  C_4 
REMARK    4  A    between atoms: C_7  and  O_6 
REMARK    5  A    between atoms: C_9  and  C_10 
REMARK    6  A    between atoms: N_15  and  C_14 
REMARK    7  A    between atoms: N_20  and  C_19 
REMARK       I    between atoms: C_22  and  N_20 
ROOT
ATOM      1  C   LIG d   1      -4.287  91.265 117.930  0.00  0.00     0.161 C 
ATOM      2  C   LIG d   1      -4.777  90.613 116.787  0.00  0.00     0.016 C 
ATOM      3  C   LIG d   1      -5.959  91.003 116.115  0.00  0.00     0.038 C 
ATOM      4  C   LIG d   1      -6.653  92.174 116.455  0.00  0.00     0.028 C 
ATOM      5  C   LIG d   1      -6.478  92.579 117.914  0.00  0.00    -0.047 C 
ATOM      6  C   LIG d   1      -4.970  92.612 118.249  0.00  0.00     0.091 C 
ENDROOT
BRANCH   1   7
ATOM      7  O   LIG d   1      -2.861  91.441 117.818  0.00  0.00    -0.368 OA
BRANCH   7   8
ATOM      8  C   LIG d   1      -2.043  90.494 118.548  0.00  0.00     0.119 C 
BRANCH   8   9
ATOM      9  C   LIG d   1      -1.455  91.232 119.766  0.00  0.00     0.028 C 
ATOM     10  C   LIG d   1      -1.053  92.680 119.437  0.00  0.00     0.006 C 
ENDBRANCH   8   9
BRANCH   8  11
ATOM     11  C   LIG d   1      -0.833  90.049 117.721  0.00  0.00     0.028 C 
ATOM     12  C   LIG d   1      -0.584  88.534 117.797  0.00  0.00     0.006 C 
ENDBRANCH   8  11
ENDBRANCH   7   8
ENDBRANCH   1   7
BRANCH   6  13
ATOM     13  N   LIG d   1      -4.713  92.918 119.681  0.00  0.00    -0.311 N 
ATOM     14  C   LIG d   1      -4.551  94.155 120.148  0.00  0.00     0.210 C 
ATOM     15  C   LIG d   1      -4.277  94.246 121.652  0.00  0.00     0.109 C 
ATOM     16  O   LIG d   1      -4.641  95.186 119.466  0.00  0.00    -0.276 OA
ATOM     17  H   LIG d   1      -4.656  92.142 120.310  0.00  0.00     0.149 HD
ENDBRANCH   6  13
BRANCH   5  18
ATOM     18  N   LIG d   1      -7.139  93.885 118.096  0.00  0.00     0.381 N 
ATOM     19  H   LIG d   1      -7.763  94.058 117.333  0.00  0.00    -0.090 HD
ATOM     20  H   LIG d   1      -6.439  94.606 118.101  0.00  0.00    -0.090 HD
ATOM     21  H   LIG d   1      -7.643  93.896 118.955  0.00  0.00    -0.090 HD
ENDBRANCH   5  18
BRANCH   3  22
ATOM     22  C   LIG d   1      -6.479  90.195 115.115  0.00  0.00     0.382 C 
ATOM     23  O   LIG d   1      -7.603  90.454 114.622  0.00  0.00    -0.241 OA
ATOM     24  O   LIG d   1      -5.859  89.185 114.732  0.00  0.00    -0.241 OA
ENDBRANCH   3  22
TORSDOF 7
ENDMDL
MODEL 3
REMARK VINA RESULT:      -5.1      2.422      4.887
REMARK  7 active torsions:
REMARK  status: ('A' for Active; 'I' for Inactive)
REMARK    1  A    between atoms: C_2  and  C_3 
REMARK    2  A    between atoms: C_3  and  O_6 
REMARK    3  A    between atoms: C_3  and  C_4 
REMARK    4  A    between atoms: C_7  and  O_6 
REMARK    5  A    between atoms: C_9  and  C_10 
REMARK    6  A    between atoms: N_15  and  C_14 
REMARK    7  A    between atoms: N_20  and  C_19 
REMARK       I    between atoms: C_22  and  N_20 
ROOT
ATOM      1  C   LIG d   1      -4.233  92.112 119.014  0.00  0.00     0.161 C 
ATOM      2  C   LIG d   1      -5.465  92.783 119.082  0.00  0.00     0.016 C 
ATOM      3  C   LIG d   1      -6.489  92.630 118.119  0.00  0.00     0.038 C 
ATOM      4  C   LIG d   1      -6.407  91.674 117.096  0.00  0.00     0.028 C 
ATOM      5  C   LIG d   1      -4.975  91.336 116.695  0.00  0.00    -0.047 C 
ATOM      6  C   LIG d   1      -4.169  90.981 117.965  0.00  0.00     0.091 C 
ENDROOT
BRANCH   1   7
ATOM      7  O   LIG d   1      -3.878  91.608 120.316  0.00  0.00    -0.368 OA
BRANCH   7   8
ATOM      8  C   LIG d   1      -2.829  92.325 121.013  0.00  0.00     0.119 C 
BRANCH   8   9
ATOM      9  C   LIG d   1      -2.107  93.209 119.978  0.00  0.00     0.028 C 
ATOM     10  C   LIG d   1      -0.635  92.805 119.787  0.00  0.00     0.006 C 
ENDBRANCH   8   9
BRANCH   8  11
ATOM     11  C   LIG d   1      -1.759  91.368 121.546  0.00  0.00     0.028 C 
ATOM     12  C   LIG d   1      -2.245  89.912 121.620  0.00  0.00     0.006 C 
ENDBRANCH   8  11
ENDBRANCH   7   8
ENDBRANCH   1   7
BRANCH   6  13
ATOM     13  N   LIG d   1      -2.736  90.720 117.673  0.00  0.00    -0.311 N 
ATOM     14  C   LIG d   1      -2.138  89.555 117.919  0.00  0.00     0.210 C 
ATOM     15  C   LIG d   1      -0.649  89.504 117.560  0.00  0.00     0.109 C 
ATOM     16  O   LIG d   1      -2.706  88.550 118.370  0.00  0.00    -0.276 OA
ATOM     17  H   LIG d   1      -2.207  91.472 117.276  0.00  0.00     0.149 HD
ENDBRANCH   6  13
BRANCH   5  18
ATOM     18  N   LIG d   1      -5.034  90.230 115.720  0.00  0.00     0.381 N 
ATOM     19  H   LIG d   1      -4.147  89.770 115.677  0.00  0.00    -0.090 HD
ATOM     20  H   LIG d   1      -5.238  90.608 114.812  0.00  0.00    -0.090 HD
ATOM     21  H   LIG d   1      -5.741  89.580 115.984  0.00  0.00    -0.090 HD
ENDBRANCH   5  18
BRANCH   3  22
ATOM     22  C   LIG d   1      -7.594  93.467 118.151  0.00  0.00     0.382 C 
ATOM     23  O   LIG d   1      -8.314  93.516 119.177  0.00  0.00    -0.241 OA
ATOM     24  O   LIG d   1      -7.905  94.141 117.151  0.00  0.00    -0.241 OA
ENDBRANCH   3  22
TORSDOF 7
ENDMDL
MODEL 4
REMARK VINA RESULT:      -5.1      1.603      4.842
REMARK  7 active torsions:
REMARK  status: ('A' for Active; 'I' for Inactive)
REMARK    1  A    between atoms: C_2  and  C_3 
REMARK    2  A    between atoms: C_3  and  O_6 
REMARK    3  A    between atoms: C_3  and  C_4 
REMARK    4  A    between atoms: C_7  and  O_6 
REMARK    5  A    between atoms: C_9  and  C_10 
REMARK    6  A    between atoms: N_15  and  C_14 
REMARK    7  A    between atoms: N_20  and  C_19 
REMARK       I    between atoms: C_22  and  N_20 
ROOT
ATOM      1  C   LIG d   1      -6.496  92.403 118.779  0.00  0.00     0.161 C 
ATOM      2  C   LIG d   1      -5.471  93.071 119.469  0.00  0.00     0.016 C 
ATOM      3  C   LIG d   1      -4.096  92.863 119.213  0.00  0.00     0.038 C 
ATOM      4  C   LIG d   1      -3.653  92.078 118.138  0.00  0.00     0.028 C 
ATOM      5  C   LIG d   1      -4.641  90.989 117.736  0.00  0.00    -0.047 C 
ATOM      6  C   LIG d   1      -6.034  91.626 117.528  0.00  0.00     0.091 C 
ENDROOT
BRANCH   1   7
ATOM      7  O   LIG d   1      -7.540  93.334 118.434  0.00  0.00    -0.368 OA
BRANCH   7   8
ATOM      8  C   LIG d   1      -7.999  94.201 119.500  0.00  0.00     0.119 C 
BRANCH   8   9
ATOM      9  C   LIG d   1      -9.280  93.577 120.086  0.00  0.00     0.028 C 
ATOM     10  C   LIG d   1      -9.020  92.838 121.410  0.00  0.00     0.006 C 
ENDBRANCH   8   9
BRANCH   8  11
ATOM     11  C   LIG d   1      -8.426  95.570 118.960  0.00  0.00     0.028 C 
ATOM     12  C   LIG d   1      -7.512  96.710 119.436  0.00  0.00     0.006 C 
ENDBRANCH   8  11
ENDBRANCH   7   8
ENDBRANCH   1   7
BRANCH   6  13
ATOM     13  N   LIG d   1      -7.079  90.617 117.214  0.00  0.00    -0.311 N 
ATOM     14  C   LIG d   1      -7.361  90.215 115.976  0.00  0.00     0.210 C 
ATOM     15  C   LIG d   1      -8.487  89.181 115.873  0.00  0.00     0.109 C 
ATOM     16  O   LIG d   1      -6.764  90.592 114.957  0.00  0.00    -0.276 OA
ATOM     17  H   LIG d   1      -7.591  90.235 117.986  0.00  0.00     0.149 HD
ENDBRANCH   6  13
BRANCH   5  18
ATOM     18  N   LIG d   1      -4.117  90.338 116.520  0.00  0.00     0.381 N 
ATOM     19  H   LIG d   1      -4.261  90.933 115.728  0.00  0.00    -0.090 HD
ATOM     20  H   LIG d   1      -4.620  89.482 116.367  0.00  0.00    -0.090 HD
ATOM     21  H   LIG d   1      -3.145  90.146 116.628  0.00  0.00    -0.090 HD
ENDBRANCH   5  18
BRANCH   3  22
ATOM     22  C   LIG d   1      -3.148  93.412 120.063  0.00  0.00     0.382 C 
ATOM     23  O   LIG d   1      -3.234  94.616 120.403  0.00  0.00    -0.241 OA
ATOM     24  O   LIG d   1      -2.183  92.730 120.457  0.00  0.00    -0.241 OA
ENDBRANCH   3  22
TORSDOF 7
ENDMDL
MODEL 5
REMARK VINA RESULT:      -5.1      2.789      6.585
REMARK  7 active torsions:
REMARK  status: ('A' for Active; 'I' for Inactive)
REMARK    1  A    between atoms: C_2  and  C_3 
REMARK    2  A    between atoms: C_3  and  O_6 
REMARK    3  A    between atoms: C_3  and  C_4 
REMARK    4  A    between atoms: C_7  and  O_6 
REMARK    5  A    between atoms: C_9  and  C_10 
REMARK    6  A    between atoms: N_15  and  C_14 
REMARK    7  A    between atoms: N_20  and  C_19 
REMARK       I    between atoms: C_22  and  N_20 
ROOT
ATOM      1  C   LIG d   1      -3.678  91.106 118.047  0.00  0.00     0.161 C 
ATOM      2  C   LIG d   1      -3.154  91.804 119.147  0.00  0.00     0.016 C 
ATOM      3  C   LIG d   1      -3.809  92.897 119.760  0.00  0.00     0.038 C 
ATOM      4  C   LIG d   1      -5.114  93.272 119.405  0.00  0.00     0.028 C 
ATOM      5  C   LIG d   1      -5.475  92.921 117.966  0.00  0.00    -0.047 C 
ATOM      6  C   LIG d   1      -5.151  91.430 117.717  0.00  0.00     0.091 C 
ENDROOT
BRANCH   1   7
ATOM      7  O   LIG d   1      -3.509  89.688 118.242  0.00  0.00    -0.368 OA
BRANCH   7   8
ATOM      8  C   LIG d   1      -2.287  89.277 118.902  0.00  0.00     0.119 C 
BRANCH   8   9
ATOM      9  C   LIG d   1      -1.310  88.798 117.811  0.00  0.00     0.028 C 
ATOM     10  C   LIG d   1      -0.207  89.828 117.518  0.00  0.00     0.006 C 
ENDBRANCH   8   9
BRANCH   8  11
ATOM     11  C   LIG d   1      -2.522  88.058 119.800  0.00  0.00     0.028 C 
ATOM     12  C   LIG d   1      -1.390  87.022 119.706  0.00  0.00     0.006 C 
ENDBRANCH   8  11
ENDBRANCH   7   8
ENDBRANCH   1   7
BRANCH   6  13
ATOM     13  N   LIG d   1      -5.396  91.024 116.309  0.00  0.00    -0.311 N 
ATOM     14  C   LIG d   1      -6.450  90.305 115.926  0.00  0.00     0.210 C 
ATOM     15  C   LIG d   1      -6.501  89.979 114.430  0.00  0.00     0.109 C 
ATOM     16  O   LIG d   1      -7.364  89.934 116.678  0.00  0.00    -0.276 OA
ATOM     17  H   LIG d   1      -4.720  91.309 115.627  0.00  0.00     0.149 HD
ENDBRANCH   6  13
BRANCH   5  18
ATOM     18  N   LIG d   1      -6.902  93.241 117.774  0.00  0.00     0.381 N 
ATOM     19  H   LIG d   1      -6.998  93.966 117.091  0.00  0.00    -0.090 HD
ATOM     20  H   LIG d   1      -7.280  93.576 118.643  0.00  0.00    -0.090 HD
ATOM     21  H   LIG d   1      -7.398  92.429 117.479  0.00  0.00    -0.090 HD
ENDBRANCH   5  18
BRANCH   3  22
ATOM     22  C   LIG d   1      -3.142  93.652 120.712  0.00  0.00     0.382 C 
ATOM     23  O   LIG d   1      -2.987  94.885 120.538  0.00  0.00    -0.241 OA
ATOM     24  O   LIG d   1      -2.655  93.109 121.721  0.00  0.00    -0.241 OA
ENDBRANCH   3  22
TORSDOF 7
ENDMDL
MODEL 6
REMARK VINA RESULT:      -5.0      2.817      5.332
REMARK  7 active torsions:
REMARK  status: ('A' for Active; 'I' for Inactive)
REMARK    1  A    between atoms: C_2  and  C_3 
REMARK    2  A    between atoms: C_3  and  O_6 
REMARK    3  A    between atoms: C_3  and  C_4 
REMARK    4  A    between atoms: C_7  and  O_6 
REMARK    5  A    between atoms: C_9  and  C_10 
REMARK    6  A    between atoms: N_15  and  C_14 
REMARK    7  A    between atoms: N_20  and  C_19 
REMARK       I    between atoms: C_22  and  N_20 
ROOT
ATOM      1  C   LIG d   1      -3.563  90.507 117.956  0.00  0.00     0.161 C 
ATOM      2  C   LIG d   1      -4.327  90.071 116.861  0.00  0.00     0.016 C 
ATOM      3  C   LIG d   1      -5.437  90.785 116.352  0.00  0.00     0.038 C 
ATOM      4  C   LIG d   1      -5.768  92.067 116.814  0.00  0.00     0.028 C 
ATOM      5  C   LIG d   1      -5.336  92.323 118.254  0.00  0.00    -0.047 C 
ATOM      6  C   LIG d   1      -3.842  91.958 118.402  0.00  0.00     0.091 C 
ENDROOT
BRANCH   1   7
ATOM      7  O   LIG d   1      -2.161  90.329 117.676  0.00  0.00    -0.368 OA
BRANCH   7   8
ATOM      8  C   LIG d   1      -1.595  89.047 118.045  0.00  0.00     0.119 C 
BRANCH   8   9
ATOM      9  C   LIG d   1      -1.789  88.875 119.563  0.00  0.00     0.028 C 
ATOM     10  C   LIG d   1      -2.518  87.567 119.917  0.00  0.00     0.006 C 
ENDBRANCH   8   9
BRANCH   8  11
ATOM     11  C   LIG d   1      -0.079  89.023 117.825  0.00  0.00     0.028 C 
ATOM     12  C   LIG d   1       0.486  87.598 117.729  0.00  0.00     0.006 C 
ENDBRANCH   8  11
ENDBRANCH   7   8
ENDBRANCH   1   7
BRANCH   6  13
ATOM     13  N   LIG d   1      -3.359  92.099 119.801  0.00  0.00    -0.311 N 
ATOM     14  C   LIG d   1      -2.158  92.577 120.118  0.00  0.00     0.210 C 
ATOM     15  C   LIG d   1      -1.853  92.619 121.618  0.00  0.00     0.109 C 
ATOM     16  O   LIG d   1      -1.327  93.001 119.300  0.00  0.00    -0.276 OA
ATOM     17  H   LIG d   1      -3.982  91.808 120.529  0.00  0.00     0.149 HD
ENDBRANCH   6  13
BRANCH   5  18
ATOM     18  N   LIG d   1      -5.619  93.738 118.560  0.00  0.00     0.381 N 
ATOM     19  H   LIG d   1      -5.289  93.959 119.478  0.00  0.00    -0.090 HD
ATOM     20  H   LIG d   1      -6.613  93.883 118.538  0.00  0.00    -0.090 HD
ATOM     21  H   LIG d   1      -5.175  94.327 117.890  0.00  0.00    -0.090 HD
ENDBRANCH   5  18
BRANCH   3  22
ATOM     22  C   LIG d   1      -6.253  90.198 115.398  0.00  0.00     0.382 C 
ATOM     23  O   LIG d   1      -5.865  89.173 114.786  0.00  0.00    -0.241 OA
ATOM     24  O   LIG d   1      -7.353  90.705 115.108  0.00  0.00    -0.241 OA
ENDBRANCH   3  22
TORSDOF 7
ENDMDL
MODEL 7
REMARK VINA RESULT:      -4.9      2.831      6.853
REMARK  7 active torsions:
REMARK  status: ('A' for Active; 'I' for Inactive)
REMARK    1  A    between atoms: C_2  and  C_3 
REMARK    2  A    between atoms: C_3  and  O_6 
REMARK    3  A    between atoms: C_3  and  C_4 
REMARK    4  A    between atoms: C_7  and  O_6 
REMARK    5  A    between atoms: C_9  and  C_10 
REMARK    6  A    between atoms: N_15  and  C_14 
REMARK    7  A    between atoms: N_20  and  C_19 
REMARK       I    between atoms: C_22  and  N_20 
ROOT
ATOM      1  C   LIG d   1      -3.303  90.790 118.228  0.00  0.00     0.161 C 
ATOM      2  C   LIG d   1      -2.856  91.557 119.317  0.00  0.00     0.016 C 
ATOM      3  C   LIG d   1      -3.543  92.693 119.803  0.00  0.00     0.038 C 
ATOM      4  C   LIG d   1      -4.811  93.054 119.325  0.00  0.00     0.028 C 
ATOM      5  C   LIG d   1      -5.066  92.609 117.889  0.00  0.00    -0.047 C 
ATOM      6  C   LIG d   1      -4.742  91.103 117.765  0.00  0.00     0.091 C 
ENDROOT
BRANCH   1   7
ATOM      7  O   LIG d   1      -3.168  89.387 118.529  0.00  0.00    -0.368 OA
BRANCH   7   8
ATOM      8  C   LIG d   1      -1.996  88.729 117.987  0.00  0.00     0.119 C 
BRANCH   8   9
ATOM      9  C   LIG d   1      -1.368  87.895 119.120  0.00  0.00     0.028 C 
ATOM     10  C   LIG d   1      -2.379  87.552 120.227  0.00  0.00     0.006 C 
ENDBRANCH   8   9
BRANCH   8  11
ATOM     11  C   LIG d   1      -0.922  89.745 117.587  0.00  0.00     0.028 C 
ATOM     12  C   LIG d   1       0.500  89.164 117.650  0.00  0.00     0.006 C 
ENDBRANCH   8  11
ENDBRANCH   7   8
ENDBRANCH   1   7
BRANCH   6  13
ATOM     13  N   LIG d   1      -4.883  90.605 116.372  0.00  0.00    -0.311 N 
ATOM     14  C   LIG d   1      -6.014  90.094 115.887  0.00  0.00     0.210 C 
ATOM     15  C   LIG d   1      -5.938  89.622 114.432  0.00  0.00     0.109 C 
ATOM     16  O   LIG d   1      -7.081  90.017 116.514  0.00  0.00    -0.276 OA
ATOM     17  H   LIG d   1      -4.075  90.659 115.783  0.00  0.00     0.149 HD
ENDBRANCH   6  13
BRANCH   5  18
ATOM     18  N   LIG d   1      -6.470  92.927 117.566  0.00  0.00     0.381 N 
ATOM     19  H   LIG d   1      -7.028  92.099 117.631  0.00  0.00    -0.090 HD
ATOM     20  H   LIG d   1      -6.517  93.266 116.621  0.00  0.00    -0.090 HD
ATOM     21  H   LIG d   1      -6.815  93.619 118.193  0.00  0.00    -0.090 HD
ENDBRANCH   5  18
BRANCH   3  22
ATOM     22  C   LIG d   1      -2.941  93.505 120.753  0.00  0.00     0.382 C 
ATOM     23  O   LIG d   1      -2.713  94.711 120.491  0.00  0.00    -0.241 OA
ATOM     24  O   LIG d   1      -2.584  93.037 121.850  0.00  0.00    -0.241 OA
ENDBRANCH   3  22
TORSDOF 7
ENDMDL
MODEL 8
REMARK VINA RESULT:      -4.4      1.635      2.397
REMARK  7 active torsions:
REMARK  status: ('A' for Active; 'I' for Inactive)
REMARK    1  A    between atoms: C_2  and  C_3 
REMARK    2  A    between atoms: C_3  and  O_6 
REMARK    3  A    between atoms: C_3  and  C_4 
REMARK    4  A    between atoms: C_7  and  O_6 
REMARK    5  A    between atoms: C_9  and  C_10 
REMARK    6  A    between atoms: N_15  and  C_14 
REMARK    7  A    between atoms: N_20  and  C_19 
REMARK       I    between atoms: C_22  and  N_20 
ROOT
ATOM      1  C   LIG d   1      -5.447  92.347 118.369  0.00  0.00     0.161 C 
ATOM      2  C   LIG d   1      -6.292  92.288 117.248  0.00  0.00     0.016 C 
ATOM      3  C   LIG d   1      -6.098  91.388 116.175  0.00  0.00     0.038 C 
ATOM      4  C   LIG d   1      -5.126  90.377 116.221  0.00  0.00     0.028 C 
ATOM      5  C   LIG d   1      -3.932  90.724 117.104  0.00  0.00    -0.047 C 
ATOM      6  C   LIG d   1      -4.448  91.178 118.489  0.00  0.00     0.091 C 
ENDROOT
BRANCH   1   7
ATOM      7  O   LIG d   1      -6.236  92.457 119.570  0.00  0.00    -0.368 OA
BRANCH   7   8
ATOM      8  C   LIG d   1      -6.232  93.752 120.219  0.00  0.00     0.119 C 
BRANCH   8   9
ATOM      9  C   LIG d   1      -7.554  94.457 119.856  0.00  0.00     0.028 C 
ATOM     10  C   LIG d   1      -8.754  93.890 120.633  0.00  0.00     0.006 C 
ENDBRANCH   8   9
BRANCH   8  11
ATOM     11  C   LIG d   1      -5.126  94.652 119.661  0.00  0.00     0.028 C 
ATOM     12  C   LIG d   1      -4.136  95.119 120.740  0.00  0.00     0.006 C 
ENDBRANCH   8  11
ENDBRANCH   7   8
ENDBRANCH   1   7
BRANCH   6  13
ATOM     13  N   LIG d   1      -3.348  91.616 119.388  0.00  0.00    -0.311 N 
ATOM     14  C   LIG d   1      -2.242  92.216 118.953  0.00  0.00     0.210 C 
ATOM     15  C   LIG d   1      -1.225  92.567 120.044  0.00  0.00     0.109 C 
ATOM     16  O   LIG d   1      -2.019  92.520 117.771  0.00  0.00    -0.276 OA
ATOM     17  H   LIG d   1      -3.460  91.436 120.366  0.00  0.00     0.149 HD
ENDBRANCH   6  13
BRANCH   5  18
ATOM     18  N   LIG d   1      -3.066  89.532 117.172  0.00  0.00     0.381 N 
ATOM     19  H   LIG d   1      -3.229  89.043 118.029  0.00  0.00    -0.090 HD
ATOM     20  H   LIG d   1      -2.106  89.826 117.154  0.00  0.00    -0.090 HD
ATOM     21  H   LIG d   1      -3.252  88.932 116.398  0.00  0.00    -0.090 HD
ENDBRANCH   5  18
BRANCH   3  22
ATOM     22  C   LIG d   1      -6.855  91.521 115.021  0.00  0.00     0.382 C 
ATOM     23  O   LIG d   1      -6.909  92.627 114.430  0.00  0.00    -0.241 OA
ATOM     24  O   LIG d   1      -7.521  90.561 114.589  0.00  0.00    -0.241 OA
ENDBRANCH   3  22
TORSDOF 7
ENDMDL
MODEL 9
REMARK VINA RESULT:      -4.3      2.534      6.246
REMARK  7 active torsions:
REMARK  status: ('A' for Active; 'I' for Inactive)
REMARK    1  A    between atoms: C_2  and  C_3 
REMARK    2  A    between atoms: C_3  and  O_6 
REMARK    3  A    between atoms: C_3  and  C_4 
REMARK    4  A    between atoms: C_7  and  O_6 
REMARK    5  A    between atoms: C_9  and  C_10 
REMARK    6  A    between atoms: N_15  and  C_14 
REMARK    7  A    between atoms: N_20  and  C_19 
REMARK       I    between atoms: C_22  and  N_20 
ROOT
ATOM      1  C   LIG d   1      -5.011  92.990 118.650  0.00  0.00     0.161 C 
ATOM      2  C   LIG d   1      -4.902  93.810 119.786  0.00  0.00     0.016 C 
ATOM      3  C   LIG d   1      -5.865  94.784 120.138  0.00  0.00     0.038 C 
ATOM      4  C   LIG d   1      -7.085  94.900 119.456  0.00  0.00     0.028 C 
ATOM      5  C   LIG d   1      -7.014  94.439 118.004  0.00  0.00    -0.047 C 
ATOM      6  C   LIG d   1      -6.389  93.026 117.956  0.00  0.00     0.091 C 
ENDROOT
BRANCH   1   7
ATOM      7  O   LIG d   1      -4.657  91.635 118.990  0.00  0.00    -0.368 OA
BRANCH   7   8
ATOM      8  C   LIG d   1      -3.283  91.252 118.736  0.00  0.00     0.119 C 
BRANCH   8   9
ATOM      9  C   LIG d   1      -3.306  90.080 117.736  0.00  0.00     0.028 C 
ATOM     10  C   LIG d   1      -2.386  88.925 118.164  0.00  0.00     0.006 C 
ENDBRANCH   8   9
BRANCH   8  11
ATOM     11  C   LIG d   1      -2.617  90.695 119.997  0.00  0.00     0.028 C 
ATOM     12  C   LIG d   1      -1.848  91.766 120.787  0.00  0.00     0.006 C 
ENDBRANCH   8  11
ENDBRANCH   7   8
ENDBRANCH   1   7
BRANCH   6  13
ATOM     13  N   LIG d   1      -6.206  92.534 116.566  0.00  0.00    -0.311 N 
ATOM     14  C   LIG d   1      -6.508  91.295 116.181  0.00  0.00     0.210 C 
ATOM     15  C   LIG d   1      -6.223  90.988 114.708  0.00  0.00     0.109 C 
ATOM     16  O   LIG d   1      -7.015  90.431 116.912  0.00  0.00    -0.276 OA
ATOM     17  H   LIG d   1      -5.829  93.179 115.900  0.00  0.00     0.149 HD
ENDBRANCH   6  13
BRANCH   5  18
ATOM     18  N   LIG d   1      -8.382  94.485 117.455  0.00  0.00     0.381 N 
ATOM     19  H   LIG d   1      -8.862  95.289 117.806  0.00  0.00    -0.090 HD
ATOM     20  H   LIG d   1      -8.880  93.665 117.754  0.00  0.00    -0.090 HD
ATOM     21  H   LIG d   1      -8.349  94.517 116.459  0.00  0.00    -0.090 HD
ENDBRANCH   5  18
BRANCH   3  22
ATOM     22  C   LIG d   1      -5.592  95.681 121.159  0.00  0.00     0.382 C 
ATOM     23  O   LIG d   1      -4.415  96.066 121.358  0.00  0.00    -0.241 OA
ATOM     24  O   LIG d   1      -6.502  96.077 121.912  0.00  0.00    -0.241 OA
ENDBRANCH   3  22
TORSDOF 7
ENDMDL
