MODEL 1
REMARK VINA RESULT:      -5.6      0.000      0.000
REMARK  7 active torsions:
REMARK  status: ('A' for Active; 'I' for Inactive)
REMARK    1  A    between atoms: C_2  and  C_3 
REMARK    2  A    between atoms: C_3  and  O_6 
REMARK    3  A    between atoms: C_3  and  C_4 
REMARK    4  A    between atoms: C_7  and  O_6 
REMARK    5  A    between atoms: C_9  and  C_10 
REMARK    6  A    between atoms: N_15  and  C_14 
REMARK    7  A    between atoms: N_20  and  C_19 
REMARK       I    between atoms: C_22  and  N_20 
ROOT
ATOM      1  C   LIG d   1      -3.503  90.900 117.959  0.00  0.00     0.161 C 
ATOM      2  C   LIG d   1      -4.309  90.261 117.002  0.00  0.00     0.016 C 
ATOM      3  C   LIG d   1      -5.608  90.701 116.661  0.00  0.00     0.038 C 
ATOM      4  C   LIG d   1      -6.135  91.907 117.148  0.00  0.00     0.028 C 
ATOM      5  C   LIG d   1      -5.560  92.316 118.499  0.00  0.00    -0.047 C 
ATOM      6  C   LIG d   1      -4.016  92.280 118.420  0.00  0.00     0.091 C 
ENDROOT
BRANCH   1   7
ATOM      7  O   LIG d   1      -2.152  91.006 117.468  0.00  0.00    -0.368 OA
BRANCH   7   8
ATOM      8  C   LIG d   1      -1.166  90.176 118.130  0.00  0.00     0.119 C 
BRANCH   8   9
ATOM      9  C   LIG d   1      -1.890  89.396 119.244  0.00  0.00     0.028 C 
ATOM     10  C   LIG d   1      -1.170  89.502 120.599  0.00  0.00     0.006 C 
ENDBRANCH   8   9
BRANCH   8  11
ATOM     11  C   LIG d   1      -0.114  91.026 118.849  0.00  0.00     0.028 C 
ATOM     12  C   LIG d   1       0.259  92.297 118.069  0.00  0.00     0.006 C 
ENDBRANCH   8  11
ENDBRANCH   7   8
ENDBRANCH   1   7
BRANCH   6  13
ATOM     13  N   LIG d   1      -3.374  92.586 119.725  0.00  0.00    -0.311 N 
ATOM     14  C   LIG d   1      -2.596  93.648 119.927  0.00  0.00     0.210 C 
ATOM     15  C   LIG d   1      -2.018  93.766 121.341  0.00  0.00     0.109 C 
ATOM     16  O   LIG d   1      -2.355  94.521 119.080  0.00  0.00    -0.276 OA
ATOM     17  H   LIG d   1      -3.541  91.947 120.477  0.00  0.00     0.149 HD
ENDBRANCH   6  13
BRANCH   5  18
ATOM     18  N   LIG d   1      -6.090  93.654 118.822  0.00  0.00     0.381 N 
ATOM     19  H   LIG d   1      -6.305  93.707 119.798  0.00  0.00    -0.090 HD
ATOM     20  H   LIG d   1      -6.939  93.801 118.305  0.00  0.00    -0.090 HD
ATOM     21  H   LIG d   1      -5.422  94.353 118.584  0.00  0.00    -0.090 HD
ENDBRANCH   5  18
BRANCH   3  22
ATOM     22  C   LIG d   1      -6.411  89.910 115.853  0.00  0.00     0.382 C 
ATOM     23  O   LIG d   1      -7.561  89.587 116.237  0.00  0.00    -0.241 OA
ATOM     24  O   LIG d   1      -5.984  89.479 114.765  0.00  0.00    -0.241 OA
ENDBRANCH   3  22
TORSDOF 7
ENDMDL
MODEL 2
REMARK VINA RESULT:      -5.4      0.622      1.620
REMARK  7 active torsions:
REMARK  status: ('A' for Active; 'I' for Inactive)
REMARK    1  A    between atoms: C_2  and  C_3 
REMARK    2  A    between atoms: C_3  and  O_6 
REMARK    3  A    between atoms: C_3  and  C_4 
REMARK    4  A    between atoms: C_7  and  O_6 
REMARK    5  A    between atoms: C_9  and  C_10 
REMARK    6  A    between atoms: N_15  and  C_14 
REMARK    7  A    between atoms: N_20  and  C_19 
REMARK       I    between atoms: C_22  and  N_20 
ROOT
ATOM      1  C   LIG d   1      -3.467  90.989 117.959  0.00  0.00     0.161 C 
ATOM      2  C   LIG d   1      -4.261  90.321 117.012  0.00  0.00     0.016 C 
ATOM      3  C   LIG d   1      -5.579  90.715 116.685  0.00  0.00     0.038 C 
ATOM      4  C   LIG d   1      -6.142  91.902 117.177  0.00  0.00     0.028 C 
ATOM      5  C   LIG d   1      -5.566  92.334 118.521  0.00  0.00    -0.047 C 
ATOM      6  C   LIG d   1      -4.023  92.351 118.424  0.00  0.00     0.091 C 
ENDROOT
BRANCH   1   7
ATOM      7  O   LIG d   1      -2.127  91.141 117.453  0.00  0.00    -0.368 OA
BRANCH   7   8
ATOM      8  C   LIG d   1      -1.059  90.713 118.334  0.00  0.00     0.119 C 
BRANCH   8   9
ATOM      9  C   LIG d   1       0.156  90.365 117.454  0.00  0.00     0.028 C 
ATOM     10  C   LIG d   1       0.371  88.847 117.323  0.00  0.00     0.006 C 
ENDBRANCH   8   9
BRANCH   8  11
ATOM     11  C   LIG d   1      -1.422  89.413 119.058  0.00  0.00     0.028 C 
ATOM     12  C   LIG d   1      -1.340  89.540 120.587  0.00  0.00     0.006 C 
ENDBRANCH   8  11
ENDBRANCH   7   8
ENDBRANCH   1   7
BRANCH   6  13
ATOM     13  N   LIG d   1      -3.377  92.682 119.721  0.00  0.00    -0.311 N 
ATOM     14  C   LIG d   1      -2.575  93.731 119.894  0.00  0.00     0.210 C 
ATOM     15  C   LIG d   1      -1.998  93.877 121.306  0.00  0.00     0.109 C 
ATOM     16  O   LIG d   1      -2.313  94.572 119.022  0.00  0.00    -0.276 OA
ATOM     17  H   LIG d   1      -3.561  92.069 120.492  0.00  0.00     0.149 HD
ENDBRANCH   6  13
BRANCH   5  18
ATOM     18  N   LIG d   1      -6.140  93.653 118.849  0.00  0.00     0.381 N 
ATOM     19  H   LIG d   1      -5.521  94.377 118.543  0.00  0.00    -0.090 HD
ATOM     20  H   LIG d   1      -6.241  93.725 119.846  0.00  0.00    -0.090 HD
ATOM     21  H   LIG d   1      -7.027  93.757 118.410  0.00  0.00    -0.090 HD
ENDBRANCH   5  18
BRANCH   3  22
ATOM     22  C   LIG d   1      -6.364  89.895 115.888  0.00  0.00     0.382 C 
ATOM     23  O   LIG d   1      -5.923  89.483 114.788  0.00  0.00    -0.241 OA
ATOM     24  O   LIG d   1      -7.523  89.598 116.235  0.00  0.00    -0.241 OA
ENDBRANCH   3  22
TORSDOF 7
ENDMDL
MODEL 3
REMARK VINA RESULT:      -5.3      2.532      4.025
REMARK  7 active torsions:
REMARK  status: ('A' for Active; 'I' for Inactive)
REMARK    1  A    between atoms: C_2  and  C_3 
REMARK    2  A    between atoms: C_3  and  O_6 
REMARK    3  A    between atoms: C_3  and  C_4 
REMARK    4  A    between atoms: C_7  and  O_6 
REMARK    5  A    between atoms: C_9  and  C_10 
REMARK    6  A    between atoms: N_15  and  C_14 
REMARK    7  A    between atoms: N_20  and  C_19 
REMARK       I    between atoms: C_22  and  N_20 
ROOT
ATOM      1  C   LIG d   1      -4.833  92.530 118.995  0.00  0.00     0.161 C 
ATOM      2  C   LIG d   1      -6.179  92.885 118.805  0.00  0.00     0.016 C 
ATOM      3  C   LIG d   1      -6.761  94.051 119.354  0.00  0.00     0.038 C 
ATOM      4  C   LIG d   1      -5.993  95.026 120.008  0.00  0.00     0.028 C 
ATOM      5  C   LIG d   1      -4.732  94.467 120.659  0.00  0.00    -0.047 C 
ATOM      6  C   LIG d   1      -3.953  93.637 119.613  0.00  0.00     0.091 C 
ENDROOT
BRANCH   1   7
ATOM      7  O   LIG d   1      -4.267  92.077 117.749  0.00  0.00    -0.368 OA
BRANCH   7   8
ATOM      8  C   LIG d   1      -4.270  90.645 117.531  0.00  0.00     0.119 C 
BRANCH   8   9
ATOM      9  C   LIG d   1      -2.801  90.180 117.484  0.00  0.00     0.028 C 
ATOM     10  C   LIG d   1      -2.376  89.447 118.767  0.00  0.00     0.006 C 
ENDBRANCH   8   9
BRANCH   8  11
ATOM     11  C   LIG d   1      -4.851  90.291 116.159  0.00  0.00     0.028 C 
ATOM     12  C   LIG d   1      -6.384  90.180 116.173  0.00  0.00     0.006 C 
ENDBRANCH   8  11
ENDBRANCH   7   8
ENDBRANCH   1   7
BRANCH   6  13
ATOM     13  N   LIG d   1      -2.749  92.985 120.189  0.00  0.00    -0.311 N 
ATOM     14  C   LIG d   1      -1.547  93.027 119.617  0.00  0.00     0.210 C 
ATOM     15  C   LIG d   1      -0.446  92.272 120.367  0.00  0.00     0.109 C 
ATOM     16  O   LIG d   1      -1.282  93.646 118.575  0.00  0.00    -0.276 OA
ATOM     17  H   LIG d   1      -2.867  92.488 121.050  0.00  0.00     0.149 HD
ENDBRANCH   6  13
BRANCH   5  18
ATOM     18  N   LIG d   1      -3.959  95.608 121.184  0.00  0.00     0.381 N 
ATOM     19  H   LIG d   1      -3.464  96.055 120.438  0.00  0.00    -0.090 HD
ATOM     20  H   LIG d   1      -3.286  95.267 121.848  0.00  0.00    -0.090 HD
ATOM     21  H   LIG d   1      -4.570  96.260 121.625  0.00  0.00    -0.090 HD
ENDBRANCH   5  18
BRANCH   3  22
ATOM     22  C   LIG d   1      -8.134  94.232 119.284  0.00  0.00     0.382 C 
ATOM     23  O   LIG d   1      -8.808  93.597 118.437  0.00  0.00    -0.241 OA
ATOM     24  O   LIG d   1      -8.702  95.054 120.028  0.00  0.00    -0.241 OA
ENDBRANCH   3  22
TORSDOF 7
ENDMDL
MODEL 4
REMARK VINA RESULT:      -5.2      2.391      4.452
REMARK  7 active torsions:
REMARK  status: ('A' for Active; 'I' for Inactive)
REMARK    1  A    between atoms: C_2  and  C_3 
REMARK    2  A    between atoms: C_3  and  O_6 
REMARK    3  A    between atoms: C_3  and  C_4 
REMARK    4  A    between atoms: C_7  and  O_6 
REMARK    5  A    between atoms: C_9  and  C_10 
REMARK    6  A    between atoms: N_15  and  C_14 
REMARK    7  A    between atoms: N_20  and  C_19 
REMARK       I    between atoms: C_22  and  N_20 
ROOT
ATOM      1  C   LIG d   1      -5.207  92.224 118.084  0.00  0.00     0.161 C 
ATOM      2  C   LIG d   1      -6.090  91.847 117.059  0.00  0.00     0.016 C 
ATOM      3  C   LIG d   1      -5.838  90.778 116.169  0.00  0.00     0.038 C 
ATOM      4  C   LIG d   1      -4.749  89.911 116.340  0.00  0.00     0.028 C 
ATOM      5  C   LIG d   1      -3.566  90.559 117.052  0.00  0.00    -0.047 C 
ATOM      6  C   LIG d   1      -4.067  91.220 118.357  0.00  0.00     0.091 C 
ENDROOT
BRANCH   1   7
ATOM      7  O   LIG d   1      -5.945  92.483 119.295  0.00  0.00    -0.368 OA
BRANCH   7   8
ATOM      8  C   LIG d   1      -6.302  93.866 119.539  0.00  0.00     0.119 C 
BRANCH   8   9
ATOM      9  C   LIG d   1      -5.861  94.211 120.975  0.00  0.00     0.028 C 
ATOM     10  C   LIG d   1      -4.582  95.064 121.008  0.00  0.00     0.006 C 
ENDBRANCH   8   9
BRANCH   8  11
ATOM     11  C   LIG d   1      -7.821  94.062 119.523  0.00  0.00     0.028 C 
ATOM     12  C   LIG d   1      -8.300  95.091 120.559  0.00  0.00     0.006 C 
ENDBRANCH   8  11
ENDBRANCH   7   8
ENDBRANCH   1   7
BRANCH   6  13
ATOM     13  N   LIG d   1      -2.988  91.950 119.073  0.00  0.00    -0.311 N 
ATOM     14  C   LIG d   1      -2.793  91.865 120.388  0.00  0.00     0.210 C 
ATOM     15  C   LIG d   1      -1.637  92.714 120.926  0.00  0.00     0.109 C 
ATOM     16  O   LIG d   1      -3.447  91.142 121.154  0.00  0.00    -0.276 OA
ATOM     17  H   LIG d   1      -2.390  92.535 118.523  0.00  0.00     0.149 HD
ENDBRANCH   6  13
BRANCH   5  18
ATOM     18  N   LIG d   1      -2.557  89.508 117.287  0.00  0.00     0.381 N 
ATOM     19  H   LIG d   1      -2.701  88.752 116.648  0.00  0.00    -0.090 HD
ATOM     20  H   LIG d   1      -2.666  89.157 118.222  0.00  0.00    -0.090 HD
ATOM     21  H   LIG d   1      -1.642  89.883 117.169  0.00  0.00    -0.090 HD
ENDBRANCH   5  18
BRANCH   3  22
ATOM     22  C   LIG d   1      -6.661  90.591 115.069  0.00  0.00     0.382 C 
ATOM     23  O   LIG d   1      -6.658  89.493 114.462  0.00  0.00    -0.241 OA
ATOM     24  O   LIG d   1      -7.375  91.522 114.648  0.00  0.00    -0.241 OA
ENDBRANCH   3  22
TORSDOF 7
ENDMDL
MODEL 5
REMARK VINA RESULT:      -4.8      2.809      4.425
REMARK  7 active torsions:
REMARK  status: ('A' for Active; 'I' for Inactive)
REMARK    1  A    between atoms: C_2  and  C_3 
REMARK    2  A    between atoms: C_3  and  O_6 
REMARK    3  A    between atoms: C_3  and  C_4 
REMARK    4  A    between atoms: C_7  and  O_6 
REMARK    5  A    between atoms: C_9  and  C_10 
REMARK    6  A    between atoms: N_15  and  C_14 
REMARK    7  A    between atoms: N_20  and  C_19 
REMARK       I    between atoms: C_22  and  N_20 
ROOT
ATOM      1  C   LIG d   1      -5.307  92.545 119.869  0.00  0.00     0.161 C 
ATOM      2  C   LIG d   1      -6.612  93.046 119.735  0.00  0.00     0.016 C 
ATOM      3  C   LIG d   1      -6.916  94.426 119.694  0.00  0.00     0.038 C 
ATOM      4  C   LIG d   1      -5.912  95.405 119.632  0.00  0.00     0.028 C 
ATOM      5  C   LIG d   1      -4.600  94.967 120.273  0.00  0.00    -0.047 C 
ATOM      6  C   LIG d   1      -4.190  93.595 119.692  0.00  0.00     0.091 C 
ENDROOT
BRANCH   1   7
ATOM      7  O   LIG d   1      -5.110  91.445 118.959  0.00  0.00    -0.368 OA
BRANCH   7   8
ATOM      8  C   LIG d   1      -4.610  91.788 117.643  0.00  0.00     0.119 C 
BRANCH   8   9
ATOM      9  C   LIG d   1      -5.799  91.718 116.665  0.00  0.00     0.028 C 
ATOM     10  C   LIG d   1      -6.321  90.283 116.478  0.00  0.00     0.006 C 
ENDBRANCH   8   9
BRANCH   8  11
ATOM     11  C   LIG d   1      -3.608  90.745 117.139  0.00  0.00     0.028 C 
ATOM     12  C   LIG d   1      -2.932  89.968 118.280  0.00  0.00     0.006 C 
ENDBRANCH   8  11
ENDBRANCH   7   8
ENDBRANCH   1   7
BRANCH   6  13
ATOM     13  N   LIG d   1      -2.960  93.054 120.327  0.00  0.00    -0.311 N 
ATOM     14  C   LIG d   1      -1.747  93.165 119.787  0.00  0.00     0.210 C 
ATOM     15  C   LIG d   1      -0.618  92.520 120.597  0.00  0.00     0.109 C 
ATOM     16  O   LIG d   1      -1.495  93.764 118.731  0.00  0.00    -0.276 OA
ATOM     17  H   LIG d   1      -3.069  92.580 121.202  0.00  0.00     0.149 HD
ENDBRANCH   6  13
BRANCH   5  18
ATOM     18  N   LIG d   1      -3.604  96.024 120.016  0.00  0.00     0.381 N 
ATOM     19  H   LIG d   1      -3.844  96.520 119.181  0.00  0.00    -0.090 HD
ATOM     20  H   LIG d   1      -2.704  95.598 119.882  0.00  0.00    -0.090 HD
ATOM     21  H   LIG d   1      -3.569  96.655 120.787  0.00  0.00    -0.090 HD
ENDBRANCH   5  18
BRANCH   3  22
ATOM     22  C   LIG d   1      -8.237  94.842 119.755  0.00  0.00     0.382 C 
ATOM     23  O   LIG d   1      -9.050  94.479 118.870  0.00  0.00    -0.241 OA
ATOM     24  O   LIG d   1      -8.617  95.611 120.658  0.00  0.00    -0.241 OA
ENDBRANCH   3  22
TORSDOF 7
ENDMDL
MODEL 6
REMARK VINA RESULT:      -4.6      2.214      4.229
REMARK  7 active torsions:
REMARK  status: ('A' for Active; 'I' for Inactive)
REMARK    1  A    between atoms: C_2  and  C_3 
REMARK    2  A    between atoms: C_3  and  O_6 
REMARK    3  A    between atoms: C_3  and  C_4 
REMARK    4  A    between atoms: C_7  and  O_6 
REMARK    5  A    between atoms: C_9  and  C_10 
REMARK    6  A    between atoms: N_15  and  C_14 
REMARK    7  A    between atoms: N_20  and  C_19 
REMARK       I    between atoms: C_22  and  N_20 
ROOT
ATOM      1  C   LIG d   1      -3.588  92.535 118.525  0.00  0.00     0.161 C 
ATOM      2  C   LIG d   1      -4.666  92.089 117.742  0.00  0.00     0.016 C 
ATOM      3  C   LIG d   1      -4.646  90.883 117.004  0.00  0.00     0.038 C 
ATOM      4  C   LIG d   1      -3.595  89.961 117.121  0.00  0.00     0.028 C 
ATOM      5  C   LIG d   1      -2.266  90.602 117.504  0.00  0.00    -0.047 C 
ATOM      6  C   LIG d   1      -2.478  91.488 118.753  0.00  0.00     0.091 C 
ENDROOT
BRANCH   1   7
ATOM      7  O   LIG d   1      -4.074  93.032 119.788  0.00  0.00    -0.368 OA
BRANCH   7   8
ATOM      8  C   LIG d   1      -5.441  93.513 119.800  0.00  0.00     0.119 C 
BRANCH   8   9
ATOM      9  C   LIG d   1      -5.397  95.029 120.069  0.00  0.00     0.028 C 
ATOM     10  C   LIG d   1      -4.151  95.447 120.868  0.00  0.00     0.006 C 
ENDBRANCH   8   9
BRANCH   8  11
ATOM     11  C   LIG d   1      -6.231  92.916 120.969  0.00  0.00     0.028 C 
ATOM     12  C   LIG d   1      -5.510  91.732 121.633  0.00  0.00     0.006 C 
ENDBRANCH   8  11
ENDBRANCH   7   8
ENDBRANCH   1   7
BRANCH   6  13
ATOM     13  N   LIG d   1      -1.245  92.219 119.145  0.00  0.00    -0.311 N 
ATOM     14  C   LIG d   1      -0.375  91.760 120.044  0.00  0.00     0.210 C 
ATOM     15  C   LIG d   1       0.819  92.680 120.316  0.00  0.00     0.109 C 
ATOM     16  O   LIG d   1      -0.462  90.664 120.617  0.00  0.00    -0.276 OA
ATOM     17  H   LIG d   1      -1.079  93.103 118.706  0.00  0.00     0.149 HD
ENDBRANCH   6  13
BRANCH   5  18
ATOM     18  N   LIG d   1      -1.294  89.514 117.726  0.00  0.00     0.381 N 
ATOM     19  H   LIG d   1      -1.407  88.811 117.024  0.00  0.00    -0.090 HD
ATOM     20  H   LIG d   1      -1.472  89.097 118.622  0.00  0.00    -0.090 HD
ATOM     21  H   LIG d   1      -0.366  89.876 117.698  0.00  0.00    -0.090 HD
ENDBRANCH   5  18
BRANCH   3  22
ATOM     22  C   LIG d   1      -5.667  90.609 116.107  0.00  0.00     0.382 C 
ATOM     23  O   LIG d   1      -6.128  91.524 115.383  0.00  0.00    -0.241 OA
ATOM     24  O   LIG d   1      -6.163  89.468 116.045  0.00  0.00    -0.241 OA
ENDBRANCH   3  22
TORSDOF 7
ENDMDL
MODEL 7
REMARK VINA RESULT:      -4.2      2.444      4.414
REMARK  7 active torsions:
REMARK  status: ('A' for Active; 'I' for Inactive)
REMARK    1  A    between atoms: C_2  and  C_3 
REMARK    2  A    between atoms: C_3  and  O_6 
REMARK    3  A    between atoms: C_3  and  C_4 
REMARK    4  A    between atoms: C_7  and  O_6 
REMARK    5  A    between atoms: C_9  and  C_10 
REMARK    6  A    between atoms: N_15  and  C_14 
REMARK    7  A    between atoms: N_20  and  C_19 
REMARK       I    between atoms: C_22  and  N_20 
ROOT
ATOM      1  C   LIG d   1      -1.825  93.103 118.028  0.00  0.00     0.161 C 
ATOM      2  C   LIG d   1      -3.171  92.715 117.934  0.00  0.00     0.016 C 
ATOM      3  C   LIG d   1      -3.582  91.379 117.720  0.00  0.00     0.038 C 
ATOM      4  C   LIG d   1      -2.672  90.311 117.736  0.00  0.00     0.028 C 
ATOM      5  C   LIG d   1      -1.260  90.713 117.324  0.00  0.00    -0.047 C 
ATOM      6  C   LIG d   1      -0.822  91.938 118.160  0.00  0.00     0.091 C 
ENDROOT
BRANCH   1   7
ATOM      7  O   LIG d   1      -1.660  94.032 119.118  0.00  0.00    -0.368 OA
BRANCH   7   8
ATOM      8  C   LIG d   1      -2.621  93.926 120.197  0.00  0.00     0.119 C 
BRANCH   8   9
ATOM      9  C   LIG d   1      -3.016  95.357 120.608  0.00  0.00     0.028 C 
ATOM     10  C   LIG d   1      -4.440  95.725 120.160  0.00  0.00     0.006 C 
ENDBRANCH   8   9
BRANCH   8  11
ATOM     11  C   LIG d   1      -1.990  93.304 121.447  0.00  0.00     0.028 C 
ATOM     12  C   LIG d   1      -2.349  91.820 121.621  0.00  0.00     0.006 C 
ENDBRANCH   8  11
ENDBRANCH   7   8
ENDBRANCH   1   7
BRANCH   6  13
ATOM     13  N   LIG d   1       0.515  92.447 117.761  0.00  0.00    -0.311 N 
ATOM     14  C   LIG d   1       1.478  92.741 118.634  0.00  0.00     0.210 C 
ATOM     15  C   LIG d   1       2.774  93.271 118.012  0.00  0.00     0.109 C 
ATOM     16  O   LIG d   1       1.393  92.583 119.861  0.00  0.00    -0.276 OA
ATOM     17  H   LIG d   1       0.681  92.576 116.782  0.00  0.00     0.149 HD
ENDBRANCH   6  13
BRANCH   5  18
ATOM     18  N   LIG d   1      -0.388  89.539 117.519  0.00  0.00     0.381 N 
ATOM     19  H   LIG d   1      -0.176  89.124 116.634  0.00  0.00    -0.090 HD
ATOM     20  H   LIG d   1      -0.876  88.860 118.077  0.00  0.00    -0.090 HD
ATOM     21  H   LIG d   1       0.454  89.812 117.976  0.00  0.00    -0.090 HD
ENDBRANCH   5  18
BRANCH   3  22
ATOM     22  C   LIG d   1      -4.914  91.105 117.446  0.00  0.00     0.382 C 
ATOM     23  O   LIG d   1      -5.806  91.908 117.809  0.00  0.00    -0.241 OA
ATOM     24  O   LIG d   1      -5.237  90.044 116.879  0.00  0.00    -0.241 OA
ENDBRANCH   3  22
TORSDOF 7
ENDMDL
MODEL 8
REMARK VINA RESULT:      -4.2      1.859      2.520
REMARK  7 active torsions:
REMARK  status: ('A' for Active; 'I' for Inactive)
REMARK    1  A    between atoms: C_2  and  C_3 
REMARK    2  A    between atoms: C_3  and  O_6 
REMARK    3  A    between atoms: C_3  and  C_4 
REMARK    4  A    between atoms: C_7  and  O_6 
REMARK    5  A    between atoms: C_9  and  C_10 
REMARK    6  A    between atoms: N_15  and  C_14 
REMARK    7  A    between atoms: N_20  and  C_19 
REMARK       I    between atoms: C_22  and  N_20 
ROOT
ATOM      1  C   LIG d   1      -4.214  91.963 118.560  0.00  0.00     0.161 C 
ATOM      2  C   LIG d   1      -4.254  91.099 117.453  0.00  0.00     0.016 C 
ATOM      3  C   LIG d   1      -5.398  90.930 116.639  0.00  0.00     0.038 C 
ATOM      4  C   LIG d   1      -6.539  91.731 116.789  0.00  0.00     0.028 C 
ATOM      5  C   LIG d   1      -6.727  92.259 118.207  0.00  0.00    -0.047 C 
ATOM      6  C   LIG d   1      -5.413  92.927 118.672  0.00  0.00     0.091 C 
ENDROOT
BRANCH   1   7
ATOM      7  O   LIG d   1      -2.975  92.700 118.560  0.00  0.00    -0.368 OA
BRANCH   7   8
ATOM      8  C   LIG d   1      -2.006  92.318 119.566  0.00  0.00     0.119 C 
BRANCH   8   9
ATOM      9  C   LIG d   1      -0.898  91.514 118.860  0.00  0.00     0.028 C 
ATOM     10  C   LIG d   1       0.181  92.419 118.241  0.00  0.00     0.006 C 
ENDBRANCH   8   9
BRANCH   8  11
ATOM     11  C   LIG d   1      -2.615  91.356 120.590  0.00  0.00     0.028 C 
ATOM     12  C   LIG d   1      -1.561  90.481 121.286  0.00  0.00     0.006 C 
ENDBRANCH   8  11
ENDBRANCH   7   8
ENDBRANCH   1   7
BRANCH   6  13
ATOM     13  N   LIG d   1      -5.483  93.397 120.080  0.00  0.00    -0.311 N 
ATOM     14  C   LIG d   1      -5.843  94.632 120.424  0.00  0.00     0.210 C 
ATOM     15  C   LIG d   1      -5.829  94.914 121.930  0.00  0.00     0.109 C 
ATOM     16  O   LIG d   1      -6.204  95.511 119.628  0.00  0.00    -0.276 OA
ATOM     17  H   LIG d   1      -5.237  92.739 120.793  0.00  0.00     0.149 HD
ENDBRANCH   6  13
BRANCH   5  18
ATOM     18  N   LIG d   1      -7.873  93.188 118.189  0.00  0.00     0.381 N 
ATOM     19  H   LIG d   1      -8.726  92.671 118.117  0.00  0.00    -0.090 HD
ATOM     20  H   LIG d   1      -7.796  93.784 117.383  0.00  0.00    -0.090 HD
ATOM     21  H   LIG d   1      -7.879  93.739 119.019  0.00  0.00    -0.090 HD
ENDBRANCH   5  18
BRANCH   3  22
ATOM     22  C   LIG d   1      -5.421  89.921 115.688  0.00  0.00     0.382 C 
ATOM     23  O   LIG d   1      -6.464  89.710 115.024  0.00  0.00    -0.241 OA
ATOM     24  O   LIG d   1      -4.426  89.192 115.516  0.00  0.00    -0.241 OA
ENDBRANCH   3  22
TORSDOF 7
ENDMDL
MODEL 9
REMARK VINA RESULT:      -4.2      2.335      3.160
REMARK  7 active torsions:
REMARK  status: ('A' for Active; 'I' for Inactive)
REMARK    1  A    between atoms: C_2  and  C_3 
REMARK    2  A    between atoms: C_3  and  O_6 
REMARK    3  A    between atoms: C_3  and  C_4 
REMARK    4  A    between atoms: C_7  and  O_6 
REMARK    5  A    between atoms: C_9  and  C_10 
REMARK    6  A    between atoms: N_15  and  C_14 
REMARK    7  A    between atoms: N_20  and  C_19 
REMARK       I    between atoms: C_22  and  N_20 
ROOT
ATOM      1  C   LIG d   1      -1.300  90.497 118.130  0.00  0.00     0.161 C 
ATOM      2  C   LIG d   1      -2.468  90.136 117.438  0.00  0.00     0.016 C 
ATOM      3  C   LIG d   1      -3.619  90.955 117.372  0.00  0.00     0.038 C 
ATOM      4  C   LIG d   1      -3.625  92.266 117.872  0.00  0.00     0.028 C 
ATOM      5  C   LIG d   1      -2.642  92.482 119.018  0.00  0.00    -0.047 C 
ATOM      6  C   LIG d   1      -1.249  91.970 118.587  0.00  0.00     0.091 C 
ENDROOT
BRANCH   1   7
ATOM      7  O   LIG d   1      -0.142  90.179 117.333  0.00  0.00    -0.368 OA
BRANCH   7   8
ATOM      8  C   LIG d   1       0.482  88.898 117.599  0.00  0.00     0.119 C 
BRANCH   8   9
ATOM      9  C   LIG d   1       1.634  89.142 118.592  0.00  0.00     0.028 C 
ATOM     10  C   LIG d   1       1.275  88.713 120.025  0.00  0.00     0.006 C 
ENDBRANCH   8   9
BRANCH   8  11
ATOM     11  C   LIG d   1       1.145  88.330 116.340  0.00  0.00     0.028 C 
ATOM     12  C   LIG d   1       0.529  86.994 115.894  0.00  0.00     0.006 C 
ENDBRANCH   8  11
ENDBRANCH   7   8
ENDBRANCH   1   7
BRANCH   6  13
ATOM     13  N   LIG d   1      -0.247  92.067 119.680  0.00  0.00    -0.311 N 
ATOM     14  C   LIG d   1       0.904  92.727 119.563  0.00  0.00     0.210 C 
ATOM     15  C   LIG d   1       1.803  92.685 120.803  0.00  0.00     0.109 C 
ATOM     16  O   LIG d   1       1.252  93.370 118.561  0.00  0.00    -0.276 OA
ATOM     17  H   LIG d   1      -0.462  91.600 120.539  0.00  0.00     0.149 HD
ENDBRANCH   6  13
BRANCH   5  18
ATOM     18  N   LIG d   1      -2.653  93.919 119.349  0.00  0.00     0.381 N 
ATOM     19  H   LIG d   1      -3.373  94.381 118.830  0.00  0.00    -0.090 HD
ATOM     20  H   LIG d   1      -1.770  94.320 119.087  0.00  0.00    -0.090 HD
ATOM     21  H   LIG d   1      -2.806  94.043 120.325  0.00  0.00    -0.090 HD
ENDBRANCH   5  18
BRANCH   3  22
ATOM     22  C   LIG d   1      -4.793  90.448 116.836  0.00  0.00     0.382 C 
ATOM     23  O   LIG d   1      -4.751  89.493 116.024  0.00  0.00    -0.241 OA
ATOM     24  O   LIG d   1      -5.891  90.963 117.121  0.00  0.00    -0.241 OA
ENDBRANCH   3  22
TORSDOF 7
ENDMDL
