MODEL 1
REMARK VINA RESULT:      -5.6      0.000      0.000
REMARK  7 active torsions:
REMARK  status: ('A' for Active; 'I' for Inactive)
REMARK    1  A    between atoms: C_2  and  C_3 
REMARK    2  A    between atoms: C_3  and  O_6 
REMARK    3  A    between atoms: C_3  and  C_4 
REMARK    4  A    between atoms: C_7  and  O_6 
REMARK    5  A    between atoms: C_9  and  C_10 
REMARK    6  A    between atoms: N_15  and  C_14 
REMARK    7  A    between atoms: N_20  and  C_19 
REMARK       I    between atoms: C_22  and  N_20 
ROOT
ATOM      1  C   LIG d   1      -5.827  92.256 118.396  0.00  0.00     0.161 C 
ATOM      2  C   LIG d   1      -5.786  91.470 117.232  0.00  0.00     0.016 C 
ATOM      3  C   LIG d   1      -6.728  91.581 116.184  0.00  0.00     0.038 C 
ATOM      4  C   LIG d   1      -7.696  92.597 116.161  0.00  0.00     0.028 C 
ATOM      5  C   LIG d   1      -8.090  93.089 117.550  0.00  0.00    -0.047 C 
ATOM      6  C   LIG d   1      -6.809  93.445 118.339  0.00  0.00     0.091 C 
ENDROOT
BRANCH   1   7
ATOM      7  O   LIG d   1      -4.501  92.716 118.722  0.00  0.00    -0.368 OA
BRANCH   7   8
ATOM      8  C   LIG d   1      -3.412  92.079 118.010  0.00  0.00     0.119 C 
BRANCH   8   9
ATOM      9  C   LIG d   1      -2.702  91.134 118.998  0.00  0.00     0.028 C 
ATOM     10  C   LIG d   1      -3.031  89.655 118.733  0.00  0.00     0.006 C 
ENDBRANCH   8   9
BRANCH   8  11
ATOM     11  C   LIG d   1      -2.349  93.099 117.590  0.00  0.00     0.028 C 
ATOM     12  C   LIG d   1      -2.698  94.533 118.016  0.00  0.00     0.006 C 
ENDBRANCH   8  11
ENDBRANCH   7   8
ENDBRANCH   1   7
BRANCH   6  13
ATOM     13  N   LIG d   1      -7.100  93.855 119.737  0.00  0.00    -0.311 N 
ATOM     14  C   LIG d   1      -7.274  95.122 120.108  0.00  0.00     0.210 C 
ATOM     15  C   LIG d   1      -7.544  95.327 121.602  0.00  0.00     0.109 C 
ATOM     16  O   LIG d   1      -7.261  96.093 119.337  0.00  0.00    -0.276 OA
ATOM     17  H   LIG d   1      -7.158  93.128 120.423  0.00  0.00     0.149 HD
ENDBRANCH   6  13
BRANCH   5  18
ATOM     18  N   LIG d   1      -8.999  94.238 117.375  0.00  0.00     0.381 N 
ATOM     19  H   LIG d   1      -9.359  94.523 118.263  0.00  0.00    -0.090 HD
ATOM     20  H   LIG d   1      -9.771  93.956 116.797  0.00  0.00    -0.090 HD
ATOM     21  H   LIG d   1      -8.513  94.994 116.946  0.00  0.00    -0.090 HD
ENDBRANCH   5  18
BRANCH   3  22
ATOM     22  C   LIG d   1      -6.734  90.644 115.162  0.00  0.00     0.382 C 
ATOM     23  O   LIG d   1      -7.746  90.520 114.431  0.00  0.00    -0.241 OA
ATOM     24  O   LIG d   1      -5.757  89.890 114.991  0.00  0.00    -0.241 OA
ENDBRANCH   3  22
TORSDOF 7
ENDMDL
MODEL 2
REMARK VINA RESULT:      -5.3      0.890      1.923
REMARK  7 active torsions:
REMARK  status: ('A' for Active; 'I' for Inactive)
REMARK    1  A    between atoms: C_2  and  C_3 
REMARK    2  A    between atoms: C_3  and  O_6 
REMARK    3  A    between atoms: C_3  and  C_4 
REMARK    4  A    between atoms: C_7  and  O_6 
REMARK    5  A    between atoms: C_9  and  C_10 
REMARK    6  A    between atoms: N_15  and  C_14 
REMARK    7  A    between atoms: N_20  and  C_19 
REMARK       I    between atoms: C_22  and  N_20 
ROOT
ATOM      1  C   LIG d   1      -5.761  92.231 118.286  0.00  0.00     0.161 C 
ATOM      2  C   LIG d   1      -5.774  91.424 117.136  0.00  0.00     0.016 C 
ATOM      3  C   LIG d   1      -6.762  91.519 116.129  0.00  0.00     0.038 C 
ATOM      4  C   LIG d   1      -7.727  92.537 116.131  0.00  0.00     0.028 C 
ATOM      5  C   LIG d   1      -8.057  93.056 117.526  0.00  0.00    -0.047 C 
ATOM      6  C   LIG d   1      -6.742  93.422 118.250  0.00  0.00     0.091 C 
ENDROOT
BRANCH   1   7
ATOM      7  O   LIG d   1      -4.421  92.693 118.544  0.00  0.00    -0.368 OA
BRANCH   7   8
ATOM      8  C   LIG d   1      -3.797  92.196 119.754  0.00  0.00     0.119 C 
BRANCH   8   9
ATOM      9  C   LIG d   1      -3.395  93.418 120.602  0.00  0.00     0.028 C 
ATOM     10  C   LIG d   1      -3.386  94.722 119.787  0.00  0.00     0.006 C 
ENDBRANCH   8   9
BRANCH   8  11
ATOM     11  C   LIG d   1      -2.487  91.466 119.446  0.00  0.00     0.028 C 
ATOM     12  C   LIG d   1      -2.704  90.139 118.702  0.00  0.00     0.006 C 
ENDBRANCH   8  11
ENDBRANCH   7   8
ENDBRANCH   1   7
BRANCH   6  13
ATOM     13  N   LIG d   1      -6.969  93.859 119.652  0.00  0.00    -0.311 N 
ATOM     14  C   LIG d   1      -7.091  95.136 120.012  0.00  0.00     0.210 C 
ATOM     15  C   LIG d   1      -7.301  95.368 121.511  0.00  0.00     0.109 C 
ATOM     16  O   LIG d   1      -7.077  96.096 119.227  0.00  0.00    -0.276 OA
ATOM     17  H   LIG d   1      -7.025  93.143 120.350  0.00  0.00     0.149 HD
ENDBRANCH   6  13
BRANCH   5  18
ATOM     18  N   LIG d   1      -8.970  94.204 117.370  0.00  0.00     0.381 N 
ATOM     19  H   LIG d   1      -8.694  94.942 117.986  0.00  0.00    -0.090 HD
ATOM     20  H   LIG d   1      -9.900  93.916 117.620  0.00  0.00    -0.090 HD
ATOM     21  H   LIG d   1      -8.956  94.525 116.427  0.00  0.00    -0.090 HD
ENDBRANCH   5  18
BRANCH   3  22
ATOM     22  C   LIG d   1      -6.815  90.562 115.126  0.00  0.00     0.382 C 
ATOM     23  O   LIG d   1      -5.811  89.850 114.886  0.00  0.00    -0.241 OA
ATOM     24  O   LIG d   1      -7.840  90.434 114.430  0.00  0.00    -0.241 OA
ENDBRANCH   3  22
TORSDOF 7
ENDMDL
MODEL 3
REMARK VINA RESULT:      -5.2      1.739      1.869
REMARK  7 active torsions:
REMARK  status: ('A' for Active; 'I' for Inactive)
REMARK    1  A    between atoms: C_2  and  C_3 
REMARK    2  A    between atoms: C_3  and  O_6 
REMARK    3  A    between atoms: C_3  and  C_4 
REMARK    4  A    between atoms: C_7  and  O_6 
REMARK    5  A    between atoms: C_9  and  C_10 
REMARK    6  A    between atoms: N_15  and  C_14 
REMARK    7  A    between atoms: N_20  and  C_19 
REMARK       I    between atoms: C_22  and  N_20 
ROOT
ATOM      1  C   LIG d   1      -5.233  91.825 117.466  0.00  0.00     0.161 C 
ATOM      2  C   LIG d   1      -5.895  91.414 116.297  0.00  0.00     0.016 C 
ATOM      3  C   LIG d   1      -7.212  91.808 115.968  0.00  0.00     0.038 C 
ATOM      4  C   LIG d   1      -7.907  92.769 116.718  0.00  0.00     0.028 C 
ATOM      5  C   LIG d   1      -7.473  92.828 118.179  0.00  0.00    -0.047 C 
ATOM      6  C   LIG d   1      -5.934  92.961 118.240  0.00  0.00     0.091 C 
ENDROOT
BRANCH   1   7
ATOM      7  O   LIG d   1      -3.875  92.194 117.154  0.00  0.00    -0.368 OA
BRANCH   7   8
ATOM      8  C   LIG d   1      -2.850  91.257 117.566  0.00  0.00     0.119 C 
BRANCH   8   9
ATOM      9  C   LIG d   1      -3.501  90.257 118.541  0.00  0.00     0.028 C 
ATOM     10  C   LIG d   1      -2.845  90.281 119.932  0.00  0.00     0.006 C 
ENDBRANCH   8   9
BRANCH   8  11
ATOM     11  C   LIG d   1      -1.750  91.953 118.374  0.00  0.00     0.028 C 
ATOM     12  C   LIG d   1      -1.238  93.236 117.700  0.00  0.00     0.006 C 
ENDBRANCH   8  11
ENDBRANCH   7   8
ENDBRANCH   1   7
BRANCH   6  13
ATOM     13  N   LIG d   1      -5.418  92.941 119.633  0.00  0.00    -0.311 N 
ATOM     14  C   LIG d   1      -4.501  93.793 120.088  0.00  0.00     0.210 C 
ATOM     15  C   LIG d   1      -4.094  93.585 121.550  0.00  0.00     0.109 C 
ATOM     16  O   LIG d   1      -4.010  94.722 119.429  0.00  0.00    -0.276 OA
ATOM     17  H   LIG d   1      -5.786  92.239 120.246  0.00  0.00     0.149 HD
ENDBRANCH   6  13
BRANCH   5  18
ATOM     18  N   LIG d   1      -8.177  93.961 118.808  0.00  0.00     0.381 N 
ATOM     19  H   LIG d   1      -7.998  94.800 118.292  0.00  0.00    -0.090 HD
ATOM     20  H   LIG d   1      -7.825  94.085 119.741  0.00  0.00    -0.090 HD
ATOM     21  H   LIG d   1      -9.156  93.782 118.835  0.00  0.00    -0.090 HD
ENDBRANCH   5  18
BRANCH   3  22
ATOM     22  C   LIG d   1      -7.863  91.209 114.901  0.00  0.00     0.382 C 
ATOM     23  O   LIG d   1      -8.904  91.728 114.430  0.00  0.00    -0.241 OA
ATOM     24  O   LIG d   1      -7.448  90.133 114.431  0.00  0.00    -0.241 OA
ENDBRANCH   3  22
TORSDOF 7
ENDMDL
MODEL 4
REMARK VINA RESULT:      -5.1      1.594      5.009
REMARK  7 active torsions:
REMARK  status: ('A' for Active; 'I' for Inactive)
REMARK    1  A    between atoms: C_2  and  C_3 
REMARK    2  A    between atoms: C_3  and  O_6 
REMARK    3  A    between atoms: C_3  and  C_4 
REMARK    4  A    between atoms: C_7  and  O_6 
REMARK    5  A    between atoms: C_9  and  C_10 
REMARK    6  A    between atoms: N_15  and  C_14 
REMARK    7  A    between atoms: N_20  and  C_19 
REMARK       I    between atoms: C_22  and  N_20 
ROOT
ATOM      1  C   LIG d   1      -6.041  93.194 118.608  0.00  0.00     0.161 C 
ATOM      2  C   LIG d   1      -6.007  93.943 119.796  0.00  0.00     0.016 C 
ATOM      3  C   LIG d   1      -7.062  94.787 120.214  0.00  0.00     0.038 C 
ATOM      4  C   LIG d   1      -8.294  94.821 119.544  0.00  0.00     0.028 C 
ATOM      5  C   LIG d   1      -8.188  94.468 118.064  0.00  0.00    -0.047 C 
ATOM      6  C   LIG d   1      -7.421  93.133 117.921  0.00  0.00     0.091 C 
ENDROOT
BRANCH   1   7
ATOM      7  O   LIG d   1      -5.545  91.863 118.856  0.00  0.00    -0.368 OA
BRANCH   7   8
ATOM      8  C   LIG d   1      -4.120  91.670 118.678  0.00  0.00     0.119 C 
BRANCH   8   9
ATOM      9  C   LIG d   1      -3.671  92.582 117.520  0.00  0.00     0.028 C 
ATOM     10  C   LIG d   1      -2.416  93.400 117.870  0.00  0.00     0.006 C 
ENDBRANCH   8   9
BRANCH   8  11
ATOM     11  C   LIG d   1      -3.804  90.244 118.218  0.00  0.00     0.028 C 
ATOM     12  C   LIG d   1      -2.501  89.698 118.823  0.00  0.00     0.006 C 
ENDBRANCH   8  11
ENDBRANCH   7   8
ENDBRANCH   1   7
BRANCH   6  13
ATOM     13  N   LIG d   1      -7.200  92.757 116.500  0.00  0.00    -0.311 N 
ATOM     14  C   LIG d   1      -7.629  91.613 115.970  0.00  0.00     0.210 C 
ATOM     15  C   LIG d   1      -7.277  91.413 114.492  0.00  0.00     0.109 C 
ATOM     16  O   LIG d   1      -8.296  90.759 116.574  0.00  0.00    -0.276 OA
ATOM     17  H   LIG d   1      -6.695  93.406 115.930  0.00  0.00     0.149 HD
ENDBRANCH   6  13
BRANCH   5  18
ATOM     18  N   LIG d   1      -9.558  94.408 117.522  0.00  0.00     0.381 N 
ATOM     19  H   LIG d   1      -9.530  94.137 116.559  0.00  0.00    -0.090 HD
ATOM     20  H   LIG d   1      -9.971  95.322 117.580  0.00  0.00    -0.090 HD
ATOM     21  H   LIG d   1     -10.103  93.756 118.042  0.00  0.00    -0.090 HD
ENDBRANCH   5  18
BRANCH   3  22
ATOM     22  C   LIG d   1      -6.875  95.638 121.293  0.00  0.00     0.382 C 
ATOM     23  O   LIG d   1      -5.713  95.931 121.667  0.00  0.00    -0.241 OA
ATOM     24  O   LIG d   1      -7.852  96.080 121.925  0.00  0.00    -0.241 OA
ENDBRANCH   3  22
TORSDOF 7
ENDMDL
MODEL 5
REMARK VINA RESULT:      -4.9      2.312      4.534
REMARK  7 active torsions:
REMARK  status: ('A' for Active; 'I' for Inactive)
REMARK    1  A    between atoms: C_2  and  C_3 
REMARK    2  A    between atoms: C_3  and  O_6 
REMARK    3  A    between atoms: C_3  and  C_4 
REMARK    4  A    between atoms: C_7  and  O_6 
REMARK    5  A    between atoms: C_9  and  C_10 
REMARK    6  A    between atoms: N_15  and  C_14 
REMARK    7  A    between atoms: N_20  and  C_19 
REMARK       I    between atoms: C_22  and  N_20 
ROOT
ATOM      1  C   LIG d   1      -5.743  93.321 118.933  0.00  0.00     0.161 C 
ATOM      2  C   LIG d   1      -6.744  92.734 118.141  0.00  0.00     0.016 C 
ATOM      3  C   LIG d   1      -6.476  91.796 117.117  0.00  0.00     0.038 C 
ATOM      4  C   LIG d   1      -5.193  91.265 116.916  0.00  0.00     0.028 C 
ATOM      5  C   LIG d   1      -4.073  92.202 117.356  0.00  0.00    -0.047 C 
ATOM      6  C   LIG d   1      -4.350  92.671 118.803  0.00  0.00     0.091 C 
ENDROOT
BRANCH   1   7
ATOM      7  O   LIG d   1      -6.161  93.340 120.312  0.00  0.00    -0.368 OA
BRANCH   7   8
ATOM      8  C   LIG d   1      -6.321  94.649 120.912  0.00  0.00     0.119 C 
BRANCH   8   9
ATOM      9  C   LIG d   1      -7.784  94.767 121.381  0.00  0.00     0.028 C 
ATOM     10  C   LIG d   1      -8.725  95.229 120.256  0.00  0.00     0.006 C 
ENDBRANCH   8   9
BRANCH   8  11
ATOM     11  C   LIG d   1      -6.135  95.763 119.878  0.00  0.00     0.028 C 
ATOM     12  C   LIG d   1      -5.018  96.747 120.256  0.00  0.00     0.006 C 
ENDBRANCH   8  11
ENDBRANCH   7   8
ENDBRANCH   1   7
BRANCH   6  13
ATOM     13  N   LIG d   1      -3.347  93.657 119.281  0.00  0.00    -0.311 N 
ATOM     14  C   LIG d   1      -2.261  93.320 119.975  0.00  0.00     0.210 C 
ATOM     15  C   LIG d   1      -1.368  94.494 120.388  0.00  0.00     0.109 C 
ATOM     16  O   LIG d   1      -1.937  92.158 120.261  0.00  0.00    -0.276 OA
ATOM     17  H   LIG d   1      -3.516  94.620 119.066  0.00  0.00     0.149 HD
ENDBRANCH   6  13
BRANCH   5  18
ATOM     18  N   LIG d   1      -2.800  91.470 117.219  0.00  0.00     0.381 N 
ATOM     19  H   LIG d   1      -2.609  91.300 116.252  0.00  0.00    -0.090 HD
ATOM     20  H   LIG d   1      -2.883  90.583 117.685  0.00  0.00    -0.090 HD
ATOM     21  H   LIG d   1      -2.058  91.997 117.624  0.00  0.00    -0.090 HD
ENDBRANCH   5  18
BRANCH   3  22
ATOM     22  C   LIG d   1      -7.491  91.411 116.255  0.00  0.00     0.382 C 
ATOM     23  O   LIG d   1      -7.459  90.279 115.715  0.00  0.00    -0.241 OA
ATOM     24  O   LIG d   1      -8.416  92.197 115.976  0.00  0.00    -0.241 OA
ENDBRANCH   3  22
TORSDOF 7
ENDMDL
MODEL 6
REMARK VINA RESULT:      -4.8      2.151      3.634
REMARK  7 active torsions:
REMARK  status: ('A' for Active; 'I' for Inactive)
REMARK    1  A    between atoms: C_2  and  C_3 
REMARK    2  A    between atoms: C_3  and  O_6 
REMARK    3  A    between atoms: C_3  and  C_4 
REMARK    4  A    between atoms: C_7  and  O_6 
REMARK    5  A    between atoms: C_9  and  C_10 
REMARK    6  A    between atoms: N_15  and  C_14 
REMARK    7  A    between atoms: N_20  and  C_19 
REMARK       I    between atoms: C_22  and  N_20 
ROOT
ATOM      1  C   LIG d   1      -6.102  93.250 119.723  0.00  0.00     0.161 C 
ATOM      2  C   LIG d   1      -4.984  92.510 119.305  0.00  0.00     0.016 C 
ATOM      3  C   LIG d   1      -4.884  91.903 118.031  0.00  0.00     0.038 C 
ATOM      4  C   LIG d   1      -5.839  92.125 117.028  0.00  0.00     0.028 C 
ATOM      5  C   LIG d   1      -7.226  92.449 117.573  0.00  0.00    -0.047 C 
ATOM      6  C   LIG d   1      -7.105  93.595 118.603  0.00  0.00     0.091 C 
ENDROOT
BRANCH   1   7
ATOM      7  O   LIG d   1      -5.670  94.449 120.397  0.00  0.00    -0.368 OA
BRANCH   7   8
ATOM      8  C   LIG d   1      -5.313  95.565 119.544  0.00  0.00     0.119 C 
BRANCH   8   9
ATOM      9  C   LIG d   1      -3.835  95.904 119.821  0.00  0.00     0.028 C 
ATOM     10  C   LIG d   1      -2.951  95.732 118.575  0.00  0.00     0.006 C 
ENDBRANCH   8   9
BRANCH   8  11
ATOM     11  C   LIG d   1      -6.096  96.826 119.920  0.00  0.00     0.028 C 
ATOM     12  C   LIG d   1      -6.903  96.662 121.218  0.00  0.00     0.006 C 
ENDBRANCH   8  11
ENDBRANCH   7   8
ENDBRANCH   1   7
BRANCH   6  13
ATOM     13  N   LIG d   1      -8.405  93.918 119.247  0.00  0.00    -0.311 N 
ATOM     14  C   LIG d   1      -9.231  94.861 118.799  0.00  0.00     0.210 C 
ATOM     15  C   LIG d   1     -10.510  95.046 119.622  0.00  0.00     0.109 C 
ATOM     16  O   LIG d   1      -9.041  95.541 117.779  0.00  0.00    -0.276 OA
ATOM     17  H   LIG d   1      -8.653  93.392 120.063  0.00  0.00     0.149 HD
ENDBRANCH   6  13
BRANCH   5  18
ATOM     18  N   LIG d   1      -8.087  92.791 116.425  0.00  0.00     0.381 N 
ATOM     19  H   LIG d   1      -7.543  93.241 115.716  0.00  0.00    -0.090 HD
ATOM     20  H   LIG d   1      -8.797  93.432 116.732  0.00  0.00    -0.090 HD
ATOM     21  H   LIG d   1      -8.509  91.967 116.058  0.00  0.00    -0.090 HD
ENDBRANCH   5  18
BRANCH   3  22
ATOM     22  C   LIG d   1      -3.838  91.032 117.765  0.00  0.00     0.382 C 
ATOM     23  O   LIG d   1      -3.988  89.800 117.945  0.00  0.00    -0.241 OA
ATOM     24  O   LIG d   1      -2.734  91.468 117.389  0.00  0.00    -0.241 OA
ENDBRANCH   3  22
TORSDOF 7
ENDMDL
MODEL 7
REMARK VINA RESULT:      -4.6      4.689      7.306
REMARK  7 active torsions:
REMARK  status: ('A' for Active; 'I' for Inactive)
REMARK    1  A    between atoms: C_2  and  C_3 
REMARK    2  A    between atoms: C_3  and  O_6 
REMARK    3  A    between atoms: C_3  and  C_4 
REMARK    4  A    between atoms: C_7  and  O_6 
REMARK    5  A    between atoms: C_9  and  C_10 
REMARK    6  A    between atoms: N_15  and  C_14 
REMARK    7  A    between atoms: N_20  and  C_19 
REMARK       I    between atoms: C_22  and  N_20 
ROOT
ATOM      1  C   LIG d   1      -0.173  90.094 117.073  0.00  0.00     0.161 C 
ATOM      2  C   LIG d   1       1.229  90.176 117.029  0.00  0.00     0.016 C 
ATOM      3  C   LIG d   1       1.942  91.388 117.168  0.00  0.00     0.038 C 
ATOM      4  C   LIG d   1       1.304  92.589 117.513  0.00  0.00     0.028 C 
ATOM      5  C   LIG d   1      -0.154  92.649 117.070  0.00  0.00    -0.047 C 
ATOM      6  C   LIG d   1      -0.880  91.376 117.560  0.00  0.00     0.091 C 
ENDROOT
BRANCH   1   7
ATOM      7  O   LIG d   1      -0.571  88.966 117.877  0.00  0.00    -0.368 OA
BRANCH   7   8
ATOM      8  C   LIG d   1      -0.138  88.983 119.259  0.00  0.00     0.119 C 
BRANCH   8   9
ATOM      9  C   LIG d   1       0.210  87.534 119.653  0.00  0.00     0.028 C 
ATOM     10  C   LIG d   1       1.102  86.841 118.609  0.00  0.00     0.006 C 
ENDBRANCH   8   9
BRANCH   8  11
ATOM     11  C   LIG d   1      -1.278  89.395 120.195  0.00  0.00     0.028 C 
ATOM     12  C   LIG d   1      -2.609  88.708 119.852  0.00  0.00     0.006 C 
ENDBRANCH   8  11
ENDBRANCH   7   8
ENDBRANCH   1   7
BRANCH   6  13
ATOM     13  N   LIG d   1      -2.291  91.314 117.097  0.00  0.00    -0.311 N 
ATOM     14  C   LIG d   1      -3.321  91.745 117.824  0.00  0.00     0.210 C 
ATOM     15  C   LIG d   1      -4.694  91.571 117.167  0.00  0.00     0.109 C 
ATOM     16  O   LIG d   1      -3.225  92.284 118.937  0.00  0.00    -0.276 OA
ATOM     17  H   LIG d   1      -2.457  90.920 116.192  0.00  0.00     0.149 HD
ENDBRANCH   6  13
BRANCH   5  18
ATOM     18  N   LIG d   1      -0.734  93.891 117.614  0.00  0.00     0.381 N 
ATOM     19  H   LIG d   1      -0.526  94.657 117.005  0.00  0.00    -0.090 HD
ATOM     20  H   LIG d   1      -0.319  94.079 118.510  0.00  0.00    -0.090 HD
ATOM     21  H   LIG d   1      -1.721  93.793 117.711  0.00  0.00    -0.090 HD
ENDBRANCH   5  18
BRANCH   3  22
ATOM     22  C   LIG d   1       3.307  91.415 116.920  0.00  0.00     0.382 C 
ATOM     23  O   LIG d   1       3.936  92.498 116.993  0.00  0.00    -0.241 OA
ATOM     24  O   LIG d   1       3.908  90.378 116.583  0.00  0.00    -0.241 OA
ENDBRANCH   3  22
TORSDOF 7
ENDMDL
MODEL 8
REMARK VINA RESULT:      -4.4      5.165      7.943
REMARK  7 active torsions:
REMARK  status: ('A' for Active; 'I' for Inactive)
REMARK    1  A    between atoms: C_2  and  C_3 
REMARK    2  A    between atoms: C_3  and  O_6 
REMARK    3  A    between atoms: C_3  and  C_4 
REMARK    4  A    between atoms: C_7  and  O_6 
REMARK    5  A    between atoms: C_9  and  C_10 
REMARK    6  A    between atoms: N_15  and  C_14 
REMARK    7  A    between atoms: N_20  and  C_19 
REMARK       I    between atoms: C_22  and  N_20 
ROOT
ATOM      1  C   LIG d   1       0.334  90.773 116.701  0.00  0.00     0.161 C 
ATOM      2  C   LIG d   1       1.686  91.066 116.946  0.00  0.00     0.016 C 
ATOM      3  C   LIG d   1       2.119  91.944 117.967  0.00  0.00     0.038 C 
ATOM      4  C   LIG d   1       1.231  92.474 118.915  0.00  0.00     0.028 C 
ATOM      5  C   LIG d   1      -0.198  92.607 118.399  0.00  0.00    -0.047 C 
ATOM      6  C   LIG d   1      -0.641  91.255 117.795  0.00  0.00     0.091 C 
ENDROOT
BRANCH   1   7
ATOM      7  O   LIG d   1       0.174  89.359 116.475  0.00  0.00    -0.368 OA
BRANCH   7   8
ATOM      8  C   LIG d   1       1.255  88.513 116.938  0.00  0.00     0.119 C 
BRANCH   8   9
ATOM      9  C   LIG d   1       1.562  87.500 115.819  0.00  0.00     0.028 C 
ATOM     10  C   LIG d   1       2.474  88.088 114.728  0.00  0.00     0.006 C 
ENDBRANCH   8   9
BRANCH   8  11
ATOM     11  C   LIG d   1       0.826  87.669 118.142  0.00  0.00     0.028 C 
ATOM     12  C   LIG d   1       1.144  88.343 119.486  0.00  0.00     0.006 C 
ENDBRANCH   8  11
ENDBRANCH   7   8
ENDBRANCH   1   7
BRANCH   6  13
ATOM     13  N   LIG d   1      -1.998  91.322 117.192  0.00  0.00    -0.311 N 
ATOM     14  C   LIG d   1      -3.113  91.029 117.859  0.00  0.00     0.210 C 
ATOM     15  C   LIG d   1      -4.404  91.143 117.043  0.00  0.00     0.109 C 
ATOM     16  O   LIG d   1      -3.158  90.718 119.059  0.00  0.00    -0.276 OA
ATOM     17  H   LIG d   1      -2.056  91.596 116.231  0.00  0.00     0.149 HD
ENDBRANCH   6  13
BRANCH   5  18
ATOM     18  N   LIG d   1      -1.041  93.040 119.529  0.00  0.00     0.381 N 
ATOM     19  H   LIG d   1      -1.758  93.656 119.200  0.00  0.00    -0.090 HD
ATOM     20  H   LIG d   1      -0.471  93.543 120.186  0.00  0.00    -0.090 HD
ATOM     21  H   LIG d   1      -1.451  92.248 119.972  0.00  0.00    -0.090 HD
ENDBRANCH   5  18
BRANCH   3  22
ATOM     22  C   LIG d   1       3.449  92.331 118.022  0.00  0.00     0.382 C 
ATOM     23  O   LIG d   1       3.997  92.538 119.131  0.00  0.00    -0.241 OA
ATOM     24  O   LIG d   1       4.096  92.518 116.974  0.00  0.00    -0.241 OA
ENDBRANCH   3  22
TORSDOF 7
ENDMDL
MODEL 9
REMARK VINA RESULT:      -4.3      3.034      5.667
REMARK  7 active torsions:
REMARK  status: ('A' for Active; 'I' for Inactive)
REMARK    1  A    between atoms: C_2  and  C_3 
REMARK    2  A    between atoms: C_3  and  O_6 
REMARK    3  A    between atoms: C_3  and  C_4 
REMARK    4  A    between atoms: C_7  and  O_6 
REMARK    5  A    between atoms: C_9  and  C_10 
REMARK    6  A    between atoms: N_15  and  C_14 
REMARK    7  A    between atoms: N_20  and  C_19 
REMARK       I    between atoms: C_22  and  N_20 
ROOT
ATOM      1  C   LIG d   1      -2.216  91.363 117.816  0.00  0.00     0.161 C 
ATOM      2  C   LIG d   1      -0.837  91.536 118.015  0.00  0.00     0.016 C 
ATOM      3  C   LIG d   1      -0.232  92.798 118.220  0.00  0.00     0.038 C 
ATOM      4  C   LIG d   1      -0.992  93.965 118.390  0.00  0.00     0.028 C 
ATOM      5  C   LIG d   1      -2.348  93.912 117.695  0.00  0.00    -0.047 C 
ATOM      6  C   LIG d   1      -3.074  92.612 118.109  0.00  0.00     0.091 C 
ENDROOT
BRANCH   1   7
ATOM      7  O   LIG d   1      -2.685  90.241 118.589  0.00  0.00    -0.368 OA
BRANCH   7   8
ATOM      8  C   LIG d   1      -1.965  89.967 119.816  0.00  0.00     0.119 C 
BRANCH   8   9
ATOM      9  C   LIG d   1      -1.787  88.440 119.918  0.00  0.00     0.028 C 
ATOM     10  C   LIG d   1      -2.974  87.756 120.617  0.00  0.00     0.006 C 
ENDBRANCH   8   9
BRANCH   8  11
ATOM     11  C   LIG d   1      -2.788  90.362 121.045  0.00  0.00     0.028 C 
ATOM     12  C   LIG d   1      -2.384  91.730 121.619  0.00  0.00     0.006 C 
ENDBRANCH   8  11
ENDBRANCH   7   8
ENDBRANCH   1   7
BRANCH   6  13
ATOM     13  N   LIG d   1      -4.373  92.440 117.408  0.00  0.00    -0.311 N 
ATOM     14  C   LIG d   1      -5.538  92.316 118.043  0.00  0.00     0.210 C 
ATOM     15  C   LIG d   1      -6.754  92.128 117.131  0.00  0.00     0.109 C 
ATOM     16  O   LIG d   1      -5.683  92.376 119.273  0.00  0.00    -0.276 OA
ATOM     17  H   LIG d   1      -4.352  92.412 116.408  0.00  0.00     0.149 HD
ENDBRANCH   6  13
BRANCH   5  18
ATOM     18  N   LIG d   1      -3.089  95.132 118.069  0.00  0.00     0.381 N 
ATOM     19  H   LIG d   1      -3.503  95.014 118.972  0.00  0.00    -0.090 HD
ATOM     20  H   LIG d   1      -3.825  95.283 117.401  0.00  0.00    -0.090 HD
ATOM     21  H   LIG d   1      -2.473  95.915 118.078  0.00  0.00    -0.090 HD
ENDBRANCH   5  18
BRANCH   3  22
ATOM     22  C   LIG d   1       1.150  92.907 118.216  0.00  0.00     0.382 C 
ATOM     23  O   LIG d   1       1.808  92.500 117.228  0.00  0.00    -0.241 OA
ATOM     24  O   LIG d   1       1.750  93.366 119.206  0.00  0.00    -0.241 OA
ENDBRANCH   3  22
TORSDOF 7
ENDMDL
