MODEL 1
REMARK VINA RESULT:      -5.7      0.000      0.000
REMARK  7 active torsions:
REMARK  status: ('A' for Active; 'I' for Inactive)
REMARK    1  A    between atoms: C_2  and  C_3 
REMARK    2  A    between atoms: C_3  and  O_6 
REMARK    3  A    between atoms: C_3  and  C_4 
REMARK    4  A    between atoms: C_7  and  O_6 
REMARK    5  A    between atoms: C_9  and  C_10 
REMARK    6  A    between atoms: N_15  and  C_14 
REMARK    7  A    between atoms: N_20  and  C_19 
REMARK       I    between atoms: C_22  and  N_20 
ROOT
ATOM      1  C   LIG d   1      -5.040  91.864 118.122  0.00  0.00     0.161 C 
ATOM      2  C   LIG d   1      -5.204  90.955 117.063  0.00  0.00     0.016 C 
ATOM      3  C   LIG d   1      -6.360  90.909 116.250  0.00  0.00     0.038 C 
ATOM      4  C   LIG d   1      -7.373  91.875 116.346  0.00  0.00     0.028 C 
ATOM      5  C   LIG d   1      -7.483  92.502 117.731  0.00  0.00    -0.047 C 
ATOM      6  C   LIG d   1      -6.086  92.997 118.170  0.00  0.00     0.091 C 
ENDROOT
BRANCH   1   7
ATOM      7  O   LIG d   1      -3.707  92.412 118.092  0.00  0.00    -0.368 OA
BRANCH   7   8
ATOM      8  C   LIG d   1      -2.814  91.975 119.145  0.00  0.00     0.119 C 
BRANCH   8   9
ATOM      9  C   LIG d   1      -2.331  93.233 119.894  0.00  0.00     0.028 C 
ATOM     10  C   LIG d   1      -2.520  94.516 119.068  0.00  0.00     0.006 C 
ENDBRANCH   8   9
BRANCH   8  11
ATOM     11  C   LIG d   1      -1.547  91.334 118.572  0.00  0.00     0.028 C 
ATOM     12  C   LIG d   1      -1.748  89.861 118.184  0.00  0.00     0.006 C 
ENDBRANCH   8  11
ENDBRANCH   7   8
ENDBRANCH   1   7
BRANCH   6  13
ATOM     13  N   LIG d   1      -6.087  93.549 119.550  0.00  0.00    -0.311 N 
ATOM     14  C   LIG d   1      -6.278  94.839 119.823  0.00  0.00     0.210 C 
ATOM     15  C   LIG d   1      -6.221  95.199 121.311  0.00  0.00     0.109 C 
ATOM     16  O   LIG d   1      -6.521  95.713 118.977  0.00  0.00    -0.276 OA
ATOM     17  H   LIG d   1      -5.929  92.904 120.299  0.00  0.00     0.149 HD
ENDBRANCH   6  13
BRANCH   5  18
ATOM     18  N   LIG d   1      -8.481  93.585 117.652  0.00  0.00     0.381 N 
ATOM     19  H   LIG d   1      -8.108  94.421 118.057  0.00  0.00    -0.090 HD
ATOM     20  H   LIG d   1      -9.294  93.317 118.177  0.00  0.00    -0.090 HD
ATOM     21  H   LIG d   1      -8.730  93.751 116.702  0.00  0.00    -0.090 HD
ENDBRANCH   5  18
BRANCH   3  22
ATOM     22  C   LIG d   1      -6.530  89.863 115.355  0.00  0.00     0.382 C 
ATOM     23  O   LIG d   1      -7.655  89.653 114.843  0.00  0.00    -0.241 OA
ATOM     24  O   LIG d   1      -5.582  89.100 115.088  0.00  0.00    -0.241 OA
ENDBRANCH   3  22
TORSDOF 7
ENDMDL
MODEL 2
REMARK VINA RESULT:      -5.6      2.136      4.477
REMARK  7 active torsions:
REMARK  status: ('A' for Active; 'I' for Inactive)
REMARK    1  A    between atoms: C_2  and  C_3 
REMARK    2  A    between atoms: C_3  and  O_6 
REMARK    3  A    between atoms: C_3  and  C_4 
REMARK    4  A    between atoms: C_7  and  O_6 
REMARK    5  A    between atoms: C_9  and  C_10 
REMARK    6  A    between atoms: N_15  and  C_14 
REMARK    7  A    between atoms: N_20  and  C_19 
REMARK       I    between atoms: C_22  and  N_20 
ROOT
ATOM      1  C   LIG d   1      -6.799  93.376 118.137  0.00  0.00     0.161 C 
ATOM      2  C   LIG d   1      -7.536  92.504 117.319  0.00  0.00     0.016 C 
ATOM      3  C   LIG d   1      -6.996  91.328 116.748  0.00  0.00     0.038 C 
ATOM      4  C   LIG d   1      -5.715  90.863 117.082  0.00  0.00     0.028 C 
ATOM      5  C   LIG d   1      -4.758  91.973 117.504  0.00  0.00    -0.047 C 
ATOM      6  C   LIG d   1      -5.433  92.827 118.601  0.00  0.00     0.091 C 
ENDROOT
BRANCH   1   7
ATOM      7  O   LIG d   1      -7.593  93.770 119.273  0.00  0.00    -0.368 OA
BRANCH   7   8
ATOM      8  C   LIG d   1      -8.372  94.981 119.116  0.00  0.00     0.119 C 
BRANCH   8   9
ATOM      9  C   LIG d   1      -7.405  96.102 118.688  0.00  0.00     0.028 C 
ATOM     10  C   LIG d   1      -6.754  96.806 119.891  0.00  0.00     0.006 C 
ENDBRANCH   8   9
BRANCH   8  11
ATOM     11  C   LIG d   1      -8.961  95.442 120.452  0.00  0.00     0.028 C 
ATOM     12  C   LIG d   1      -9.952  94.429 121.048  0.00  0.00     0.006 C 
ENDBRANCH   8  11
ENDBRANCH   7   8
ENDBRANCH   1   7
BRANCH   6  13
ATOM     13  N   LIG d   1      -4.599  93.986 119.011  0.00  0.00    -0.311 N 
ATOM     14  C   LIG d   1      -3.773  93.962 120.056  0.00  0.00     0.210 C 
ATOM     15  C   LIG d   1      -3.020  95.271 120.316  0.00  0.00     0.109 C 
ATOM     16  O   LIG d   1      -3.568  92.971 120.773  0.00  0.00    -0.276 OA
ATOM     17  H   LIG d   1      -4.679  94.822 118.466  0.00  0.00     0.149 HD
ENDBRANCH   6  13
BRANCH   5  18
ATOM     18  N   LIG d   1      -3.507  91.336 117.955  0.00  0.00     0.381 N 
ATOM     19  H   LIG d   1      -2.729  91.924 117.734  0.00  0.00    -0.090 HD
ATOM     20  H   LIG d   1      -3.392  90.465 117.467  0.00  0.00    -0.090 HD
ATOM     21  H   LIG d   1      -3.542  91.173 118.937  0.00  0.00    -0.090 HD
ENDBRANCH   5  18
BRANCH   3  22
ATOM     22  C   LIG d   1      -7.726  90.626 115.801  0.00  0.00     0.382 C 
ATOM     23  O   LIG d   1      -7.993  89.414 115.988  0.00  0.00    -0.241 OA
ATOM     24  O   LIG d   1      -8.082  91.177 114.742  0.00  0.00    -0.241 OA
ENDBRANCH   3  22
TORSDOF 7
ENDMDL
MODEL 3
REMARK VINA RESULT:      -5.3      2.235      5.467
REMARK  7 active torsions:
REMARK  status: ('A' for Active; 'I' for Inactive)
REMARK    1  A    between atoms: C_2  and  C_3 
REMARK    2  A    between atoms: C_3  and  O_6 
REMARK    3  A    between atoms: C_3  and  C_4 
REMARK    4  A    between atoms: C_7  and  O_6 
REMARK    5  A    between atoms: C_9  and  C_10 
REMARK    6  A    between atoms: N_15  and  C_14 
REMARK    7  A    between atoms: N_20  and  C_19 
REMARK       I    between atoms: C_22  and  N_20 
ROOT
ATOM      1  C   LIG d   1      -6.593  92.093 117.305  0.00  0.00     0.161 C 
ATOM      2  C   LIG d   1      -7.622  93.001 117.606  0.00  0.00     0.016 C 
ATOM      3  C   LIG d   1      -7.672  93.751 118.803  0.00  0.00     0.038 C 
ATOM      4  C   LIG d   1      -6.610  93.756 119.720  0.00  0.00     0.028 C 
ATOM      5  C   LIG d   1      -5.786  92.472 119.699  0.00  0.00    -0.047 C 
ATOM      6  C   LIG d   1      -5.370  92.167 118.242  0.00  0.00     0.091 C 
ENDROOT
BRANCH   1   7
ATOM      7  O   LIG d   1      -6.183  92.257 115.932  0.00  0.00    -0.368 OA
BRANCH   7   8
ATOM      8  C   LIG d   1      -6.573  91.200 115.021  0.00  0.00     0.119 C 
BRANCH   8   9
ATOM      9  C   LIG d   1      -8.105  91.259 114.872  0.00  0.00     0.028 C 
ATOM     10  C   LIG d   1      -8.790  89.959 115.326  0.00  0.00     0.006 C 
ENDBRANCH   8   9
BRANCH   8  11
ATOM     11  C   LIG d   1      -6.275  89.818 115.610  0.00  0.00     0.028 C 
ATOM     12  C   LIG d   1      -5.366  88.969 114.707  0.00  0.00     0.006 C 
ENDBRANCH   8  11
ENDBRANCH   7   8
ENDBRANCH   1   7
BRANCH   6  13
ATOM     13  N   LIG d   1      -4.632  90.883 118.121  0.00  0.00    -0.311 N 
ATOM     14  C   LIG d   1      -3.307  90.786 118.224  0.00  0.00     0.210 C 
ATOM     15  C   LIG d   1      -2.747  89.371 118.047  0.00  0.00     0.109 C 
ATOM     16  O   LIG d   1      -2.547  91.732 118.478  0.00  0.00    -0.276 OA
ATOM     17  H   LIG d   1      -5.174  90.060 117.946  0.00  0.00     0.149 HD
ENDBRANCH   6  13
BRANCH   5  18
ATOM     18  N   LIG d   1      -4.635  92.667 120.601  0.00  0.00     0.381 N 
ATOM     19  H   LIG d   1      -3.922  93.189 120.132  0.00  0.00    -0.090 HD
ATOM     20  H   LIG d   1      -4.259  91.768 120.846  0.00  0.00    -0.090 HD
ATOM     21  H   LIG d   1      -4.924  93.150 121.423  0.00  0.00    -0.090 HD
ENDBRANCH   5  18
BRANCH   3  22
ATOM     22  C   LIG d   1      -8.812  94.478 119.112  0.00  0.00     0.382 C 
ATOM     23  O   LIG d   1      -9.899  93.884 119.308  0.00  0.00    -0.241 OA
ATOM     24  O   LIG d   1      -8.776  95.722 119.153  0.00  0.00    -0.241 OA
ENDBRANCH   3  22
TORSDOF 7
ENDMDL
MODEL 4
REMARK VINA RESULT:      -5.3      2.425      5.906
REMARK  7 active torsions:
REMARK  status: ('A' for Active; 'I' for Inactive)
REMARK    1  A    between atoms: C_2  and  C_3 
REMARK    2  A    between atoms: C_3  and  O_6 
REMARK    3  A    between atoms: C_3  and  C_4 
REMARK    4  A    between atoms: C_7  and  O_6 
REMARK    5  A    between atoms: C_9  and  C_10 
REMARK    6  A    between atoms: N_15  and  C_14 
REMARK    7  A    between atoms: N_20  and  C_19 
REMARK       I    between atoms: C_22  and  N_20 
ROOT
ATOM      1  C   LIG d   1      -6.007  92.478 118.700  0.00  0.00     0.161 C 
ATOM      2  C   LIG d   1      -5.106  92.874 119.701  0.00  0.00     0.016 C 
ATOM      3  C   LIG d   1      -3.814  92.319 119.850  0.00  0.00     0.038 C 
ATOM      4  C   LIG d   1      -3.276  91.430 118.908  0.00  0.00     0.028 C 
ATOM      5  C   LIG d   1      -4.335  90.622 118.165  0.00  0.00    -0.047 C 
ATOM      6  C   LIG d   1      -5.397  91.589 117.596  0.00  0.00     0.091 C 
ENDROOT
BRANCH   1   7
ATOM      7  O   LIG d   1      -6.635  93.638 118.119  0.00  0.00    -0.368 OA
BRANCH   7   8
ATOM      8  C   LIG d   1      -7.329  94.515 119.040  0.00  0.00     0.119 C 
BRANCH   8   9
ATOM      9  C   LIG d   1      -8.841  94.316 118.818  0.00  0.00     0.028 C 
ATOM     10  C   LIG d   1      -9.628  94.280 120.139  0.00  0.00     0.006 C 
ENDBRANCH   8   9
BRANCH   8  11
ATOM     11  C   LIG d   1      -7.062  95.988 118.716  0.00  0.00     0.028 C 
ATOM     12  C   LIG d   1      -6.263  96.705 119.816  0.00  0.00     0.006 C 
ENDBRANCH   8  11
ENDBRANCH   7   8
ENDBRANCH   1   7
BRANCH   6  13
ATOM     13  N   LIG d   1      -6.514  90.874 116.925  0.00  0.00    -0.311 N 
ATOM     14  C   LIG d   1      -6.952  91.178 115.705  0.00  0.00     0.210 C 
ATOM     15  C   LIG d   1      -8.127  90.329 115.209  0.00  0.00     0.109 C 
ATOM     16  O   LIG d   1      -6.457  92.048 114.972  0.00  0.00    -0.276 OA
ATOM     17  H   LIG d   1      -6.953  90.133 117.436  0.00  0.00     0.149 HD
ENDBRANCH   6  13
BRANCH   5  18
ATOM     18  N   LIG d   1      -3.647  89.839 117.121  0.00  0.00     0.381 N 
ATOM     19  H   LIG d   1      -4.158  89.896 116.263  0.00  0.00    -0.090 HD
ATOM     20  H   LIG d   1      -3.613  88.876 117.405  0.00  0.00    -0.090 HD
ATOM     21  H   LIG d   1      -2.722  90.187 116.988  0.00  0.00    -0.090 HD
ENDBRANCH   5  18
BRANCH   3  22
ATOM     22  C   LIG d   1      -3.061  92.622 120.974  0.00  0.00     0.382 C 
ATOM     23  O   LIG d   1      -3.031  93.798 121.410  0.00  0.00    -0.241 OA
ATOM     24  O   LIG d   1      -2.376  91.744 121.531  0.00  0.00    -0.241 OA
ENDBRANCH   3  22
TORSDOF 7
ENDMDL
MODEL 5
REMARK VINA RESULT:      -5.1      1.671      4.964
REMARK  7 active torsions:
REMARK  status: ('A' for Active; 'I' for Inactive)
REMARK    1  A    between atoms: C_2  and  C_3 
REMARK    2  A    between atoms: C_3  and  O_6 
REMARK    3  A    between atoms: C_3  and  C_4 
REMARK    4  A    between atoms: C_7  and  O_6 
REMARK    5  A    between atoms: C_9  and  C_10 
REMARK    6  A    between atoms: N_15  and  C_14 
REMARK    7  A    between atoms: N_20  and  C_19 
REMARK       I    between atoms: C_22  and  N_20 
ROOT
ATOM      1  C   LIG d   1      -4.815  92.378 118.481  0.00  0.00     0.161 C 
ATOM      2  C   LIG d   1      -4.705  93.379 119.460  0.00  0.00     0.016 C 
ATOM      3  C   LIG d   1      -5.744  94.288 119.764  0.00  0.00     0.038 C 
ATOM      4  C   LIG d   1      -7.027  94.159 119.211  0.00  0.00     0.028 C 
ATOM      5  C   LIG d   1      -7.033  93.478 117.847  0.00  0.00    -0.047 C 
ATOM      6  C   LIG d   1      -6.244  92.152 117.945  0.00  0.00     0.091 C 
ENDROOT
BRANCH   1   7
ATOM      7  O   LIG d   1      -4.266  91.142 118.980  0.00  0.00    -0.368 OA
BRANCH   7   8
ATOM      8  C   LIG d   1      -3.038  90.692 118.357  0.00  0.00     0.119 C 
BRANCH   8   9
ATOM      9  C   LIG d   1      -3.161  89.172 118.136  0.00  0.00     0.028 C 
ATOM     10  C   LIG d   1      -1.963  88.397 118.709  0.00  0.00     0.006 C 
ENDBRANCH   8   9
BRANCH   8  11
ATOM     11  C   LIG d   1      -1.840  90.870 119.294  0.00  0.00     0.028 C 
ATOM     12  C   LIG d   1      -1.092  92.192 119.062  0.00  0.00     0.006 C 
ENDBRANCH   8  11
ENDBRANCH   7   8
ENDBRANCH   1   7
BRANCH   6  13
ATOM     13  N   LIG d   1      -6.129  91.462 116.633  0.00  0.00    -0.311 N 
ATOM     14  C   LIG d   1      -6.996  90.544 116.209  0.00  0.00     0.210 C 
ATOM     15  C   LIG d   1      -6.681  89.943 114.836  0.00  0.00     0.109 C 
ATOM     16  O   LIG d   1      -8.014  90.194 116.826  0.00  0.00    -0.276 OA
ATOM     17  H   LIG d   1      -5.350  91.709 116.055  0.00  0.00     0.149 HD
ENDBRANCH   6  13
BRANCH   5  18
ATOM     18  N   LIG d   1      -8.440  93.286 117.451  0.00  0.00     0.381 N 
ATOM     19  H   LIG d   1      -8.842  92.537 117.979  0.00  0.00    -0.090 HD
ATOM     20  H   LIG d   1      -8.473  93.038 116.477  0.00  0.00    -0.090 HD
ATOM     21  H   LIG d   1      -8.956  94.125 117.605  0.00  0.00    -0.090 HD
ENDBRANCH   5  18
BRANCH   3  22
ATOM     22  C   LIG d   1      -5.493  95.364 120.602  0.00  0.00     0.382 C 
ATOM     23  O   LIG d   1      -6.382  96.227 120.797  0.00  0.00    -0.241 OA
ATOM     24  O   LIG d   1      -4.374  95.505 121.130  0.00  0.00    -0.241 OA
ENDBRANCH   3  22
TORSDOF 7
ENDMDL
MODEL 6
REMARK VINA RESULT:      -4.8      2.325      4.904
REMARK  7 active torsions:
REMARK  status: ('A' for Active; 'I' for Inactive)
REMARK    1  A    between atoms: C_2  and  C_3 
REMARK    2  A    between atoms: C_3  and  O_6 
REMARK    3  A    between atoms: C_3  and  C_4 
REMARK    4  A    between atoms: C_7  and  O_6 
REMARK    5  A    between atoms: C_9  and  C_10 
REMARK    6  A    between atoms: N_15  and  C_14 
REMARK    7  A    between atoms: N_20  and  C_19 
REMARK       I    between atoms: C_22  and  N_20 
ROOT
ATOM      1  C   LIG d   1      -5.507  92.829 118.834  0.00  0.00     0.161 C 
ATOM      2  C   LIG d   1      -6.850  93.234 118.756  0.00  0.00     0.016 C 
ATOM      3  C   LIG d   1      -7.327  94.454 119.286  0.00  0.00     0.038 C 
ATOM      4  C   LIG d   1      -6.458  95.429 119.801  0.00  0.00     0.028 C 
ATOM      5  C   LIG d   1      -5.161  94.851 120.357  0.00  0.00    -0.047 C 
ATOM      6  C   LIG d   1      -4.526  93.928 119.293  0.00  0.00     0.091 C 
ENDROOT
BRANCH   1   7
ATOM      7  O   LIG d   1      -5.088  92.280 117.568  0.00  0.00    -0.368 OA
BRANCH   7   8
ATOM      8  C   LIG d   1      -5.280  90.854 117.397  0.00  0.00     0.119 C 
BRANCH   8   9
ATOM      9  C   LIG d   1      -3.887  90.194 117.415  0.00  0.00     0.028 C 
ATOM     10  C   LIG d   1      -3.454  89.775 118.830  0.00  0.00     0.006 C 
ENDBRANCH   8   9
BRANCH   8  11
ATOM     11  C   LIG d   1      -5.864  90.532 116.019  0.00  0.00     0.028 C 
ATOM     12  C   LIG d   1      -6.668  91.699 115.425  0.00  0.00     0.006 C 
ENDBRANCH   8  11
ENDBRANCH   7   8
ENDBRANCH   1   7
BRANCH   6  13
ATOM     13  N   LIG d   1      -3.296  93.255 119.787  0.00  0.00    -0.311 N 
ATOM     14  C   LIG d   1      -2.121  93.326 119.164  0.00  0.00     0.210 C 
ATOM     15  C   LIG d   1      -0.987  92.542 119.832  0.00  0.00     0.109 C 
ATOM     16  O   LIG d   1      -1.903  93.989 118.139  0.00  0.00    -0.276 OA
ATOM     17  H   LIG d   1      -3.376  92.721 120.630  0.00  0.00     0.149 HD
ENDBRANCH   6  13
BRANCH   5  18
ATOM     18  N   LIG d   1      -4.294  95.983 120.733  0.00  0.00     0.381 N 
ATOM     19  H   LIG d   1      -4.231  96.629 119.972  0.00  0.00    -0.090 HD
ATOM     20  H   LIG d   1      -3.372  95.636 120.928  0.00  0.00    -0.090 HD
ATOM     21  H   LIG d   1      -4.661  96.442 121.538  0.00  0.00    -0.090 HD
ENDBRANCH   5  18
BRANCH   3  22
ATOM     22  C   LIG d   1      -8.691  94.693 119.341  0.00  0.00     0.382 C 
ATOM     23  O   LIG d   1      -9.125  95.723 119.912  0.00  0.00    -0.241 OA
ATOM     24  O   LIG d   1      -9.496  93.870 118.866  0.00  0.00    -0.241 OA
ENDBRANCH   3  22
TORSDOF 7
ENDMDL
MODEL 7
REMARK VINA RESULT:      -4.7      2.255      4.614
REMARK  7 active torsions:
REMARK  status: ('A' for Active; 'I' for Inactive)
REMARK    1  A    between atoms: C_2  and  C_3 
REMARK    2  A    between atoms: C_3  and  O_6 
REMARK    3  A    between atoms: C_3  and  C_4 
REMARK    4  A    between atoms: C_7  and  O_6 
REMARK    5  A    between atoms: C_9  and  C_10 
REMARK    6  A    between atoms: N_15  and  C_14 
REMARK    7  A    between atoms: N_20  and  C_19 
REMARK       I    between atoms: C_22  and  N_20 
ROOT
ATOM      1  C   LIG d   1      -4.722  92.459 118.359  0.00  0.00     0.161 C 
ATOM      2  C   LIG d   1      -4.253  91.156 118.125  0.00  0.00     0.016 C 
ATOM      3  C   LIG d   1      -3.061  90.644 118.686  0.00  0.00     0.038 C 
ATOM      4  C   LIG d   1      -2.330  91.357 119.648  0.00  0.00     0.028 C 
ATOM      5  C   LIG d   1      -2.489  92.869 119.533  0.00  0.00    -0.047 C 
ATOM      6  C   LIG d   1      -3.996  93.213 119.493  0.00  0.00     0.091 C 
ENDROOT
BRANCH   1   7
ATOM      7  O   LIG d   1      -6.142  92.432 118.604  0.00  0.00    -0.368 OA
BRANCH   7   8
ATOM      8  C   LIG d   1      -6.979  92.996 117.565  0.00  0.00     0.119 C 
BRANCH   8   9
ATOM      9  C   LIG d   1      -8.212  93.616 118.250  0.00  0.00     0.028 C 
ATOM     10  C   LIG d   1      -8.131  95.149 118.328  0.00  0.00     0.006 C 
ENDBRANCH   8   9
BRANCH   8  11
ATOM     11  C   LIG d   1      -7.533  91.905 116.643  0.00  0.00     0.028 C 
ATOM     12  C   LIG d   1      -6.727  91.760 115.342  0.00  0.00     0.006 C 
ENDBRANCH   8  11
ENDBRANCH   7   8
ENDBRANCH   1   7
BRANCH   6  13
ATOM     13  N   LIG d   1      -4.240  94.666 119.296  0.00  0.00    -0.311 N 
ATOM     14  C   LIG d   1      -4.962  95.408 120.135  0.00  0.00     0.210 C 
ATOM     15  C   LIG d   1      -5.107  96.879 119.734  0.00  0.00     0.109 C 
ATOM     16  O   LIG d   1      -5.468  94.994 121.188  0.00  0.00    -0.276 OA
ATOM     17  H   LIG d   1      -3.840  95.090 118.482  0.00  0.00     0.149 HD
ENDBRANCH   6  13
BRANCH   5  18
ATOM     18  N   LIG d   1      -1.787  93.480 120.677  0.00  0.00     0.381 N 
ATOM     19  H   LIG d   1      -1.077  94.102 120.345  0.00  0.00    -0.090 HD
ATOM     20  H   LIG d   1      -1.345  92.754 121.212  0.00  0.00    -0.090 HD
ATOM     21  H   LIG d   1      -2.434  93.977 121.249  0.00  0.00    -0.090 HD
ENDBRANCH   5  18
BRANCH   3  22
ATOM     22  C   LIG d   1      -2.568  89.422 118.256  0.00  0.00     0.382 C 
ATOM     23  O   LIG d   1      -1.436  89.357 117.718  0.00  0.00    -0.241 OA
ATOM     24  O   LIG d   1      -3.258  88.390 118.360  0.00  0.00    -0.241 OA
ENDBRANCH   3  22
TORSDOF 7
ENDMDL
MODEL 8
REMARK VINA RESULT:      -4.7      1.820      4.706
REMARK  7 active torsions:
REMARK  status: ('A' for Active; 'I' for Inactive)
REMARK    1  A    between atoms: C_2  and  C_3 
REMARK    2  A    between atoms: C_3  and  O_6 
REMARK    3  A    between atoms: C_3  and  C_4 
REMARK    4  A    between atoms: C_7  and  O_6 
REMARK    5  A    between atoms: C_9  and  C_10 
REMARK    6  A    between atoms: N_15  and  C_14 
REMARK    7  A    between atoms: N_20  and  C_19 
REMARK       I    between atoms: C_22  and  N_20 
ROOT
ATOM      1  C   LIG d   1      -5.023  91.610 117.914  0.00  0.00     0.161 C 
ATOM      2  C   LIG d   1      -4.256  92.580 118.580  0.00  0.00     0.016 C 
ATOM      3  C   LIG d   1      -4.815  93.710 119.220  0.00  0.00     0.038 C 
ATOM      4  C   LIG d   1      -6.201  93.867 119.368  0.00  0.00     0.028 C 
ATOM      5  C   LIG d   1      -7.010  93.176 118.276  0.00  0.00    -0.047 C 
ATOM      6  C   LIG d   1      -6.543  91.707 118.160  0.00  0.00     0.091 C 
ENDROOT
BRANCH   1   7
ATOM      7  O   LIG d   1      -4.544  90.293 118.249  0.00  0.00    -0.368 OA
BRANCH   7   8
ATOM      8  C   LIG d   1      -3.149  90.200 118.628  0.00  0.00     0.119 C 
BRANCH   8   9
ATOM      9  C   LIG d   1      -2.534  89.023 117.846  0.00  0.00     0.028 C 
ATOM     10  C   LIG d   1      -0.997  89.075 117.820  0.00  0.00     0.006 C 
ENDBRANCH   8   9
BRANCH   8  11
ATOM     11  C   LIG d   1      -2.996  89.828 120.106  0.00  0.00     0.028 C 
ATOM     12  C   LIG d   1      -2.167  90.853 120.896  0.00  0.00     0.006 C 
ENDBRANCH   8  11
ENDBRANCH   7   8
ENDBRANCH   1   7
BRANCH   6  13
ATOM     13  N   LIG d   1      -7.225  90.981 117.057  0.00  0.00    -0.311 N 
ATOM     14  C   LIG d   1      -7.087  91.303 115.772  0.00  0.00     0.210 C 
ATOM     15  C   LIG d   1      -7.894  90.438 114.798  0.00  0.00     0.109 C 
ATOM     16  O   LIG d   1      -6.349  92.203 115.344  0.00  0.00    -0.276 OA
ATOM     17  H   LIG d   1      -7.819  90.216 117.313  0.00  0.00     0.149 HD
ENDBRANCH   6  13
BRANCH   5  18
ATOM     18  N   LIG d   1      -8.437  93.303 118.629  0.00  0.00     0.381 N 
ATOM     19  H   LIG d   1      -8.654  92.689 119.388  0.00  0.00    -0.090 HD
ATOM     20  H   LIG d   1      -8.993  93.035 117.836  0.00  0.00    -0.090 HD
ATOM     21  H   LIG d   1      -8.642  94.244 118.885  0.00  0.00    -0.090 HD
ENDBRANCH   5  18
BRANCH   3  22
ATOM     22  C   LIG d   1      -3.985  94.718 119.686  0.00  0.00     0.382 C 
ATOM     23  O   LIG d   1      -4.442  95.870 119.875  0.00  0.00    -0.241 OA
ATOM     24  O   LIG d   1      -2.773  94.500 119.877  0.00  0.00    -0.241 OA
ENDBRANCH   3  22
TORSDOF 7
ENDMDL
MODEL 9
REMARK VINA RESULT:      -4.7      1.657      2.431
REMARK  7 active torsions:
REMARK  status: ('A' for Active; 'I' for Inactive)
REMARK    1  A    between atoms: C_2  and  C_3 
REMARK    2  A    between atoms: C_3  and  O_6 
REMARK    3  A    between atoms: C_3  and  C_4 
REMARK    4  A    between atoms: C_7  and  O_6 
REMARK    5  A    between atoms: C_9  and  C_10 
REMARK    6  A    between atoms: N_15  and  C_14 
REMARK    7  A    between atoms: N_20  and  C_19 
REMARK       I    between atoms: C_22  and  N_20 
ROOT
ATOM      1  C   LIG d   1      -4.140  91.381 118.536  0.00  0.00     0.161 C 
ATOM      2  C   LIG d   1      -4.884  90.684 117.570  0.00  0.00     0.016 C 
ATOM      3  C   LIG d   1      -6.065  91.191 116.981  0.00  0.00     0.038 C 
ATOM      4  C   LIG d   1      -6.502  92.504 117.210  0.00  0.00     0.028 C 
ATOM      5  C   LIG d   1      -6.065  93.062 118.560  0.00  0.00    -0.047 C 
ATOM      6  C   LIG d   1      -4.540  92.860 118.716  0.00  0.00     0.091 C 
ENDROOT
BRANCH   1   7
ATOM      7  O   LIG d   1      -2.733  91.275 118.241  0.00  0.00    -0.368 OA
BRANCH   7   8
ATOM      8  C   LIG d   1      -2.090  90.038 118.638  0.00  0.00     0.119 C 
BRANCH   8   9
ATOM      9  C   LIG d   1      -2.363  89.837 120.141  0.00  0.00     0.028 C 
ATOM     10  C   LIG d   1      -2.195  88.372 120.577  0.00  0.00     0.006 C 
ENDBRANCH   8   9
BRANCH   8  11
ATOM     11  C   LIG d   1      -0.567  90.137 118.511  0.00  0.00     0.028 C 
ATOM     12  C   LIG d   1      -0.019  89.364 117.301  0.00  0.00     0.006 C 
ENDBRANCH   8  11
ENDBRANCH   7   8
ENDBRANCH   1   7
BRANCH   6  13
ATOM     13  N   LIG d   1      -4.043  93.302 120.045  0.00  0.00    -0.311 N 
ATOM     14  C   LIG d   1      -3.512  94.503 120.267  0.00  0.00     0.210 C 
ATOM     15  C   LIG d   1      -3.044  94.748 121.705  0.00  0.00     0.109 C 
ATOM     16  O   LIG d   1      -3.413  95.401 119.417  0.00  0.00    -0.276 OA
ATOM     17  H   LIG d   1      -4.114  92.647 120.799  0.00  0.00     0.149 HD
ENDBRANCH   6  13
BRANCH   5  18
ATOM     18  N   LIG d   1      -6.468  94.480 118.609  0.00  0.00     0.381 N 
ATOM     19  H   LIG d   1      -6.069  94.918 119.414  0.00  0.00    -0.090 HD
ATOM     20  H   LIG d   1      -7.469  94.530 118.686  0.00  0.00    -0.090 HD
ATOM     21  H   LIG d   1      -6.168  94.949 117.783  0.00  0.00    -0.090 HD
ENDBRANCH   5  18
BRANCH   3  22
ATOM     22  C   LIG d   1      -6.844  90.367 116.183  0.00  0.00     0.382 C 
ATOM     23  O   LIG d   1      -8.094  90.395 116.286  0.00  0.00    -0.241 OA
ATOM     24  O   LIG d   1      -6.311  89.565 115.393  0.00  0.00    -0.241 OA
ENDBRANCH   3  22
TORSDOF 7
ENDMDL
