MODEL 1
REMARK VINA RESULT:      -5.5      0.000      0.000
REMARK  7 active torsions:
REMARK  status: ('A' for Active; 'I' for Inactive)
REMARK    1  A    between atoms: C_2  and  C_3 
REMARK    2  A    between atoms: C_3  and  O_6 
REMARK    3  A    between atoms: C_3  and  C_4 
REMARK    4  A    between atoms: C_7  and  O_6 
REMARK    5  A    between atoms: C_9  and  C_10 
REMARK    6  A    between atoms: N_15  and  C_14 
REMARK    7  A    between atoms: N_20  and  C_19 
REMARK       I    between atoms: C_22  and  N_20 
ROOT
ATOM      1  C   LIG d   1      -5.961  92.739 117.395  0.00  0.00     0.161 C 
ATOM      2  C   LIG d   1      -6.565  91.618 116.801  0.00  0.00     0.016 C 
ATOM      3  C   LIG d   1      -5.889  90.397 116.576  0.00  0.00     0.038 C 
ATOM      4  C   LIG d   1      -4.597  90.163 117.070  0.00  0.00     0.028 C 
ATOM      5  C   LIG d   1      -3.770  91.435 117.229  0.00  0.00    -0.047 C 
ATOM      6  C   LIG d   1      -4.587  92.466 118.041  0.00  0.00     0.091 C 
ENDROOT
BRANCH   1   7
ATOM      7  O   LIG d   1      -6.859  93.326 118.358  0.00  0.00    -0.368 OA
BRANCH   7   8
ATOM      8  C   LIG d   1      -7.084  94.751 118.233  0.00  0.00     0.119 C 
BRANCH   8   9
ATOM      9  C   LIG d   1      -6.696  95.400 119.576  0.00  0.00     0.028 C 
ATOM     10  C   LIG d   1      -6.015  96.767 119.393  0.00  0.00     0.006 C 
ENDBRANCH   8   9
BRANCH   8  11
ATOM     11  C   LIG d   1      -8.571  95.067 118.045  0.00  0.00     0.028 C 
ATOM     12  C   LIG d   1      -9.350  95.081 119.370  0.00  0.00     0.006 C 
ENDBRANCH   8  11
ENDBRANCH   7   8
ENDBRANCH   1   7
BRANCH   6  13
ATOM     13  N   LIG d   1      -3.884  93.769 118.171  0.00  0.00    -0.311 N 
ATOM     14  C   LIG d   1      -3.118  94.088 119.213  0.00  0.00     0.210 C 
ATOM     15  C   LIG d   1      -2.503  95.490 119.158  0.00  0.00     0.109 C 
ATOM     16  O   LIG d   1      -2.862  93.331 120.161  0.00  0.00    -0.276 OA
ATOM     17  H   LIG d   1      -4.011  94.432 117.431  0.00  0.00     0.149 HD
ENDBRANCH   6  13
BRANCH   5  18
ATOM     18  N   LIG d   1      -2.500  91.062 117.880  0.00  0.00     0.381 N 
ATOM     19  H   LIG d   1      -2.681  90.456 118.655  0.00  0.00    -0.090 HD
ATOM     20  H   LIG d   1      -2.056  91.893 118.227  0.00  0.00    -0.090 HD
ATOM     21  H   LIG d   1      -1.903  90.606 117.225  0.00  0.00    -0.090 HD
ENDBRANCH   5  18
BRANCH   3  22
ATOM     22  C   LIG d   1      -6.492  89.408 115.814  0.00  0.00     0.382 C 
ATOM     23  O   LIG d   1      -7.426  88.726 116.298  0.00  0.00    -0.241 OA
ATOM     24  O   LIG d   1      -6.083  89.160 114.663  0.00  0.00    -0.241 OA
ENDBRANCH   3  22
TORSDOF 7
ENDMDL
MODEL 2
REMARK VINA RESULT:      -5.4      1.971      5.205
REMARK  7 active torsions:
REMARK  status: ('A' for Active; 'I' for Inactive)
REMARK    1  A    between atoms: C_2  and  C_3 
REMARK    2  A    between atoms: C_3  and  O_6 
REMARK    3  A    between atoms: C_3  and  C_4 
REMARK    4  A    between atoms: C_7  and  O_6 
REMARK    5  A    between atoms: C_9  and  C_10 
REMARK    6  A    between atoms: N_15  and  C_14 
REMARK    7  A    between atoms: N_20  and  C_19 
REMARK       I    between atoms: C_22  and  N_20 
ROOT
ATOM      1  C   LIG d   1      -6.116  92.618 117.148  0.00  0.00     0.161 C 
ATOM      2  C   LIG d   1      -7.267  93.416 117.259  0.00  0.00     0.016 C 
ATOM      3  C   LIG d   1      -7.367  94.520 118.137  0.00  0.00     0.038 C 
ATOM      4  C   LIG d   1      -6.263  94.995 118.860  0.00  0.00     0.028 C 
ATOM      5  C   LIG d   1      -5.227  93.917 119.161  0.00  0.00    -0.047 C 
ATOM      6  C   LIG d   1      -4.864  93.188 117.847  0.00  0.00     0.091 C 
ENDROOT
BRANCH   1   7
ATOM      7  O   LIG d   1      -5.837  92.352 115.759  0.00  0.00    -0.368 OA
BRANCH   7   8
ATOM      8  C   LIG d   1      -6.035  90.986 115.320  0.00  0.00     0.119 C 
BRANCH   8   9
ATOM      9  C   LIG d   1      -7.546  90.786 115.096  0.00  0.00     0.028 C 
ATOM     10  C   LIG d   1      -8.068  89.490 115.740  0.00  0.00     0.006 C 
ENDBRANCH   8   9
BRANCH   8  11
ATOM     11  C   LIG d   1      -5.651  89.987 116.415  0.00  0.00     0.028 C 
ATOM     12  C   LIG d   1      -4.428  89.135 116.042  0.00  0.00     0.006 C 
ENDBRANCH   8  11
ENDBRANCH   7   8
ENDBRANCH   1   7
BRANCH   6  13
ATOM     13  N   LIG d   1      -3.919  92.062 118.066  0.00  0.00    -0.311 N 
ATOM     14  C   LIG d   1      -2.601  92.169 117.901  0.00  0.00     0.210 C 
ATOM     15  C   LIG d   1      -1.812  90.881 118.159  0.00  0.00     0.109 C 
ATOM     16  O   LIG d   1      -2.009  93.215 117.598  0.00  0.00    -0.276 OA
ATOM     17  H   LIG d   1      -4.312  91.184 118.344  0.00  0.00     0.149 HD
ENDBRANCH   6  13
BRANCH   5  18
ATOM     18  N   LIG d   1      -4.070  94.576 119.796  0.00  0.00     0.381 N 
ATOM     19  H   LIG d   1      -3.330  93.913 119.922  0.00  0.00    -0.090 HD
ATOM     20  H   LIG d   1      -4.345  94.917 120.700  0.00  0.00    -0.090 HD
ATOM     21  H   LIG d   1      -3.754  95.332 119.229  0.00  0.00    -0.090 HD
ENDBRANCH   5  18
BRANCH   3  22
ATOM     22  C   LIG d   1      -8.594  95.136 118.329  0.00  0.00     0.382 C 
ATOM     23  O   LIG d   1      -8.738  96.349 118.043  0.00  0.00    -0.241 OA
ATOM     24  O   LIG d   1      -9.547  94.506 118.827  0.00  0.00    -0.241 OA
ENDBRANCH   3  22
TORSDOF 7
ENDMDL
MODEL 3
REMARK VINA RESULT:      -5.3      2.367      4.695
REMARK  7 active torsions:
REMARK  status: ('A' for Active; 'I' for Inactive)
REMARK    1  A    between atoms: C_2  and  C_3 
REMARK    2  A    between atoms: C_3  and  O_6 
REMARK    3  A    between atoms: C_3  and  C_4 
REMARK    4  A    between atoms: C_7  and  O_6 
REMARK    5  A    between atoms: C_9  and  C_10 
REMARK    6  A    between atoms: N_15  and  C_14 
REMARK    7  A    between atoms: N_20  and  C_19 
REMARK       I    between atoms: C_22  and  N_20 
ROOT
ATOM      1  C   LIG d   1      -3.895  91.065 117.756  0.00  0.00     0.161 C 
ATOM      2  C   LIG d   1      -4.563  90.151 116.925  0.00  0.00     0.016 C 
ATOM      3  C   LIG d   1      -5.781  90.442 116.268  0.00  0.00     0.038 C 
ATOM      4  C   LIG d   1      -6.339  91.729 116.278  0.00  0.00     0.028 C 
ATOM      5  C   LIG d   1      -5.966  92.542 117.514  0.00  0.00    -0.047 C 
ATOM      6  C   LIG d   1      -4.431  92.510 117.690  0.00  0.00     0.091 C 
ENDROOT
BRANCH   1   7
ATOM      7  O   LIG d   1      -2.482  91.041 117.472  0.00  0.00    -0.368 OA
BRANCH   7   8
ATOM      8  C   LIG d   1      -1.637  90.450 118.490  0.00  0.00     0.119 C 
BRANCH   8   9
ATOM      9  C   LIG d   1      -1.164  89.082 117.962  0.00  0.00     0.028 C 
ATOM     10  C   LIG d   1      -2.012  87.918 118.503  0.00  0.00     0.006 C 
ENDBRANCH   8   9
BRANCH   8  11
ATOM     11  C   LIG d   1      -2.432  90.140 119.763  0.00  0.00     0.028 C 
ATOM     12  C   LIG d   1      -1.940  90.938 120.981  0.00  0.00     0.006 C 
ENDBRANCH   8  11
ENDBRANCH   7   8
ENDBRANCH   1   7
BRANCH   6  13
ATOM     13  N   LIG d   1      -3.987  93.211 118.924  0.00  0.00    -0.311 N 
ATOM     14  C   LIG d   1      -2.941  94.034 118.963  0.00  0.00     0.210 C 
ATOM     15  C   LIG d   1      -2.644  94.637 120.340  0.00  0.00     0.109 C 
ATOM     16  O   LIG d   1      -2.251  94.348 117.982  0.00  0.00    -0.276 OA
ATOM     17  H   LIG d   1      -4.511  93.038 119.760  0.00  0.00     0.149 HD
ENDBRANCH   6  13
BRANCH   5  18
ATOM     18  N   LIG d   1      -6.499  93.905 117.329  0.00  0.00     0.381 N 
ATOM     19  H   LIG d   1      -5.843  94.575 117.676  0.00  0.00    -0.090 HD
ATOM     20  H   LIG d   1      -7.350  93.995 117.855  0.00  0.00    -0.090 HD
ATOM     21  H   LIG d   1      -6.677  94.073 116.363  0.00  0.00    -0.090 HD
ENDBRANCH   5  18
BRANCH   3  22
ATOM     22  C   LIG d   1      -6.474  89.429 115.624  0.00  0.00     0.382 C 
ATOM     23  O   LIG d   1      -7.319  88.748 116.255  0.00  0.00    -0.241 OA
ATOM     24  O   LIG d   1      -6.234  89.157 114.432  0.00  0.00    -0.241 OA
ENDBRANCH   3  22
TORSDOF 7
ENDMDL
MODEL 4
REMARK VINA RESULT:      -5.2      1.984      5.144
REMARK  7 active torsions:
REMARK  status: ('A' for Active; 'I' for Inactive)
REMARK    1  A    between atoms: C_2  and  C_3 
REMARK    2  A    between atoms: C_3  and  O_6 
REMARK    3  A    between atoms: C_3  and  C_4 
REMARK    4  A    between atoms: C_7  and  O_6 
REMARK    5  A    between atoms: C_9  and  C_10 
REMARK    6  A    between atoms: N_15  and  C_14 
REMARK    7  A    between atoms: N_20  and  C_19 
REMARK       I    between atoms: C_22  and  N_20 
ROOT
ATOM      1  C   LIG d   1      -5.637  93.001 118.058  0.00  0.00     0.161 C 
ATOM      2  C   LIG d   1      -6.900  93.599 117.914  0.00  0.00     0.016 C 
ATOM      3  C   LIG d   1      -7.247  94.836 118.504  0.00  0.00     0.038 C 
ATOM      4  C   LIG d   1      -6.299  95.637 119.158  0.00  0.00     0.028 C 
ATOM      5  C   LIG d   1      -5.146  94.842 119.761  0.00  0.00    -0.047 C 
ATOM      6  C   LIG d   1      -4.556  93.913 118.675  0.00  0.00     0.091 C 
ENDROOT
BRANCH   1   7
ATOM      7  O   LIG d   1      -5.192  92.486 116.788  0.00  0.00    -0.368 OA
BRANCH   7   8
ATOM      8  C   LIG d   1      -5.650  91.154 116.444  0.00  0.00     0.119 C 
BRANCH   8   9
ATOM      9  C   LIG d   1      -4.406  90.251 116.336  0.00  0.00     0.028 C 
ATOM     10  C   LIG d   1      -3.912  89.766 117.709  0.00  0.00     0.006 C 
ENDBRANCH   8   9
BRANCH   8  11
ATOM     11  C   LIG d   1      -6.293  91.127 115.055  0.00  0.00     0.028 C 
ATOM     12  C   LIG d   1      -6.334  89.717 114.444  0.00  0.00     0.006 C 
ENDBRANCH   8  11
ENDBRANCH   7   8
ENDBRANCH   1   7
BRANCH   6  13
ATOM     13  N   LIG d   1      -3.477  93.038 119.204  0.00  0.00    -0.311 N 
ATOM     14  C   LIG d   1      -2.261  92.966 118.665  0.00  0.00     0.210 C 
ATOM     15  C   LIG d   1      -1.306  91.986 119.352  0.00  0.00     0.109 C 
ATOM     16  O   LIG d   1      -1.873  93.644 117.702  0.00  0.00    -0.276 OA
ATOM     17  H   LIG d   1      -3.696  92.476 120.003  0.00  0.00     0.149 HD
ENDBRANCH   6  13
BRANCH   5  18
ATOM     18  N   LIG d   1      -4.165  95.809 120.289  0.00  0.00     0.381 N 
ATOM     19  H   LIG d   1      -3.548  95.350 120.929  0.00  0.00    -0.090 HD
ATOM     20  H   LIG d   1      -4.657  96.531 120.787  0.00  0.00    -0.090 HD
ATOM     21  H   LIG d   1      -3.643  96.208 119.541  0.00  0.00    -0.090 HD
ENDBRANCH   5  18
BRANCH   3  22
ATOM     22  C   LIG d   1      -8.565  95.265 118.477  0.00  0.00     0.382 C 
ATOM     23  O   LIG d   1      -8.833  96.450 118.164  0.00  0.00    -0.241 OA
ATOM     24  O   LIG d   1      -9.487  94.494 118.804  0.00  0.00    -0.241 OA
ENDBRANCH   3  22
TORSDOF 7
ENDMDL
MODEL 5
REMARK VINA RESULT:      -5.2      2.406      6.079
REMARK  7 active torsions:
REMARK  status: ('A' for Active; 'I' for Inactive)
REMARK    1  A    between atoms: C_2  and  C_3 
REMARK    2  A    between atoms: C_3  and  O_6 
REMARK    3  A    between atoms: C_3  and  C_4 
REMARK    4  A    between atoms: C_7  and  O_6 
REMARK    5  A    between atoms: C_9  and  C_10 
REMARK    6  A    between atoms: N_15  and  C_14 
REMARK    7  A    between atoms: N_20  and  C_19 
REMARK       I    between atoms: C_22  and  N_20 
ROOT
ATOM      1  C   LIG d   1      -5.116  92.220 117.713  0.00  0.00     0.161 C 
ATOM      2  C   LIG d   1      -5.449  93.382 118.428  0.00  0.00     0.016 C 
ATOM      3  C   LIG d   1      -6.551  94.207 118.103  0.00  0.00     0.038 C 
ATOM      4  C   LIG d   1      -7.489  93.841 117.127  0.00  0.00     0.028 C 
ATOM      5  C   LIG d   1      -6.912  92.936 116.043  0.00  0.00    -0.047 C 
ATOM      6  C   LIG d   1      -6.192  91.745 116.714  0.00  0.00     0.091 C 
ENDROOT
BRANCH   1   7
ATOM      7  O   LIG d   1      -4.781  91.161 118.631  0.00  0.00    -0.368 OA
BRANCH   7   8
ATOM      8  C   LIG d   1      -3.371  90.857 118.767  0.00  0.00     0.119 C 
BRANCH   8   9
ATOM      9  C   LIG d   1      -3.155  89.421 118.251  0.00  0.00     0.028 C 
ATOM     10  C   LIG d   1      -1.666  89.076 118.080  0.00  0.00     0.006 C 
ENDBRANCH   8   9
BRANCH   8  11
ATOM     11  C   LIG d   1      -2.946  90.828 120.238  0.00  0.00     0.028 C 
ATOM     12  C   LIG d   1      -2.505  92.205 120.758  0.00  0.00     0.006 C 
ENDBRANCH   8  11
ENDBRANCH   7   8
ENDBRANCH   1   7
BRANCH   6  13
ATOM     13  N   LIG d   1      -5.527  90.855 115.727  0.00  0.00    -0.311 N 
ATOM     14  C   LIG d   1      -5.812  89.560 115.598  0.00  0.00     0.210 C 
ATOM     15  C   LIG d   1      -4.996  88.821 114.533  0.00  0.00     0.109 C 
ATOM     16  O   LIG d   1      -6.686  88.961 116.243  0.00  0.00    -0.276 OA
ATOM     17  H   LIG d   1      -4.826  91.266 115.142  0.00  0.00     0.149 HD
ENDBRANCH   6  13
BRANCH   5  18
ATOM     18  N   LIG d   1      -8.027  92.520 115.170  0.00  0.00     0.381 N 
ATOM     19  H   LIG d   1      -8.266  91.567 115.357  0.00  0.00    -0.090 HD
ATOM     20  H   LIG d   1      -7.732  92.589 114.212  0.00  0.00    -0.090 HD
ATOM     21  H   LIG d   1      -8.818  93.105 115.325  0.00  0.00    -0.090 HD
ENDBRANCH   5  18
BRANCH   3  22
ATOM     22  C   LIG d   1      -6.700  95.434 118.732  0.00  0.00     0.382 C 
ATOM     23  O   LIG d   1      -7.479  96.293 118.253  0.00  0.00    -0.241 OA
ATOM     24  O   LIG d   1      -6.032  95.709 119.747  0.00  0.00    -0.241 OA
ENDBRANCH   3  22
TORSDOF 7
ENDMDL
MODEL 6
REMARK VINA RESULT:      -5.1      2.353      4.857
REMARK  7 active torsions:
REMARK  status: ('A' for Active; 'I' for Inactive)
REMARK    1  A    between atoms: C_2  and  C_3 
REMARK    2  A    between atoms: C_3  and  O_6 
REMARK    3  A    between atoms: C_3  and  C_4 
REMARK    4  A    between atoms: C_7  and  O_6 
REMARK    5  A    between atoms: C_9  and  C_10 
REMARK    6  A    between atoms: N_15  and  C_14 
REMARK    7  A    between atoms: N_20  and  C_19 
REMARK       I    between atoms: C_22  and  N_20 
ROOT
ATOM      1  C   LIG d   1      -3.995  91.082 117.623  0.00  0.00     0.161 C 
ATOM      2  C   LIG d   1      -4.702  90.225 116.763  0.00  0.00     0.016 C 
ATOM      3  C   LIG d   1      -5.928  90.574 116.152  0.00  0.00     0.038 C 
ATOM      4  C   LIG d   1      -6.459  91.869 116.241  0.00  0.00     0.028 C 
ATOM      5  C   LIG d   1      -6.040  92.610 117.506  0.00  0.00    -0.047 C 
ATOM      6  C   LIG d   1      -4.502  92.540 117.643  0.00  0.00     0.091 C 
ENDROOT
BRANCH   1   7
ATOM      7  O   LIG d   1      -2.590  91.045 117.304  0.00  0.00    -0.368 OA
BRANCH   7   8
ATOM      8  C   LIG d   1      -1.720  90.487 118.319  0.00  0.00     0.119 C 
BRANCH   8   9
ATOM      9  C   LIG d   1      -0.411  91.300 118.306  0.00  0.00     0.028 C 
ATOM     10  C   LIG d   1       0.487  90.947 117.109  0.00  0.00     0.006 C 
ENDBRANCH   8   9
BRANCH   8  11
ATOM     11  C   LIG d   1      -1.309  89.052 117.974  0.00  0.00     0.028 C 
ATOM     12  C   LIG d   1      -2.218  87.998 118.627  0.00  0.00     0.006 C 
ENDBRANCH   8  11
ENDBRANCH   7   8
ENDBRANCH   1   7
BRANCH   6  13
ATOM     13  N   LIG d   1      -4.015  93.168 118.899  0.00  0.00    -0.311 N 
ATOM     14  C   LIG d   1      -2.961  93.981 118.951  0.00  0.00     0.210 C 
ATOM     15  C   LIG d   1      -2.617  94.504 120.349  0.00  0.00     0.109 C 
ATOM     16  O   LIG d   1      -2.299  94.345 117.968  0.00  0.00    -0.276 OA
ATOM     17  H   LIG d   1      -4.513  92.952 119.740  0.00  0.00     0.149 HD
ENDBRANCH   6  13
BRANCH   5  18
ATOM     18  N   LIG d   1      -6.548  93.991 117.403  0.00  0.00     0.381 N 
ATOM     19  H   LIG d   1      -6.873  94.164 116.472  0.00  0.00    -0.090 HD
ATOM     20  H   LIG d   1      -5.798  94.630 117.599  0.00  0.00    -0.090 HD
ATOM     21  H   LIG d   1      -7.291  94.130 118.052  0.00  0.00    -0.090 HD
ENDBRANCH   5  18
BRANCH   3  22
ATOM     22  C   LIG d   1      -6.658  89.608 115.476  0.00  0.00     0.382 C 
ATOM     23  O   LIG d   1      -6.190  89.083 114.436  0.00  0.00    -0.241 OA
ATOM     24  O   LIG d   1      -7.796  89.287 115.866  0.00  0.00    -0.241 OA
ENDBRANCH   3  22
TORSDOF 7
ENDMDL
MODEL 7
REMARK VINA RESULT:      -5.1      2.174      4.907
REMARK  7 active torsions:
REMARK  status: ('A' for Active; 'I' for Inactive)
REMARK    1  A    between atoms: C_2  and  C_3 
REMARK    2  A    between atoms: C_3  and  O_6 
REMARK    3  A    between atoms: C_3  and  C_4 
REMARK    4  A    between atoms: C_7  and  O_6 
REMARK    5  A    between atoms: C_9  and  C_10 
REMARK    6  A    between atoms: N_15  and  C_14 
REMARK    7  A    between atoms: N_20  and  C_19 
REMARK       I    between atoms: C_22  and  N_20 
ROOT
ATOM      1  C   LIG d   1      -4.841  92.551 117.392  0.00  0.00     0.161 C 
ATOM      2  C   LIG d   1      -3.658  91.801 117.493  0.00  0.00     0.016 C 
ATOM      3  C   LIG d   1      -2.720  91.963 118.539  0.00  0.00     0.038 C 
ATOM      4  C   LIG d   1      -2.978  92.787 119.645  0.00  0.00     0.028 C 
ATOM      5  C   LIG d   1      -3.927  93.939 119.333  0.00  0.00    -0.047 C 
ATOM      6  C   LIG d   1      -5.193  93.376 118.648  0.00  0.00     0.091 C 
ENDROOT
BRANCH   1   7
ATOM      7  O   LIG d   1      -5.938  91.687 117.036  0.00  0.00    -0.368 OA
BRANCH   7   8
ATOM      8  C   LIG d   1      -5.788  90.940 115.804  0.00  0.00     0.119 C 
BRANCH   8   9
ATOM      9  C   LIG d   1      -6.821  91.489 114.800  0.00  0.00     0.028 C 
ATOM     10  C   LIG d   1      -7.495  92.778 115.298  0.00  0.00     0.006 C 
ENDBRANCH   8   9
BRANCH   8  11
ATOM     11  C   LIG d   1      -6.154  89.466 115.997  0.00  0.00     0.028 C 
ATOM     12  C   LIG d   1      -7.642  89.259 116.321  0.00  0.00     0.006 C 
ENDBRANCH   8  11
ENDBRANCH   7   8
ENDBRANCH   1   7
BRANCH   6  13
ATOM     13  N   LIG d   1      -6.138  94.446 118.233  0.00  0.00    -0.311 N 
ATOM     14  C   LIG d   1      -7.407  94.497 118.632  0.00  0.00     0.210 C 
ATOM     15  C   LIG d   1      -8.214  95.673 118.071  0.00  0.00     0.109 C 
ATOM     16  O   LIG d   1      -7.934  93.699 119.422  0.00  0.00    -0.276 OA
ATOM     17  H   LIG d   1      -5.785  95.152 117.617  0.00  0.00     0.149 HD
ENDBRANCH   6  13
BRANCH   5  18
ATOM     18  N   LIG d   1      -4.217  94.634 120.602  0.00  0.00     0.381 N 
ATOM     19  H   LIG d   1      -3.417  94.592 121.201  0.00  0.00    -0.090 HD
ATOM     20  H   LIG d   1      -4.980  94.167 121.061  0.00  0.00    -0.090 HD
ATOM     21  H   LIG d   1      -4.459  95.584 120.423  0.00  0.00    -0.090 HD
ENDBRANCH   5  18
BRANCH   3  22
ATOM     22  C   LIG d   1      -1.491  91.327 118.465  0.00  0.00     0.382 C 
ATOM     23  O   LIG d   1      -1.202  90.423 119.286  0.00  0.00    -0.241 OA
ATOM     24  O   LIG d   1      -0.649  91.674 117.615  0.00  0.00    -0.241 OA
ENDBRANCH   3  22
TORSDOF 7
ENDMDL
MODEL 8
REMARK VINA RESULT:      -4.9      2.011      4.920
REMARK  7 active torsions:
REMARK  status: ('A' for Active; 'I' for Inactive)
REMARK    1  A    between atoms: C_2  and  C_3 
REMARK    2  A    between atoms: C_3  and  O_6 
REMARK    3  A    between atoms: C_3  and  C_4 
REMARK    4  A    between atoms: C_7  and  O_6 
REMARK    5  A    between atoms: C_9  and  C_10 
REMARK    6  A    between atoms: N_15  and  C_14 
REMARK    7  A    between atoms: N_20  and  C_19 
REMARK       I    between atoms: C_22  and  N_20 
ROOT
ATOM      1  C   LIG d   1      -5.636  92.710 117.858  0.00  0.00     0.161 C 
ATOM      2  C   LIG d   1      -6.851  93.378 118.082  0.00  0.00     0.016 C 
ATOM      3  C   LIG d   1      -6.991  94.456 118.986  0.00  0.00     0.038 C 
ATOM      4  C   LIG d   1      -5.885  95.040 119.621  0.00  0.00     0.028 C 
ATOM      5  C   LIG d   1      -4.718  94.077 119.812  0.00  0.00    -0.047 C 
ATOM      6  C   LIG d   1      -4.396  93.405 118.458  0.00  0.00     0.091 C 
ENDROOT
BRANCH   1   7
ATOM      7  O   LIG d   1      -5.452  92.489 116.446  0.00  0.00    -0.368 OA
BRANCH   7   8
ATOM      8  C   LIG d   1      -5.515  91.111 116.002  0.00  0.00     0.119 C 
BRANCH   8   9
ATOM      9  C   LIG d   1      -6.445  91.063 114.774  0.00  0.00     0.028 C 
ATOM     10  C   LIG d   1      -7.079  92.429 114.464  0.00  0.00     0.006 C 
ENDBRANCH   8   9
BRANCH   8  11
ATOM     11  C   LIG d   1      -6.183  90.218 117.052  0.00  0.00     0.028 C 
ATOM     12  C   LIG d   1      -7.397  89.455 116.500  0.00  0.00     0.006 C 
ENDBRANCH   8  11
ENDBRANCH   7   8
ENDBRANCH   1   7
BRANCH   6  13
ATOM     13  N   LIG d   1      -3.321  92.385 118.574  0.00  0.00    -0.311 N 
ATOM     14  C   LIG d   1      -2.047  92.624 118.267  0.00  0.00     0.210 C 
ATOM     15  C   LIG d   1      -1.105  91.429 118.439  0.00  0.00     0.109 C 
ATOM     16  O   LIG d   1      -1.602  93.722 117.899  0.00  0.00    -0.276 OA
ATOM     17  H   LIG d   1      -3.588  91.475 118.895  0.00  0.00     0.149 HD
ENDBRANCH   6  13
BRANCH   5  18
ATOM     18  N   LIG d   1      -3.587  94.851 120.358  0.00  0.00     0.381 N 
ATOM     19  H   LIG d   1      -3.690  95.816 120.118  0.00  0.00    -0.090 HD
ATOM     20  H   LIG d   1      -2.734  94.512 119.948  0.00  0.00    -0.090 HD
ATOM     21  H   LIG d   1      -3.551  94.749 121.348  0.00  0.00    -0.090 HD
ENDBRANCH   5  18
BRANCH   3  22
ATOM     22  C   LIG d   1      -8.256  94.934 119.294  0.00  0.00     0.382 C 
ATOM     23  O   LIG d   1      -9.273  94.286 118.949  0.00  0.00    -0.241 OA
ATOM     24  O   LIG d   1      -8.394  96.029 119.873  0.00  0.00    -0.241 OA
ENDBRANCH   3  22
TORSDOF 7
ENDMDL
MODEL 9
REMARK VINA RESULT:      -4.9      2.037      4.255
REMARK  7 active torsions:
REMARK  status: ('A' for Active; 'I' for Inactive)
REMARK    1  A    between atoms: C_2  and  C_3 
REMARK    2  A    between atoms: C_3  and  O_6 
REMARK    3  A    between atoms: C_3  and  C_4 
REMARK    4  A    between atoms: C_7  and  O_6 
REMARK    5  A    between atoms: C_9  and  C_10 
REMARK    6  A    between atoms: N_15  and  C_14 
REMARK    7  A    between atoms: N_20  and  C_19 
REMARK       I    between atoms: C_22  and  N_20 
ROOT
ATOM      1  C   LIG d   1      -4.977  91.702 118.684  0.00  0.00     0.161 C 
ATOM      2  C   LIG d   1      -4.942  90.794 117.612  0.00  0.00     0.016 C 
ATOM      3  C   LIG d   1      -5.719  90.943 116.441  0.00  0.00     0.038 C 
ATOM      4  C   LIG d   1      -6.477  92.097 116.195  0.00  0.00     0.028 C 
ATOM      5  C   LIG d   1      -6.936  92.802 117.467  0.00  0.00    -0.047 C 
ATOM      6  C   LIG d   1      -5.714  93.025 118.387  0.00  0.00     0.091 C 
ENDROOT
BRANCH   1   7
ATOM      7  O   LIG d   1      -3.637  91.967 119.143  0.00  0.00    -0.368 OA
BRANCH   7   8
ATOM      8  C   LIG d   1      -2.683  92.370 118.130  0.00  0.00     0.119 C 
BRANCH   8   9
ATOM      9  C   LIG d   1      -1.377  91.593 118.388  0.00  0.00     0.028 C 
ATOM     10  C   LIG d   1      -1.631  90.211 119.015  0.00  0.00     0.006 C 
ENDBRANCH   8   9
BRANCH   8  11
ATOM     11  C   LIG d   1      -2.310  93.848 118.271  0.00  0.00     0.028 C 
ATOM     12  C   LIG d   1      -2.469  94.368 119.709  0.00  0.00     0.006 C 
ENDBRANCH   8  11
ENDBRANCH   7   8
ENDBRANCH   1   7
BRANCH   6  13
ATOM     13  N   LIG d   1      -6.088  93.634 119.690  0.00  0.00    -0.311 N 
ATOM     14  C   LIG d   1      -6.105  94.947 119.907  0.00  0.00     0.210 C 
ATOM     15  C   LIG d   1      -6.500  95.363 121.328  0.00  0.00     0.109 C 
ATOM     16  O   LIG d   1      -5.861  95.809 119.050  0.00  0.00    -0.276 OA
ATOM     17  H   LIG d   1      -6.330  93.008 120.433  0.00  0.00     0.149 HD
ENDBRANCH   6  13
BRANCH   5  18
ATOM     18  N   LIG d   1      -7.595  94.060 117.067  0.00  0.00     0.381 N 
ATOM     19  H   LIG d   1      -6.922  94.799 117.033  0.00  0.00    -0.090 HD
ATOM     20  H   LIG d   1      -8.289  94.296 117.754  0.00  0.00    -0.090 HD
ATOM     21  H   LIG d   1      -8.025  93.951 116.175  0.00  0.00    -0.090 HD
ENDBRANCH   5  18
BRANCH   3  22
ATOM     22  C   LIG d   1      -5.775  89.910 115.517  0.00  0.00     0.382 C 
ATOM     23  O   LIG d   1      -6.380  90.073 114.430  0.00  0.00    -0.241 OA
ATOM     24  O   LIG d   1      -5.265  88.803 115.776  0.00  0.00    -0.241 OA
ENDBRANCH   3  22
TORSDOF 7
ENDMDL
