MODEL 1
REMARK VINA RESULT:      -5.4      0.000      0.000
REMARK  7 active torsions:
REMARK  status: ('A' for Active; 'I' for Inactive)
REMARK    1  A    between atoms: C_2  and  C_3 
REMARK    2  A    between atoms: C_3  and  O_6 
REMARK    3  A    between atoms: C_3  and  C_4 
REMARK    4  A    between atoms: C_7  and  O_6 
REMARK    5  A    between atoms: C_9  and  C_10 
REMARK    6  A    between atoms: N_15  and  C_14 
REMARK    7  A    between atoms: N_20  and  C_19 
REMARK       I    between atoms: C_22  and  N_20 
ROOT
ATOM      1  C   LIG d   1      -6.959  93.794 117.704  0.00  0.00     0.161 C 
ATOM      2  C   LIG d   1      -7.536  92.637 117.155  0.00  0.00     0.016 C 
ATOM      3  C   LIG d   1      -6.787  91.504 116.764  0.00  0.00     0.038 C 
ATOM      4  C   LIG d   1      -5.415  91.391 117.037  0.00  0.00     0.028 C 
ATOM      5  C   LIG d   1      -4.704  92.737 117.130  0.00  0.00    -0.047 C 
ATOM      6  C   LIG d   1      -5.478  93.646 118.112  0.00  0.00     0.091 C 
ENDROOT
BRANCH   1   7
ATOM      7  O   LIG d   1      -7.744  94.248 118.825  0.00  0.00    -0.368 OA
BRANCH   7   8
ATOM      8  C   LIG d   1      -8.860  95.116 118.510  0.00  0.00     0.119 C 
BRANCH   8   9
ATOM      9  C   LIG d   1      -8.280  96.474 118.070  0.00  0.00     0.028 C 
ATOM     10  C   LIG d   1      -7.604  97.227 119.228  0.00  0.00     0.006 C 
ENDBRANCH   8   9
BRANCH   8  11
ATOM     11  C   LIG d   1      -9.699  95.418 119.756  0.00  0.00     0.028 C 
ATOM     12  C   LIG d   1     -10.355  94.162 120.351  0.00  0.00     0.006 C 
ENDBRANCH   8  11
ENDBRANCH   7   8
ENDBRANCH   1   7
BRANCH   6  13
ATOM     13  N   LIG d   1      -4.897  95.012 118.198  0.00  0.00    -0.311 N 
ATOM     14  C   LIG d   1      -4.010  95.374 119.123  0.00  0.00     0.210 C 
ATOM     15  C   LIG d   1      -3.554  96.835 119.044  0.00  0.00     0.109 C 
ATOM     16  O   LIG d   1      -3.533  94.616 119.981  0.00  0.00    -0.276 OA
ATOM     17  H   LIG d   1      -5.205  95.682 117.520  0.00  0.00     0.149 HD
ENDBRANCH   6  13
BRANCH   5  18
ATOM     18  N   LIG d   1      -3.315  92.479 117.553  0.00  0.00     0.381 N 
ATOM     19  H   LIG d   1      -2.684  93.017 116.993  0.00  0.00    -0.090 HD
ATOM     20  H   LIG d   1      -3.109  91.505 117.414  0.00  0.00    -0.090 HD
ATOM     21  H   LIG d   1      -3.202  92.716 118.514  0.00  0.00    -0.090 HD
ENDBRANCH   5  18
BRANCH   3  22
ATOM     22  C   LIG d   1      -7.403  90.483 116.055  0.00  0.00     0.382 C 
ATOM     23  O   LIG d   1      -8.451  89.956 116.500  0.00  0.00    -0.241 OA
ATOM     24  O   LIG d   1      -6.900  90.054 115.000  0.00  0.00    -0.241 OA
ENDBRANCH   3  22
TORSDOF 7
ENDMDL
MODEL 2
REMARK VINA RESULT:      -5.3      2.489      4.784
REMARK  7 active torsions:
REMARK  status: ('A' for Active; 'I' for Inactive)
REMARK    1  A    between atoms: C_2  and  C_3 
REMARK    2  A    between atoms: C_3  and  O_6 
REMARK    3  A    between atoms: C_3  and  C_4 
REMARK    4  A    between atoms: C_7  and  O_6 
REMARK    5  A    between atoms: C_9  and  C_10 
REMARK    6  A    between atoms: N_15  and  C_14 
REMARK    7  A    between atoms: N_20  and  C_19 
REMARK       I    between atoms: C_22  and  N_20 
ROOT
ATOM      1  C   LIG d   1      -4.990  91.837 117.748  0.00  0.00     0.161 C 
ATOM      2  C   LIG d   1      -5.745  90.944 116.970  0.00  0.00     0.016 C 
ATOM      3  C   LIG d   1      -6.887  91.330 116.231  0.00  0.00     0.038 C 
ATOM      4  C   LIG d   1      -7.265  92.674 116.098  0.00  0.00     0.028 C 
ATOM      5  C   LIG d   1      -6.831  93.544 117.273  0.00  0.00    -0.047 C 
ATOM      6  C   LIG d   1      -5.321  93.328 117.527  0.00  0.00     0.091 C 
ENDROOT
BRANCH   1   7
ATOM      7  O   LIG d   1      -3.584  91.600 117.537  0.00  0.00    -0.368 OA
BRANCH   7   8
ATOM      8  C   LIG d   1      -2.890  90.897 118.597  0.00  0.00     0.119 C 
BRANCH   8   9
ATOM      9  C   LIG d   1      -1.490  91.526 118.731  0.00  0.00     0.028 C 
ATOM     10  C   LIG d   1      -1.265  92.168 120.111  0.00  0.00     0.006 C 
ENDBRANCH   8   9
BRANCH   8  11
ATOM     11  C   LIG d   1      -2.642  89.432 118.225  0.00  0.00     0.028 C 
ATOM     12  C   LIG d   1      -3.169  88.450 119.283  0.00  0.00     0.006 C 
ENDBRANCH   8  11
ENDBRANCH   7   8
ENDBRANCH   1   7
BRANCH   6  13
ATOM     13  N   LIG d   1      -4.833  94.078 118.713  0.00  0.00    -0.311 N 
ATOM     14  C   LIG d   1      -3.646  94.681 118.761  0.00  0.00     0.210 C 
ATOM     15  C   LIG d   1      -3.330  95.382 120.086  0.00  0.00     0.109 C 
ATOM     16  O   LIG d   1      -2.839  94.729 117.821  0.00  0.00    -0.276 OA
ATOM     17  H   LIG d   1      -5.438  94.116 119.510  0.00  0.00     0.149 HD
ENDBRANCH   6  13
BRANCH   5  18
ATOM     18  N   LIG d   1      -7.167  94.942 116.941  0.00  0.00     0.381 N 
ATOM     19  H   LIG d   1      -6.462  95.327 116.344  0.00  0.00    -0.090 HD
ATOM     20  H   LIG d   1      -7.190  95.481 117.789  0.00  0.00    -0.090 HD
ATOM     21  H   LIG d   1      -8.054  94.981 116.489  0.00  0.00    -0.090 HD
ENDBRANCH   5  18
BRANCH   3  22
ATOM     22  C   LIG d   1      -7.688  90.360 115.647  0.00  0.00     0.382 C 
ATOM     23  O   LIG d   1      -7.553  90.085 114.430  0.00  0.00    -0.241 OA
ATOM     24  O   LIG d   1      -8.573  89.788 116.311  0.00  0.00    -0.241 OA
ENDBRANCH   3  22
TORSDOF 7
ENDMDL
MODEL 3
REMARK VINA RESULT:      -5.3      2.413      4.477
REMARK  7 active torsions:
REMARK  status: ('A' for Active; 'I' for Inactive)
REMARK    1  A    between atoms: C_2  and  C_3 
REMARK    2  A    between atoms: C_3  and  O_6 
REMARK    3  A    between atoms: C_3  and  C_4 
REMARK    4  A    between atoms: C_7  and  O_6 
REMARK    5  A    between atoms: C_9  and  C_10 
REMARK    6  A    between atoms: N_15  and  C_14 
REMARK    7  A    between atoms: N_20  and  C_19 
REMARK       I    between atoms: C_22  and  N_20 
ROOT
ATOM      1  C   LIG d   1      -6.276  92.229 118.739  0.00  0.00     0.161 C 
ATOM      2  C   LIG d   1      -6.474  91.425 117.605  0.00  0.00     0.016 C 
ATOM      3  C   LIG d   1      -6.925  91.928 116.363  0.00  0.00     0.038 C 
ATOM      4  C   LIG d   1      -7.065  93.304 116.127  0.00  0.00     0.028 C 
ATOM      5  C   LIG d   1      -7.362  94.107 117.389  0.00  0.00    -0.047 C 
ATOM      6  C   LIG d   1      -6.317  93.748 118.470  0.00  0.00     0.091 C 
ENDROOT
BRANCH   1   7
ATOM      7  O   LIG d   1      -5.039  91.868 119.384  0.00  0.00    -0.368 OA
BRANCH   7   8
ATOM      8  C   LIG d   1      -3.867  91.820 118.534  0.00  0.00     0.119 C 
BRANCH   8   9
ATOM      9  C   LIG d   1      -3.166  90.471 118.787  0.00  0.00     0.028 C 
ATOM     10  C   LIG d   1      -3.196  89.554 117.552  0.00  0.00     0.006 C 
ENDBRANCH   8   9
BRANCH   8  11
ATOM     11  C   LIG d   1      -2.845  92.889 118.933  0.00  0.00     0.028 C 
ATOM     12  C   LIG d   1      -2.743  94.028 117.907  0.00  0.00     0.006 C 
ENDBRANCH   8  11
ENDBRANCH   7   8
ENDBRANCH   1   7
BRANCH   6  13
ATOM     13  N   LIG d   1      -6.584  94.427 119.765  0.00  0.00    -0.311 N 
ATOM     14  C   LIG d   1      -6.009  95.573 120.124  0.00  0.00     0.210 C 
ATOM     15  C   LIG d   1      -6.409  96.091 121.509  0.00  0.00     0.109 C 
ATOM     16  O   LIG d   1      -5.230  96.226 119.414  0.00  0.00    -0.276 OA
ATOM     17  H   LIG d   1      -7.228  93.982 120.389  0.00  0.00     0.149 HD
ENDBRANCH   6  13
BRANCH   5  18
ATOM     18  N   LIG d   1      -7.346  95.536 117.022  0.00  0.00     0.381 N 
ATOM     19  H   LIG d   1      -8.267  95.830 116.766  0.00  0.00    -0.090 HD
ATOM     20  H   LIG d   1      -6.743  95.661 116.228  0.00  0.00    -0.090 HD
ATOM     21  H   LIG d   1      -7.017  96.081 117.788  0.00  0.00    -0.090 HD
ENDBRANCH   5  18
BRANCH   3  22
ATOM     22  C   LIG d   1      -7.280  91.048 115.352  0.00  0.00     0.382 C 
ATOM     23  O   LIG d   1      -6.752  89.911 115.298  0.00  0.00    -0.241 OA
ATOM     24  O   LIG d   1      -8.087  91.392 114.469  0.00  0.00    -0.241 OA
ENDBRANCH   3  22
TORSDOF 7
ENDMDL
MODEL 4
REMARK VINA RESULT:      -5.1      1.634      2.336
REMARK  7 active torsions:
REMARK  status: ('A' for Active; 'I' for Inactive)
REMARK    1  A    between atoms: C_2  and  C_3 
REMARK    2  A    between atoms: C_3  and  O_6 
REMARK    3  A    between atoms: C_3  and  C_4 
REMARK    4  A    between atoms: C_7  and  O_6 
REMARK    5  A    between atoms: C_9  and  C_10 
REMARK    6  A    between atoms: N_15  and  C_14 
REMARK    7  A    between atoms: N_20  and  C_19 
REMARK       I    between atoms: C_22  and  N_20 
ROOT
ATOM      1  C   LIG d   1      -5.806  93.371 116.938  0.00  0.00     0.161 C 
ATOM      2  C   LIG d   1      -6.874  92.612 116.429  0.00  0.00     0.016 C 
ATOM      3  C   LIG d   1      -6.779  91.231 116.141  0.00  0.00     0.038 C 
ATOM      4  C   LIG d   1      -5.647  90.478 116.487  0.00  0.00     0.028 C 
ATOM      5  C   LIG d   1      -4.364  91.300 116.537  0.00  0.00    -0.047 C 
ATOM      6  C   LIG d   1      -4.599  92.543 117.425  0.00  0.00     0.091 C 
ENDROOT
BRANCH   1   7
ATOM      7  O   LIG d   1      -6.279  94.235 117.990  0.00  0.00    -0.368 OA
BRANCH   7   8
ATOM      8  C   LIG d   1      -7.130  93.618 118.987  0.00  0.00     0.119 C 
BRANCH   8   9
ATOM      9  C   LIG d   1      -8.386  94.499 119.132  0.00  0.00     0.028 C 
ATOM     10  C   LIG d   1      -8.339  95.742 118.228  0.00  0.00     0.006 C 
ENDBRANCH   8   9
BRANCH   8  11
ATOM     11  C   LIG d   1      -6.468  93.627 120.368  0.00  0.00     0.028 C 
ATOM     12  C   LIG d   1      -5.345  94.670 120.484  0.00  0.00     0.006 C 
ENDBRANCH   8  11
ENDBRANCH   7   8
ENDBRANCH   1   7
BRANCH   6  13
ATOM     13  N   LIG d   1      -3.419  93.447 117.460  0.00  0.00    -0.311 N 
ATOM     14  C   LIG d   1      -2.475  93.384 118.398  0.00  0.00     0.210 C 
ATOM     15  C   LIG d   1      -1.356  94.421 118.259  0.00  0.00     0.109 C 
ATOM     16  O   LIG d   1      -2.442  92.547 119.313  0.00  0.00    -0.276 OA
ATOM     17  H   LIG d   1      -3.350  94.135 116.737  0.00  0.00     0.149 HD
ENDBRANCH   6  13
BRANCH   5  18
ATOM     18  N   LIG d   1      -3.291  90.423 117.042  0.00  0.00     0.381 N 
ATOM     19  H   LIG d   1      -3.599  89.471 117.032  0.00  0.00    -0.090 HD
ATOM     20  H   LIG d   1      -3.083  90.677 117.991  0.00  0.00    -0.090 HD
ATOM     21  H   LIG d   1      -2.476  90.521 116.478  0.00  0.00    -0.090 HD
ENDBRANCH   5  18
BRANCH   3  22
ATOM     22  C   LIG d   1      -7.810  90.598 115.464  0.00  0.00     0.382 C 
ATOM     23  O   LIG d   1      -8.294  91.120 114.431  0.00  0.00    -0.241 OA
ATOM     24  O   LIG d   1      -8.291  89.535 115.898  0.00  0.00    -0.241 OA
ENDBRANCH   3  22
TORSDOF 7
ENDMDL
MODEL 5
REMARK VINA RESULT:      -5.0      2.127      4.510
REMARK  7 active torsions:
REMARK  status: ('A' for Active; 'I' for Inactive)
REMARK    1  A    between atoms: C_2  and  C_3 
REMARK    2  A    between atoms: C_3  and  O_6 
REMARK    3  A    between atoms: C_3  and  C_4 
REMARK    4  A    between atoms: C_7  and  O_6 
REMARK    5  A    between atoms: C_9  and  C_10 
REMARK    6  A    between atoms: N_15  and  C_14 
REMARK    7  A    between atoms: N_20  and  C_19 
REMARK       I    between atoms: C_22  and  N_20 
ROOT
ATOM      1  C   LIG d   1      -4.990  92.765 117.704  0.00  0.00     0.161 C 
ATOM      2  C   LIG d   1      -5.059  91.752 116.733  0.00  0.00     0.016 C 
ATOM      3  C   LIG d   1      -6.175  91.561 115.886  0.00  0.00     0.038 C 
ATOM      4  C   LIG d   1      -7.243  92.470 115.850  0.00  0.00     0.028 C 
ATOM      5  C   LIG d   1      -7.446  93.219 117.163  0.00  0.00    -0.047 C 
ATOM      6  C   LIG d   1      -6.098  93.834 117.604  0.00  0.00     0.091 C 
ENDROOT
BRANCH   1   7
ATOM      7  O   LIG d   1      -3.690  93.386 117.671  0.00  0.00    -0.368 OA
BRANCH   7   8
ATOM      8  C   LIG d   1      -2.796  93.051 118.761  0.00  0.00     0.119 C 
BRANCH   8   9
ATOM      9  C   LIG d   1      -2.188  94.367 119.282  0.00  0.00     0.028 C 
ATOM     10  C   LIG d   1      -2.780  95.603 118.585  0.00  0.00     0.006 C 
ENDBRANCH   8   9
BRANCH   8  11
ATOM     11  C   LIG d   1      -1.605  92.221 118.270  0.00  0.00     0.028 C 
ATOM     12  C   LIG d   1      -1.806  90.711 118.477  0.00  0.00     0.006 C 
ENDBRANCH   8  11
ENDBRANCH   7   8
ENDBRANCH   1   7
BRANCH   6  13
ATOM     13  N   LIG d   1      -6.189  94.513 118.923  0.00  0.00    -0.311 N 
ATOM     14  C   LIG d   1      -6.517  95.796 119.066  0.00  0.00     0.210 C 
ATOM     15  C   LIG d   1      -6.533  96.302 120.511  0.00  0.00     0.109 C 
ATOM     16  O   LIG d   1      -6.826  96.555 118.135  0.00  0.00    -0.276 OA
ATOM     17  H   LIG d   1      -5.984  93.963 119.734  0.00  0.00     0.149 HD
ENDBRANCH   6  13
BRANCH   5  18
ATOM     18  N   LIG d   1      -8.498  94.229 116.942  0.00  0.00     0.381 N 
ATOM     19  H   LIG d   1      -9.398  93.791 116.966  0.00  0.00    -0.090 HD
ATOM     20  H   LIG d   1      -8.370  94.638 116.033  0.00  0.00    -0.090 HD
ATOM     21  H   LIG d   1      -8.445  94.935 117.643  0.00  0.00    -0.090 HD
ENDBRANCH   5  18
BRANCH   3  22
ATOM     22  C   LIG d   1      -6.248  90.428 115.091  0.00  0.00     0.382 C 
ATOM     23  O   LIG d   1      -5.258  89.663 114.997  0.00  0.00    -0.241 OA
ATOM     24  O   LIG d   1      -7.276  90.183 114.432  0.00  0.00    -0.241 OA
ENDBRANCH   3  22
TORSDOF 7
ENDMDL
MODEL 6
REMARK VINA RESULT:      -5.0      2.287      4.723
REMARK  7 active torsions:
REMARK  status: ('A' for Active; 'I' for Inactive)
REMARK    1  A    between atoms: C_2  and  C_3 
REMARK    2  A    between atoms: C_3  and  O_6 
REMARK    3  A    between atoms: C_3  and  C_4 
REMARK    4  A    between atoms: C_7  and  O_6 
REMARK    5  A    between atoms: C_9  and  C_10 
REMARK    6  A    between atoms: N_15  and  C_14 
REMARK    7  A    between atoms: N_20  and  C_19 
REMARK       I    between atoms: C_22  and  N_20 
ROOT
ATOM      1  C   LIG d   1      -4.982  92.699 117.674  0.00  0.00     0.161 C 
ATOM      2  C   LIG d   1      -5.059  91.687 116.703  0.00  0.00     0.016 C 
ATOM      3  C   LIG d   1      -6.178  91.503 115.858  0.00  0.00     0.038 C 
ATOM      4  C   LIG d   1      -7.240  92.419 115.825  0.00  0.00     0.028 C 
ATOM      5  C   LIG d   1      -7.436  93.168 117.139  0.00  0.00    -0.047 C 
ATOM      6  C   LIG d   1      -6.084  93.775 117.577  0.00  0.00     0.091 C 
ENDROOT
BRANCH   1   7
ATOM      7  O   LIG d   1      -3.678  93.312 117.638  0.00  0.00    -0.368 OA
BRANCH   7   8
ATOM      8  C   LIG d   1      -2.597  92.547 118.225  0.00  0.00     0.119 C 
BRANCH   8   9
ATOM      9  C   LIG d   1      -2.928  92.347 119.717  0.00  0.00     0.028 C 
ATOM     10  C   LIG d   1      -1.915  91.432 120.425  0.00  0.00     0.006 C 
ENDBRANCH   8   9
BRANCH   8  11
ATOM     11  C   LIG d   1      -1.282  93.332 118.204  0.00  0.00     0.028 C 
ATOM     12  C   LIG d   1      -1.475  94.825 118.516  0.00  0.00     0.006 C 
ENDBRANCH   8  11
ENDBRANCH   7   8
ENDBRANCH   1   7
BRANCH   6  13
ATOM     13  N   LIG d   1      -6.168  94.454 118.896  0.00  0.00    -0.311 N 
ATOM     14  C   LIG d   1      -6.471  95.742 119.040  0.00  0.00     0.210 C 
ATOM     15  C   LIG d   1      -6.484  96.247 120.486  0.00  0.00     0.109 C 
ATOM     16  O   LIG d   1      -6.763  96.508 118.109  0.00  0.00    -0.276 OA
ATOM     17  H   LIG d   1      -5.976  93.899 119.708  0.00  0.00     0.149 HD
ENDBRANCH   6  13
BRANCH   5  18
ATOM     18  N   LIG d   1      -8.483  94.184 116.922  0.00  0.00     0.381 N 
ATOM     19  H   LIG d   1      -8.330  94.963 117.530  0.00  0.00    -0.090 HD
ATOM     20  H   LIG d   1      -9.377  93.782 117.142  0.00  0.00    -0.090 HD
ATOM     21  H   LIG d   1      -8.472  94.487 115.973  0.00  0.00    -0.090 HD
ENDBRANCH   5  18
BRANCH   3  22
ATOM     22  C   LIG d   1      -6.260  90.371 115.063  0.00  0.00     0.382 C 
ATOM     23  O   LIG d   1      -7.329  90.100 114.465  0.00  0.00    -0.241 OA
ATOM     24  O   LIG d   1      -5.292  89.592 114.970  0.00  0.00    -0.241 OA
ENDBRANCH   3  22
TORSDOF 7
ENDMDL
MODEL 7
REMARK VINA RESULT:      -4.9      2.150      5.111
REMARK  7 active torsions:
REMARK  status: ('A' for Active; 'I' for Inactive)
REMARK    1  A    between atoms: C_2  and  C_3 
REMARK    2  A    between atoms: C_3  and  O_6 
REMARK    3  A    between atoms: C_3  and  C_4 
REMARK    4  A    between atoms: C_7  and  O_6 
REMARK    5  A    between atoms: C_9  and  C_10 
REMARK    6  A    between atoms: N_15  and  C_14 
REMARK    7  A    between atoms: N_20  and  C_19 
REMARK       I    between atoms: C_22  and  N_20 
ROOT
ATOM      1  C   LIG d   1      -5.498  93.237 117.877  0.00  0.00     0.161 C 
ATOM      2  C   LIG d   1      -6.766  93.799 117.654  0.00  0.00     0.016 C 
ATOM      3  C   LIG d   1      -7.125  95.100 118.073  0.00  0.00     0.038 C 
ATOM      4  C   LIG d   1      -6.186  95.991 118.614  0.00  0.00     0.028 C 
ATOM      5  C   LIG d   1      -5.027  95.295 119.318  0.00  0.00    -0.047 C 
ATOM      6  C   LIG d   1      -4.426  94.234 118.366  0.00  0.00     0.091 C 
ENDROOT
BRANCH   1   7
ATOM      7  O   LIG d   1      -5.046  92.561 116.687  0.00  0.00    -0.368 OA
BRANCH   7   8
ATOM      8  C   LIG d   1      -5.244  91.126 116.655  0.00  0.00     0.119 C 
BRANCH   8   9
ATOM      9  C   LIG d   1      -3.867  90.465 116.861  0.00  0.00     0.028 C 
ATOM     10  C   LIG d   1      -3.696  89.894 118.278  0.00  0.00     0.006 C 
ENDBRANCH   8   9
BRANCH   8  11
ATOM     11  C   LIG d   1      -5.716  90.659 115.275  0.00  0.00     0.028 C 
ATOM     12  C   LIG d   1      -6.628  91.682 114.580  0.00  0.00     0.006 C 
ENDBRANCH   8  11
ENDBRANCH   7   8
ENDBRANCH   1   7
BRANCH   6  13
ATOM     13  N   LIG d   1      -3.340  93.448 119.007  0.00  0.00    -0.311 N 
ATOM     14  C   LIG d   1      -2.080  93.452 118.576  0.00  0.00     0.210 C 
ATOM     15  C   LIG d   1      -1.123  92.555 119.368  0.00  0.00     0.109 C 
ATOM     16  O   LIG d   1      -1.657  94.137 117.633  0.00  0.00    -0.276 OA
ATOM     17  H   LIG d   1      -3.588  92.888 119.799  0.00  0.00     0.149 HD
ENDBRANCH   6  13
BRANCH   5  18
ATOM     18  N   LIG d   1      -4.056  96.333 119.712  0.00  0.00     0.381 N 
ATOM     19  H   LIG d   1      -3.336  96.404 119.021  0.00  0.00    -0.090 HD
ATOM     20  H   LIG d   1      -3.632  96.068 120.583  0.00  0.00    -0.090 HD
ATOM     21  H   LIG d   1      -4.517  97.210 119.812  0.00  0.00    -0.090 HD
ENDBRANCH   5  18
BRANCH   3  22
ATOM     22  C   LIG d   1      -8.448  95.509 117.988  0.00  0.00     0.382 C 
ATOM     23  O   LIG d   1      -9.319  94.723 117.544  0.00  0.00    -0.241 OA
ATOM     24  O   LIG d   1      -8.773  96.668 118.309  0.00  0.00    -0.241 OA
ENDBRANCH   3  22
TORSDOF 7
ENDMDL
MODEL 8
REMARK VINA RESULT:      -4.8      2.452      6.489
REMARK  7 active torsions:
REMARK  status: ('A' for Active; 'I' for Inactive)
REMARK    1  A    between atoms: C_2  and  C_3 
REMARK    2  A    between atoms: C_3  and  O_6 
REMARK    3  A    between atoms: C_3  and  C_4 
REMARK    4  A    between atoms: C_7  and  O_6 
REMARK    5  A    between atoms: C_9  and  C_10 
REMARK    6  A    between atoms: N_15  and  C_14 
REMARK    7  A    between atoms: N_20  and  C_19 
REMARK       I    between atoms: C_22  and  N_20 
ROOT
ATOM      1  C   LIG d   1      -4.979  93.340 117.755  0.00  0.00     0.161 C 
ATOM      2  C   LIG d   1      -4.737  94.398 118.648  0.00  0.00     0.016 C 
ATOM      3  C   LIG d   1      -5.693  95.394 118.953  0.00  0.00     0.038 C 
ATOM      4  C   LIG d   1      -7.018  95.314 118.498  0.00  0.00     0.028 C 
ATOM      5  C   LIG d   1      -7.164  94.541 117.191  0.00  0.00    -0.047 C 
ATOM      6  C   LIG d   1      -6.455  93.174 117.335  0.00  0.00     0.091 C 
ENDROOT
BRANCH   1   7
ATOM      7  O   LIG d   1      -4.474  92.109 118.307  0.00  0.00    -0.368 OA
BRANCH   7   8
ATOM      8  C   LIG d   1      -3.300  91.556 117.664  0.00  0.00     0.119 C 
BRANCH   8   9
ATOM      9  C   LIG d   1      -3.612  90.089 117.312  0.00  0.00     0.028 C 
ATOM     10  C   LIG d   1      -3.056  89.104 118.355  0.00  0.00     0.006 C 
ENDBRANCH   8   9
BRANCH   8  11
ATOM     11  C   LIG d   1      -2.111  91.498 118.628  0.00  0.00     0.028 C 
ATOM     12  C   LIG d   1      -1.146  92.681 118.457  0.00  0.00     0.006 C 
ENDBRANCH   8  11
ENDBRANCH   7   8
ENDBRANCH   1   7
BRANCH   6  13
ATOM     13  N   LIG d   1      -6.478  92.389 116.073  0.00  0.00    -0.311 N 
ATOM     14  C   LIG d   1      -7.025  91.179 115.973  0.00  0.00     0.210 C 
ATOM     15  C   LIG d   1      -6.922  90.535 114.587  0.00  0.00     0.109 C 
ATOM     16  O   LIG d   1      -7.615  90.591 116.892  0.00  0.00    -0.276 OA
ATOM     17  H   LIG d   1      -6.049  92.804 115.270  0.00  0.00     0.149 HD
ENDBRANCH   6  13
BRANCH   5  18
ATOM     18  N   LIG d   1      -8.606  94.417 116.906  0.00  0.00     0.381 N 
ATOM     19  H   LIG d   1      -9.132  94.912 117.598  0.00  0.00    -0.090 HD
ATOM     20  H   LIG d   1      -8.863  93.446 116.948  0.00  0.00    -0.090 HD
ATOM     21  H   LIG d   1      -8.807  94.782 116.001  0.00  0.00    -0.090 HD
ENDBRANCH   5  18
BRANCH   3  22
ATOM     22  C   LIG d   1      -5.316  96.506 119.689  0.00  0.00     0.382 C 
ATOM     23  O   LIG d   1      -5.812  96.704 120.824  0.00  0.00    -0.241 OA
ATOM     24  O   LIG d   1      -4.519  97.337 119.215  0.00  0.00    -0.241 OA
ENDBRANCH   3  22
TORSDOF 7
ENDMDL
MODEL 9
REMARK VINA RESULT:      -4.7      2.190      4.968
REMARK  7 active torsions:
REMARK  status: ('A' for Active; 'I' for Inactive)
REMARK    1  A    between atoms: C_2  and  C_3 
REMARK    2  A    between atoms: C_3  and  O_6 
REMARK    3  A    between atoms: C_3  and  C_4 
REMARK    4  A    between atoms: C_7  and  O_6 
REMARK    5  A    between atoms: C_9  and  C_10 
REMARK    6  A    between atoms: N_15  and  C_14 
REMARK    7  A    between atoms: N_20  and  C_19 
REMARK       I    between atoms: C_22  and  N_20 
ROOT
ATOM      1  C   LIG d   1      -5.699  92.051 118.865  0.00  0.00     0.161 C 
ATOM      2  C   LIG d   1      -6.999  92.480 118.548  0.00  0.00     0.016 C 
ATOM      3  C   LIG d   1      -7.329  93.829 118.281  0.00  0.00     0.038 C 
ATOM      4  C   LIG d   1      -6.347  94.823 118.163  0.00  0.00     0.028 C 
ATOM      5  C   LIG d   1      -5.087  94.529 118.971  0.00  0.00    -0.047 C 
ATOM      6  C   LIG d   1      -4.595  93.103 118.632  0.00  0.00     0.091 C 
ENDROOT
BRANCH   1   7
ATOM      7  O   LIG d   1      -5.396  90.839 118.145  0.00  0.00    -0.368 OA
BRANCH   7   8
ATOM      8  C   LIG d   1      -4.691  91.003 116.890  0.00  0.00     0.119 C 
BRANCH   8   9
ATOM      9  C   LIG d   1      -5.638  90.545 115.764  0.00  0.00     0.028 C 
ATOM     10  C   LIG d   1      -6.329  91.726 115.062  0.00  0.00     0.006 C 
ENDBRANCH   8   9
BRANCH   8  11
ATOM     11  C   LIG d   1      -3.479  90.070 116.806  0.00  0.00     0.028 C 
ATOM     12  C   LIG d   1      -3.193  89.345 118.131  0.00  0.00     0.006 C 
ENDBRANCH   8  11
ENDBRANCH   7   8
ENDBRANCH   1   7
BRANCH   6  13
ATOM     13  N   LIG d   1      -3.415  92.704 119.442  0.00  0.00    -0.311 N 
ATOM     14  C   LIG d   1      -2.158  92.852 119.027  0.00  0.00     0.210 C 
ATOM     15  C   LIG d   1      -1.091  92.356 120.009  0.00  0.00     0.109 C 
ATOM     16  O   LIG d   1      -1.824  93.377 117.954  0.00  0.00    -0.276 OA
ATOM     17  H   LIG d   1      -3.594  92.298 120.339  0.00  0.00     0.149 HD
ENDBRANCH   6  13
BRANCH   5  18
ATOM     18  N   LIG d   1      -4.097  95.574 118.648  0.00  0.00     0.381 N 
ATOM     19  H   LIG d   1      -4.413  96.458 118.994  0.00  0.00    -0.090 HD
ATOM     20  H   LIG d   1      -4.006  95.639 117.650  0.00  0.00    -0.090 HD
ATOM     21  H   LIG d   1      -3.216  95.346 119.055  0.00  0.00    -0.090 HD
ENDBRANCH   5  18
BRANCH   3  22
ATOM     22  C   LIG d   1      -8.660  94.201 118.168  0.00  0.00     0.382 C 
ATOM     23  O   LIG d   1      -9.101  94.626 117.073  0.00  0.00    -0.241 OA
ATOM     24  O   LIG d   1      -9.414  94.159 119.158  0.00  0.00    -0.241 OA
ENDBRANCH   3  22
TORSDOF 7
ENDMDL
