MODEL 1
REMARK VINA RESULT:      -5.9      0.000      0.000
REMARK  7 active torsions:
REMARK  status: ('A' for Active; 'I' for Inactive)
REMARK    1  A    between atoms: C_2  and  C_3 
REMARK    2  A    between atoms: C_3  and  O_6 
REMARK    3  A    between atoms: C_3  and  C_4 
REMARK    4  A    between atoms: C_7  and  O_6 
REMARK    5  A    between atoms: C_9  and  C_10 
REMARK    6  A    between atoms: N_15  and  C_14 
REMARK    7  A    between atoms: N_20  and  C_19 
REMARK       I    between atoms: C_22  and  N_20 
ROOT
ATOM      1  C   LIG d   1      -4.668  91.035 116.765  0.00  0.00     0.161 C 
ATOM      2  C   LIG d   1      -3.480  90.287 116.697  0.00  0.00     0.016 C 
ATOM      3  C   LIG d   1      -2.325  90.591 117.454  0.00  0.00     0.038 C 
ATOM      4  C   LIG d   1      -2.330  91.579 118.450  0.00  0.00     0.028 C 
ATOM      5  C   LIG d   1      -3.347  92.687 118.198  0.00  0.00    -0.047 C 
ATOM      6  C   LIG d   1      -4.728  92.048 117.927  0.00  0.00     0.091 C 
ENDROOT
BRANCH   1   7
ATOM      7  O   LIG d   1      -5.802  90.146 116.816  0.00  0.00    -0.368 OA
BRANCH   7   8
ATOM      8  C   LIG d   1      -6.562  90.013 115.590  0.00  0.00     0.119 C 
BRANCH   8   9
ATOM      9  C   LIG d   1      -6.124  91.151 114.647  0.00  0.00     0.028 C 
ATOM     10  C   LIG d   1      -7.234  92.192 114.430  0.00  0.00     0.006 C 
ENDBRANCH   8   9
BRANCH   8  11
ATOM     11  C   LIG d   1      -8.057  90.240 115.833  0.00  0.00     0.028 C 
ATOM     12  C   LIG d   1      -8.752  89.017 116.453  0.00  0.00     0.006 C 
ENDBRANCH   8  11
ENDBRANCH   7   8
ENDBRANCH   1   7
BRANCH   6  13
ATOM     13  N   LIG d   1      -5.763  93.059 117.588  0.00  0.00    -0.311 N 
ATOM     14  C   LIG d   1      -6.651  93.522 118.467  0.00  0.00     0.210 C 
ATOM     15  C   LIG d   1      -7.643  94.545 117.905  0.00  0.00     0.109 C 
ATOM     16  O   LIG d   1      -6.690  93.207 119.666  0.00  0.00    -0.276 OA
ATOM     17  H   LIG d   1      -5.783  93.393 116.645  0.00  0.00     0.149 HD
ENDBRANCH   6  13
BRANCH   5  18
ATOM     18  N   LIG d   1      -3.341  93.573 119.378  0.00  0.00     0.381 N 
ATOM     19  H   LIG d   1      -4.280  93.816 119.624  0.00  0.00    -0.090 HD
ATOM     20  H   LIG d   1      -2.847  94.417 119.148  0.00  0.00    -0.090 HD
ATOM     21  H   LIG d   1      -2.896  93.118 120.144  0.00  0.00    -0.090 HD
ENDBRANCH   5  18
BRANCH   3  22
ATOM     22  C   LIG d   1      -1.136  89.927 117.190  0.00  0.00     0.382 C 
ATOM     23  O   LIG d   1      -0.117  90.577 116.854  0.00  0.00    -0.241 OA
ATOM     24  O   LIG d   1      -1.082  88.684 117.241  0.00  0.00    -0.241 OA
ENDBRANCH   3  22
TORSDOF 7
ENDMDL
MODEL 2
REMARK VINA RESULT:      -5.6      2.408      6.177
REMARK  7 active torsions:
REMARK  status: ('A' for Active; 'I' for Inactive)
REMARK    1  A    between atoms: C_2  and  C_3 
REMARK    2  A    between atoms: C_3  and  O_6 
REMARK    3  A    between atoms: C_3  and  C_4 
REMARK    4  A    between atoms: C_7  and  O_6 
REMARK    5  A    between atoms: C_9  and  C_10 
REMARK    6  A    between atoms: N_15  and  C_14 
REMARK    7  A    between atoms: N_20  and  C_19 
REMARK       I    between atoms: C_22  and  N_20 
ROOT
ATOM      1  C   LIG d   1      -4.125  91.731 117.452  0.00  0.00     0.161 C 
ATOM      2  C   LIG d   1      -5.379  92.333 117.257  0.00  0.00     0.016 C 
ATOM      3  C   LIG d   1      -6.322  91.877 116.307  0.00  0.00     0.038 C 
ATOM      4  C   LIG d   1      -6.134  90.687 115.588  0.00  0.00     0.028 C 
ATOM      5  C   LIG d   1      -4.666  90.327 115.387  0.00  0.00    -0.047 C 
ATOM      6  C   LIG d   1      -3.947  90.366 116.755  0.00  0.00     0.091 C 
ENDROOT
BRANCH   1   7
ATOM      7  O   LIG d   1      -3.854  91.613 118.863  0.00  0.00    -0.368 OA
BRANCH   7   8
ATOM      8  C   LIG d   1      -2.767  92.423 119.373  0.00  0.00     0.119 C 
BRANCH   8   9
ATOM      9  C   LIG d   1      -3.374  93.451 120.348  0.00  0.00     0.028 C 
ATOM     10  C   LIG d   1      -3.772  94.760 119.647  0.00  0.00     0.006 C 
ENDBRANCH   8   9
BRANCH   8  11
ATOM     11  C   LIG d   1      -2.120  93.253 118.260  0.00  0.00     0.028 C 
ATOM     12  C   LIG d   1      -0.627  92.939 118.074  0.00  0.00     0.006 C 
ENDBRANCH   8  11
ENDBRANCH   7   8
ENDBRANCH   1   7
BRANCH   6  13
ATOM     13  N   LIG d   1      -2.489  90.107 116.637  0.00  0.00    -0.311 N 
ATOM     14  C   LIG d   1      -1.832  89.243 117.409  0.00  0.00     0.210 C 
ATOM     15  C   LIG d   1      -0.329  89.143 117.135  0.00  0.00     0.109 C 
ATOM     16  O   LIG d   1      -2.359  88.526 118.274  0.00  0.00    -0.276 OA
ATOM     17  H   LIG d   1      -1.989  90.623 115.940  0.00  0.00     0.149 HD
ENDBRANCH   6  13
BRANCH   5  18
ATOM     18  N   LIG d   1      -4.617  88.999 114.746  0.00  0.00     0.381 N 
ATOM     19  H   LIG d   1      -3.716  88.854 114.336  0.00  0.00    -0.090 HD
ATOM     20  H   LIG d   1      -5.305  88.966 114.015  0.00  0.00    -0.090 HD
ATOM     21  H   LIG d   1      -4.802  88.288 115.419  0.00  0.00    -0.090 HD
ENDBRANCH   5  18
BRANCH   3  22
ATOM     22  C   LIG d   1      -7.450  92.637 116.040  0.00  0.00     0.382 C 
ATOM     23  O   LIG d   1      -8.130  92.409 115.011  0.00  0.00    -0.241 OA
ATOM     24  O   LIG d   1      -7.772  93.576 116.792  0.00  0.00    -0.241 OA
ENDBRANCH   3  22
TORSDOF 7
ENDMDL
MODEL 3
REMARK VINA RESULT:      -5.5      2.589      4.972
REMARK  7 active torsions:
REMARK  status: ('A' for Active; 'I' for Inactive)
REMARK    1  A    between atoms: C_2  and  C_3 
REMARK    2  A    between atoms: C_3  and  O_6 
REMARK    3  A    between atoms: C_3  and  C_4 
REMARK    4  A    between atoms: C_7  and  O_6 
REMARK    5  A    between atoms: C_9  and  C_10 
REMARK    6  A    between atoms: N_15  and  C_14 
REMARK    7  A    between atoms: N_20  and  C_19 
REMARK       I    between atoms: C_22  and  N_20 
ROOT
ATOM      1  C   LIG d   1      -6.411  92.543 118.228  0.00  0.00     0.161 C 
ATOM      2  C   LIG d   1      -5.250  93.255 118.569  0.00  0.00     0.016 C 
ATOM      3  C   LIG d   1      -3.962  92.916 118.094  0.00  0.00     0.038 C 
ATOM      4  C   LIG d   1      -3.767  91.927 117.119  0.00  0.00     0.028 C 
ATOM      5  C   LIG d   1      -4.847  90.849 117.126  0.00  0.00    -0.047 C 
ATOM      6  C   LIG d   1      -6.234  91.529 117.078  0.00  0.00     0.091 C 
ENDROOT
BRANCH   1   7
ATOM      7  O   LIG d   1      -7.478  93.463 117.924  0.00  0.00    -0.368 OA
BRANCH   7   8
ATOM      8  C   LIG d   1      -7.514  94.679 118.711  0.00  0.00     0.119 C 
BRANCH   8   9
ATOM      9  C   LIG d   1      -8.373  94.396 119.959  0.00  0.00     0.028 C 
ATOM     10  C   LIG d   1      -7.625  94.701 121.268  0.00  0.00     0.006 C 
ENDBRANCH   8   9
BRANCH   8  11
ATOM     11  C   LIG d   1      -8.239  95.804 117.967  0.00  0.00     0.028 C 
ATOM     12  C   LIG d   1      -7.667  97.194 118.286  0.00  0.00     0.006 C 
ENDBRANCH   8  11
ENDBRANCH   7   8
ENDBRANCH   1   7
BRANCH   6  13
ATOM     13  N   LIG d   1      -7.348  90.549 117.166  0.00  0.00    -0.311 N 
ATOM     14  C   LIG d   1      -7.811  89.869 116.119  0.00  0.00     0.210 C 
ATOM     15  C   LIG d   1      -8.978  88.925 116.425  0.00  0.00     0.109 C 
ATOM     16  O   LIG d   1      -7.346  89.934 114.971  0.00  0.00    -0.276 OA
ATOM     17  H   LIG d   1      -7.764  90.411 118.067  0.00  0.00     0.149 HD
ENDBRANCH   6  13
BRANCH   5  18
ATOM     18  N   LIG d   1      -4.597  89.962 115.975  0.00  0.00     0.381 N 
ATOM     19  H   LIG d   1      -5.260  89.212 115.975  0.00  0.00    -0.090 HD
ATOM     20  H   LIG d   1      -3.677  89.568 116.061  0.00  0.00    -0.090 HD
ATOM     21  H   LIG d   1      -4.668  90.477 115.125  0.00  0.00    -0.090 HD
ENDBRANCH   5  18
BRANCH   3  22
ATOM     22  C   LIG d   1      -2.846  93.545 118.626  0.00  0.00     0.382 C 
ATOM     23  O   LIG d   1      -2.691  93.601 119.870  0.00  0.00    -0.241 OA
ATOM     24  O   LIG d   1      -2.015  94.096 117.879  0.00  0.00    -0.241 OA
ENDBRANCH   3  22
TORSDOF 7
ENDMDL
MODEL 4
REMARK VINA RESULT:      -5.4      2.453      4.894
REMARK  7 active torsions:
REMARK  status: ('A' for Active; 'I' for Inactive)
REMARK    1  A    between atoms: C_2  and  C_3 
REMARK    2  A    between atoms: C_3  and  O_6 
REMARK    3  A    between atoms: C_3  and  C_4 
REMARK    4  A    between atoms: C_7  and  O_6 
REMARK    5  A    between atoms: C_9  and  C_10 
REMARK    6  A    between atoms: N_15  and  C_14 
REMARK    7  A    between atoms: N_20  and  C_19 
REMARK       I    between atoms: C_22  and  N_20 
ROOT
ATOM      1  C   LIG d   1      -6.402  92.937 118.026  0.00  0.00     0.161 C 
ATOM      2  C   LIG d   1      -7.008  91.870 117.342  0.00  0.00     0.016 C 
ATOM      3  C   LIG d   1      -6.278  90.848 116.692  0.00  0.00     0.038 C 
ATOM      4  C   LIG d   1      -4.885  90.742 116.810  0.00  0.00     0.028 C 
ATOM      5  C   LIG d   1      -4.195  92.078 117.067  0.00  0.00    -0.047 C 
ATOM      6  C   LIG d   1      -4.886  92.778 118.260  0.00  0.00     0.091 C 
ENDROOT
BRANCH   1   7
ATOM      7  O   LIG d   1      -7.081  93.165 119.276  0.00  0.00    -0.368 OA
BRANCH   7   8
ATOM      8  C   LIG d   1      -7.852  94.388 119.370  0.00  0.00     0.119 C 
BRANCH   8   9
ATOM      9  C   LIG d   1      -7.846  95.047 117.977  0.00  0.00     0.028 C 
ATOM     10  C   LIG d   1      -7.751  96.580 118.053  0.00  0.00     0.006 C 
ENDBRANCH   8   9
BRANCH   8  11
ATOM     11  C   LIG d   1      -7.177  95.401 120.300  0.00  0.00     0.028 C 
ATOM     12  C   LIG d   1      -6.435  94.734 121.469  0.00  0.00     0.006 C 
ENDBRANCH   8  11
ENDBRANCH   7   8
ENDBRANCH   1   7
BRANCH   6  13
ATOM     13  N   LIG d   1      -4.327  94.129 118.525  0.00  0.00    -0.311 N 
ATOM     14  C   LIG d   1      -3.360  94.362 119.411  0.00  0.00     0.210 C 
ATOM     15  C   LIG d   1      -2.944  95.830 119.543  0.00  0.00     0.109 C 
ATOM     16  O   LIG d   1      -2.785  93.487 120.076  0.00  0.00    -0.276 OA
ATOM     17  H   LIG d   1      -4.714  94.893 118.006  0.00  0.00     0.149 HD
ENDBRANCH   6  13
BRANCH   5  18
ATOM     18  N   LIG d   1      -2.766  91.803 117.307  0.00  0.00     0.381 N 
ATOM     19  H   LIG d   1      -2.579  91.815 118.289  0.00  0.00    -0.090 HD
ATOM     20  H   LIG d   1      -2.219  92.525 116.872  0.00  0.00    -0.090 HD
ATOM     21  H   LIG d   1      -2.521  90.915 116.926  0.00  0.00    -0.090 HD
ENDBRANCH   5  18
BRANCH   3  22
ATOM     22  C   LIG d   1      -6.941  89.941 115.879  0.00  0.00     0.382 C 
ATOM     23  O   LIG d   1      -7.882  89.253 116.344  0.00  0.00    -0.241 OA
ATOM     24  O   LIG d   1      -6.582  89.770 114.699  0.00  0.00    -0.241 OA
ENDBRANCH   3  22
TORSDOF 7
ENDMDL
MODEL 5
REMARK VINA RESULT:      -5.3      2.195      4.803
REMARK  7 active torsions:
REMARK  status: ('A' for Active; 'I' for Inactive)
REMARK    1  A    between atoms: C_2  and  C_3 
REMARK    2  A    between atoms: C_3  and  O_6 
REMARK    3  A    between atoms: C_3  and  C_4 
REMARK    4  A    between atoms: C_7  and  O_6 
REMARK    5  A    between atoms: C_9  and  C_10 
REMARK    6  A    between atoms: N_15  and  C_14 
REMARK    7  A    between atoms: N_20  and  C_19 
REMARK       I    between atoms: C_22  and  N_20 
ROOT
ATOM      1  C   LIG d   1      -4.970  91.771 118.513  0.00  0.00     0.161 C 
ATOM      2  C   LIG d   1      -4.950  90.922 117.394  0.00  0.00     0.016 C 
ATOM      3  C   LIG d   1      -5.793  91.095 116.272  0.00  0.00     0.038 C 
ATOM      4  C   LIG d   1      -6.613  92.224 116.127  0.00  0.00     0.028 C 
ATOM      5  C   LIG d   1      -7.036  92.840 117.456  0.00  0.00    -0.047 C 
ATOM      6  C   LIG d   1      -5.779  93.071 118.325  0.00  0.00     0.091 C 
ENDROOT
BRANCH   1   7
ATOM      7  O   LIG d   1      -3.621  92.074 118.920  0.00  0.00    -0.368 OA
BRANCH   7   8
ATOM      8  C   LIG d   1      -2.647  92.200 117.855  0.00  0.00     0.119 C 
BRANCH   8   9
ATOM      9  C   LIG d   1      -1.428  91.339 118.237  0.00  0.00     0.028 C 
ATOM     10  C   LIG d   1      -1.212  90.164 117.268  0.00  0.00     0.006 C 
ENDBRANCH   8   9
BRANCH   8  11
ATOM     11  C   LIG d   1      -2.116  93.633 117.753  0.00  0.00     0.028 C 
ATOM     12  C   LIG d   1      -2.501  94.499 118.962  0.00  0.00     0.006 C 
ENDBRANCH   8  11
ENDBRANCH   7   8
ENDBRANCH   1   7
BRANCH   6  13
ATOM     13  N   LIG d   1      -6.111  93.593 119.676  0.00  0.00    -0.311 N 
ATOM     14  C   LIG d   1      -6.130  94.891 119.976  0.00  0.00     0.210 C 
ATOM     15  C   LIG d   1      -6.479  95.213 121.433  0.00  0.00     0.109 C 
ATOM     16  O   LIG d   1      -5.923  95.807 119.167  0.00  0.00    -0.276 OA
ATOM     17  H   LIG d   1      -6.323  92.920 120.386  0.00  0.00     0.149 HD
ENDBRANCH   6  13
BRANCH   5  18
ATOM     18  N   LIG d   1      -7.770  94.084 117.158  0.00  0.00     0.381 N 
ATOM     19  H   LIG d   1      -7.780  94.674 117.966  0.00  0.00    -0.090 HD
ATOM     20  H   LIG d   1      -8.719  93.854 116.924  0.00  0.00    -0.090 HD
ATOM     21  H   LIG d   1      -7.338  94.560 116.396  0.00  0.00    -0.090 HD
ENDBRANCH   5  18
BRANCH   3  22
ATOM     22  C   LIG d   1      -5.851  90.110 115.297  0.00  0.00     0.382 C 
ATOM     23  O   LIG d   1      -6.931  89.880 114.701  0.00  0.00    -0.241 OA
ATOM     24  O   LIG d   1      -4.848  89.419 115.038  0.00  0.00    -0.241 OA
ENDBRANCH   3  22
TORSDOF 7
ENDMDL
MODEL 6
REMARK VINA RESULT:      -5.3      2.011      5.342
REMARK  7 active torsions:
REMARK  status: ('A' for Active; 'I' for Inactive)
REMARK    1  A    between atoms: C_2  and  C_3 
REMARK    2  A    between atoms: C_3  and  O_6 
REMARK    3  A    between atoms: C_3  and  C_4 
REMARK    4  A    between atoms: C_7  and  O_6 
REMARK    5  A    between atoms: C_9  and  C_10 
REMARK    6  A    between atoms: N_15  and  C_14 
REMARK    7  A    between atoms: N_20  and  C_19 
REMARK       I    between atoms: C_22  and  N_20 
ROOT
ATOM      1  C   LIG d   1      -4.382  91.041 117.603  0.00  0.00     0.161 C 
ATOM      2  C   LIG d   1      -5.379  90.468 116.796  0.00  0.00     0.016 C 
ATOM      3  C   LIG d   1      -6.602  91.111 116.496  0.00  0.00     0.038 C 
ATOM      4  C   LIG d   1      -6.849  92.443 116.863  0.00  0.00     0.028 C 
ATOM      5  C   LIG d   1      -6.082  92.881 118.105  0.00  0.00    -0.047 C 
ATOM      6  C   LIG d   1      -4.586  92.537 117.919  0.00  0.00     0.091 C 
ENDROOT
BRANCH   1   7
ATOM      7  O   LIG d   1      -3.088  90.827 117.005  0.00  0.00    -0.368 OA
BRANCH   7   8
ATOM      8  C   LIG d   1      -2.438  89.572 117.325  0.00  0.00     0.119 C 
BRANCH   8   9
ATOM      9  C   LIG d   1      -2.719  89.270 118.809  0.00  0.00     0.028 C 
ATOM     10  C   LIG d   1      -1.878  88.096 119.339  0.00  0.00     0.006 C 
ENDBRANCH   8   9
BRANCH   8  11
ATOM     11  C   LIG d   1      -0.915  89.690 117.216  0.00  0.00     0.028 C 
ATOM     12  C   LIG d   1      -0.405  91.111 117.508  0.00  0.00     0.006 C 
ENDBRANCH   8  11
ENDBRANCH   7   8
ENDBRANCH   1   7
BRANCH   6  13
ATOM     13  N   LIG d   1      -3.777  92.856 119.124  0.00  0.00    -0.311 N 
ATOM     14  C   LIG d   1      -2.699  93.638 119.097  0.00  0.00     0.210 C 
ATOM     15  C   LIG d   1      -1.999  93.821 120.448  0.00  0.00     0.109 C 
ATOM     16  O   LIG d   1      -2.275  94.223 118.090  0.00  0.00    -0.276 OA
ATOM     17  H   LIG d   1      -4.069  92.448 119.991  0.00  0.00     0.149 HD
ENDBRANCH   6  13
BRANCH   5  18
ATOM     18  N   LIG d   1      -6.324  94.324 118.293  0.00  0.00     0.381 N 
ATOM     19  H   LIG d   1      -7.289  94.530 118.128  0.00  0.00    -0.090 HD
ATOM     20  H   LIG d   1      -5.774  94.836 117.625  0.00  0.00    -0.090 HD
ATOM     21  H   LIG d   1      -6.073  94.595 119.218  0.00  0.00    -0.090 HD
ENDBRANCH   5  18
BRANCH   3  22
ATOM     22  C   LIG d   1      -7.611  90.407 115.857  0.00  0.00     0.382 C 
ATOM     23  O   LIG d   1      -8.310  90.969 114.980  0.00  0.00    -0.241 OA
ATOM     24  O   LIG d   1      -7.860  89.229 116.177  0.00  0.00    -0.241 OA
ENDBRANCH   3  22
TORSDOF 7
ENDMDL
MODEL 7
REMARK VINA RESULT:      -5.1      2.185      5.259
REMARK  7 active torsions:
REMARK  status: ('A' for Active; 'I' for Inactive)
REMARK    1  A    between atoms: C_2  and  C_3 
REMARK    2  A    between atoms: C_3  and  O_6 
REMARK    3  A    between atoms: C_3  and  C_4 
REMARK    4  A    between atoms: C_7  and  O_6 
REMARK    5  A    between atoms: C_9  and  C_10 
REMARK    6  A    between atoms: N_15  and  C_14 
REMARK    7  A    between atoms: N_20  and  C_19 
REMARK       I    between atoms: C_22  and  N_20 
ROOT
ATOM      1  C   LIG d   1      -5.402  92.775 117.410  0.00  0.00     0.161 C 
ATOM      2  C   LIG d   1      -6.547  92.072 117.003  0.00  0.00     0.016 C 
ATOM      3  C   LIG d   1      -6.507  90.767 116.459  0.00  0.00     0.038 C 
ATOM      4  C   LIG d   1      -5.324  90.014 116.426  0.00  0.00     0.028 C 
ATOM      5  C   LIG d   1      -4.063  90.870 116.359  0.00  0.00    -0.047 C 
ATOM      6  C   LIG d   1      -4.114  91.928 117.484  0.00  0.00     0.091 C 
ENDROOT
BRANCH   1   7
ATOM      7  O   LIG d   1      -5.649  93.422 118.674  0.00  0.00    -0.368 OA
BRANCH   7   8
ATOM      8  C   LIG d   1      -6.534  92.725 119.585  0.00  0.00     0.119 C 
BRANCH   8   9
ATOM      9  C   LIG d   1      -7.562  93.748 120.106  0.00  0.00     0.028 C 
ATOM     10  C   LIG d   1      -7.230  95.186 119.673  0.00  0.00     0.006 C 
ENDBRANCH   8   9
BRANCH   8  11
ATOM     11  C   LIG d   1      -5.784  92.235 120.827  0.00  0.00     0.028 C 
ATOM     12  C   LIG d   1      -4.449  92.967 121.043  0.00  0.00     0.006 C 
ENDBRANCH   8  11
ENDBRANCH   7   8
ENDBRANCH   1   7
BRANCH   6  13
ATOM     13  N   LIG d   1      -2.958  92.861 117.438  0.00  0.00    -0.311 N 
ATOM     14  C   LIG d   1      -1.869  92.715 118.190  0.00  0.00     0.210 C 
ATOM     15  C   LIG d   1      -0.804  93.800 118.001  0.00  0.00     0.109 C 
ATOM     16  O   LIG d   1      -1.669  91.773 118.972  0.00  0.00    -0.276 OA
ATOM     17  H   LIG d   1      -3.023  93.636 116.808  0.00  0.00     0.149 HD
ENDBRANCH   6  13
BRANCH   5  18
ATOM     18  N   LIG d   1      -2.904  89.964 116.468  0.00  0.00     0.381 N 
ATOM     19  H   LIG d   1      -3.217  89.037 116.674  0.00  0.00    -0.090 HD
ATOM     20  H   LIG d   1      -2.320  90.275 117.225  0.00  0.00    -0.090 HD
ATOM     21  H   LIG d   1      -2.387  89.967 115.617  0.00  0.00    -0.090 HD
ENDBRANCH   5  18
BRANCH   3  22
ATOM     22  C   LIG d   1      -7.653  90.218 115.905  0.00  0.00     0.382 C 
ATOM     23  O   LIG d   1      -8.298  90.856 115.038  0.00  0.00    -0.241 OA
ATOM     24  O   LIG d   1      -8.075  89.112 116.293  0.00  0.00    -0.241 OA
ENDBRANCH   3  22
TORSDOF 7
ENDMDL
MODEL 8
REMARK VINA RESULT:      -5.0      2.525      5.809
REMARK  7 active torsions:
REMARK  status: ('A' for Active; 'I' for Inactive)
REMARK    1  A    between atoms: C_2  and  C_3 
REMARK    2  A    between atoms: C_3  and  O_6 
REMARK    3  A    between atoms: C_3  and  C_4 
REMARK    4  A    between atoms: C_7  and  O_6 
REMARK    5  A    between atoms: C_9  and  C_10 
REMARK    6  A    between atoms: N_15  and  C_14 
REMARK    7  A    between atoms: N_20  and  C_19 
REMARK       I    between atoms: C_22  and  N_20 
ROOT
ATOM      1  C   LIG d   1      -5.617  93.449 118.770  0.00  0.00     0.161 C 
ATOM      2  C   LIG d   1      -5.600  94.257 119.919  0.00  0.00     0.016 C 
ATOM      3  C   LIG d   1      -6.622  95.182 120.235  0.00  0.00     0.038 C 
ATOM      4  C   LIG d   1      -7.813  95.252 119.497  0.00  0.00     0.028 C 
ATOM      5  C   LIG d   1      -7.652  94.814 118.045  0.00  0.00    -0.047 C 
ATOM      6  C   LIG d   1      -6.960  93.432 118.011  0.00  0.00     0.091 C 
ENDROOT
BRANCH   1   7
ATOM      7  O   LIG d   1      -5.217  92.107 119.111  0.00  0.00    -0.368 OA
BRANCH   7   8
ATOM      8  C   LIG d   1      -3.868  91.730 118.741  0.00  0.00     0.119 C 
BRANCH   8   9
ATOM      9  C   LIG d   1      -3.444  92.628 117.563  0.00  0.00     0.028 C 
ATOM     10  C   LIG d   1      -2.145  93.400 117.851  0.00  0.00     0.006 C 
ENDBRANCH   8   9
BRANCH   8  11
ATOM     11  C   LIG d   1      -3.819  90.299 118.198  0.00  0.00     0.028 C 
ATOM     12  C   LIG d   1      -3.581  90.245 116.680  0.00  0.00     0.006 C 
ENDBRANCH   8  11
ENDBRANCH   7   8
ENDBRANCH   1   7
BRANCH   6  13
ATOM     13  N   LIG d   1      -6.688  92.968 116.626  0.00  0.00    -0.311 N 
ATOM     14  C   LIG d   1      -6.967  91.738 116.197  0.00  0.00     0.210 C 
ATOM     15  C   LIG d   1      -6.587  91.460 114.739  0.00  0.00     0.109 C 
ATOM     16  O   LIG d   1      -7.521  90.861 116.876  0.00  0.00    -0.276 OA
ATOM     17  H   LIG d   1      -6.268  93.625 115.999  0.00  0.00     0.149 HD
ENDBRANCH   6  13
BRANCH   5  18
ATOM     18  N   LIG d   1      -8.993  94.805 117.430  0.00  0.00     0.381 N 
ATOM     19  H   LIG d   1      -9.374  95.730 117.436  0.00  0.00    -0.090 HD
ATOM     20  H   LIG d   1      -9.595  94.212 117.974  0.00  0.00    -0.090 HD
ATOM     21  H   LIG d   1      -8.937  94.467 116.495  0.00  0.00    -0.090 HD
ENDBRANCH   5  18
BRANCH   3  22
ATOM     22  C   LIG d   1      -6.441  96.077 121.279  0.00  0.00     0.382 C 
ATOM     23  O   LIG d   1      -5.350  96.106 121.897  0.00  0.00    -0.241 OA
ATOM     24  O   LIG d   1      -7.370  96.824 121.638  0.00  0.00    -0.241 OA
ENDBRANCH   3  22
TORSDOF 7
ENDMDL
MODEL 9
REMARK VINA RESULT:      -4.9      2.497      5.739
REMARK  7 active torsions:
REMARK  status: ('A' for Active; 'I' for Inactive)
REMARK    1  A    between atoms: C_2  and  C_3 
REMARK    2  A    between atoms: C_3  and  O_6 
REMARK    3  A    between atoms: C_3  and  C_4 
REMARK    4  A    between atoms: C_7  and  O_6 
REMARK    5  A    between atoms: C_9  and  C_10 
REMARK    6  A    between atoms: N_15  and  C_14 
REMARK    7  A    between atoms: N_20  and  C_19 
REMARK       I    between atoms: C_22  and  N_20 
ROOT
ATOM      1  C   LIG d   1      -3.688  92.286 117.827  0.00  0.00     0.161 C 
ATOM      2  C   LIG d   1      -4.784  92.250 116.948  0.00  0.00     0.016 C 
ATOM      3  C   LIG d   1      -5.068  91.153 116.104  0.00  0.00     0.038 C 
ATOM      4  C   LIG d   1      -4.358  89.946 116.191  0.00  0.00     0.028 C 
ATOM      5  C   LIG d   1      -2.932  90.119 116.704  0.00  0.00    -0.047 C 
ATOM      6  C   LIG d   1      -2.966  90.935 118.016  0.00  0.00     0.091 C 
ENDROOT
BRANCH   1   7
ATOM      7  O   LIG d   1      -4.101  92.816 119.102  0.00  0.00    -0.368 OA
BRANCH   7   8
ATOM      8  C   LIG d   1      -3.417  94.013 119.546  0.00  0.00     0.119 C 
BRANCH   8   9
ATOM      9  C   LIG d   1      -4.490  95.083 119.827  0.00  0.00     0.028 C 
ATOM     10  C   LIG d   1      -5.918  94.521 119.729  0.00  0.00     0.006 C 
ENDBRANCH   8   9
BRANCH   8  11
ATOM     11  C   LIG d   1      -2.540  94.599 118.435  0.00  0.00     0.028 C 
ATOM     12  C   LIG d   1      -1.089  94.834 118.883  0.00  0.00     0.006 C 
ENDBRANCH   8  11
ENDBRANCH   7   8
ENDBRANCH   1   7
BRANCH   6  13
ATOM     13  N   LIG d   1      -1.606  91.222 118.541  0.00  0.00    -0.311 N 
ATOM     14  C   LIG d   1      -1.234  90.964 119.793  0.00  0.00     0.210 C 
ATOM     15  C   LIG d   1       0.208  91.356 120.134  0.00  0.00     0.109 C 
ATOM     16  O   LIG d   1      -1.951  90.419 120.646  0.00  0.00    -0.276 OA
ATOM     17  H   LIG d   1      -0.950  91.636 117.907  0.00  0.00     0.149 HD
ENDBRANCH   6  13
BRANCH   5  18
ATOM     18  N   LIG d   1      -2.354  88.773 116.875  0.00  0.00     0.381 N 
ATOM     19  H   LIG d   1      -3.049  88.149 117.233  0.00  0.00    -0.090 HD
ATOM     20  H   LIG d   1      -1.603  88.824 117.541  0.00  0.00    -0.090 HD
ATOM     21  H   LIG d   1      -2.011  88.435 116.003  0.00  0.00    -0.090 HD
ENDBRANCH   5  18
BRANCH   3  22
ATOM     22  C   LIG d   1      -6.049  91.270 115.131  0.00  0.00     0.382 C 
ATOM     23  O   LIG d   1      -6.719  90.265 114.791  0.00  0.00    -0.241 OA
ATOM     24  O   LIG d   1      -6.243  92.359 114.558  0.00  0.00    -0.241 OA
ENDBRANCH   3  22
TORSDOF 7
ENDMDL
