MODEL 1
REMARK VINA RESULT:      -4.5      0.000      0.000
REMARK  7 active torsions:
REMARK  status: ('A' for Active; 'I' for Inactive)
REMARK    1  A    between atoms: C_2  and  C_3 
REMARK    2  A    between atoms: C_3  and  O_6 
REMARK    3  A    between atoms: C_3  and  C_4 
REMARK    4  A    between atoms: C_7  and  O_6 
REMARK    5  A    between atoms: C_9  and  C_10 
REMARK    6  A    between atoms: N_15  and  C_14 
REMARK    7  A    between atoms: N_20  and  C_19 
REMARK       I    between atoms: C_22  and  N_20 
ROOT
ATOM      1  C   LIG d   1       1.001  90.936 118.543  0.00  0.00     0.161 C 
ATOM      2  C   LIG d   1      -0.335  90.536 118.367  0.00  0.00     0.016 C 
ATOM      3  C   LIG d   1      -1.403  91.446 118.196  0.00  0.00     0.038 C 
ATOM      4  C   LIG d   1      -1.186  92.823 118.036  0.00  0.00     0.028 C 
ATOM      5  C   LIG d   1       0.090  93.317 118.710  0.00  0.00    -0.047 C 
ATOM      6  C   LIG d   1       1.272  92.428 118.260  0.00  0.00     0.091 C 
ENDROOT
BRANCH   1   7
ATOM      7  O   LIG d   1       1.867  90.109 117.741  0.00  0.00    -0.368 OA
BRANCH   7   8
ATOM      8  C   LIG d   1       2.039  90.515 116.361  0.00  0.00     0.119 C 
BRANCH   8   9
ATOM      9  C   LIG d   1       1.180  89.576 115.492  0.00  0.00     0.028 C 
ATOM     10  C   LIG d   1       2.019  88.796 114.465  0.00  0.00     0.006 C 
ENDBRANCH   8   9
BRANCH   8  11
ATOM     11  C   LIG d   1       3.480  90.298 115.891  0.00  0.00     0.028 C 
ATOM     12  C   LIG d   1       4.430  89.915 117.038  0.00  0.00     0.006 C 
ENDBRANCH   8  11
ENDBRANCH   7   8
ENDBRANCH   1   7
BRANCH   6  13
ATOM     13  N   LIG d   1       2.544  92.790 118.938  0.00  0.00    -0.311 N 
ATOM     14  C   LIG d   1       3.597  93.297 118.299  0.00  0.00     0.210 C 
ATOM     15  C   LIG d   1       4.815  93.581 119.183  0.00  0.00     0.109 C 
ATOM     16  O   LIG d   1       3.627  93.568 117.089  0.00  0.00    -0.276 OA
ATOM     17  H   LIG d   1       2.596  92.633 119.925  0.00  0.00     0.149 HD
ENDBRANCH   6  13
BRANCH   5  18
ATOM     18  N   LIG d   1       0.264  94.737 118.349  0.00  0.00     0.381 N 
ATOM     19  H   LIG d   1       0.472  94.815 117.373  0.00  0.00    -0.090 HD
ATOM     20  H   LIG d   1       1.039  95.112 118.867  0.00  0.00    -0.090 HD
ATOM     21  H   LIG d   1      -0.565  95.247 118.561  0.00  0.00    -0.090 HD
ENDBRANCH   5  18
BRANCH   3  22
ATOM     22  C   LIG d   1      -2.710  90.985 118.223  0.00  0.00     0.382 C 
ATOM     23  O   LIG d   1      -2.940  89.752 118.187  0.00  0.00    -0.241 OA
ATOM     24  O   LIG d   1      -3.663  91.787 118.237  0.00  0.00    -0.241 OA
ENDBRANCH   3  22
TORSDOF 7
ENDMDL
MODEL 2
REMARK VINA RESULT:      -4.3      1.198      1.517
REMARK  7 active torsions:
REMARK  status: ('A' for Active; 'I' for Inactive)
REMARK    1  A    between atoms: C_2  and  C_3 
REMARK    2  A    between atoms: C_3  and  O_6 
REMARK    3  A    between atoms: C_3  and  C_4 
REMARK    4  A    between atoms: C_7  and  O_6 
REMARK    5  A    between atoms: C_9  and  C_10 
REMARK    6  A    between atoms: N_15  and  C_14 
REMARK    7  A    between atoms: N_20  and  C_19 
REMARK       I    between atoms: C_22  and  N_20 
ROOT
ATOM      1  C   LIG d   1       1.486  90.775 118.783  0.00  0.00     0.161 C 
ATOM      2  C   LIG d   1       0.280  90.058 118.714  0.00  0.00     0.016 C 
ATOM      3  C   LIG d   1      -0.977  90.668 118.499  0.00  0.00     0.038 C 
ATOM      4  C   LIG d   1      -1.096  92.030 118.185  0.00  0.00     0.028 C 
ATOM      5  C   LIG d   1       0.040  92.881 118.741  0.00  0.00    -0.047 C 
ATOM      6  C   LIG d   1       1.389  92.248 118.332  0.00  0.00     0.091 C 
ENDROOT
BRANCH   1   7
ATOM      7  O   LIG d   1       2.507  90.088 118.032  0.00  0.00    -0.368 OA
BRANCH   7   8
ATOM      8  C   LIG d   1       2.043  89.242 116.951  0.00  0.00     0.119 C 
BRANCH   8   9
ATOM      9  C   LIG d   1       2.927  87.980 116.939  0.00  0.00     0.028 C 
ATOM     10  C   LIG d   1       2.995  87.297 118.315  0.00  0.00     0.006 C 
ENDBRANCH   8   9
BRANCH   8  11
ATOM     11  C   LIG d   1       2.265  89.906 115.589  0.00  0.00     0.028 C 
ATOM     12  C   LIG d   1       3.732  89.856 115.134  0.00  0.00     0.006 C 
ENDBRANCH   8  11
ENDBRANCH   7   8
ENDBRANCH   1   7
BRANCH   6  13
ATOM     13  N   LIG d   1       2.553  92.972 118.906  0.00  0.00    -0.311 N 
ATOM     14  C   LIG d   1       3.617  93.333 118.191  0.00  0.00     0.210 C 
ATOM     15  C   LIG d   1       4.714  94.053 118.983  0.00  0.00     0.109 C 
ATOM     16  O   LIG d   1       3.743  93.155 116.970  0.00  0.00    -0.276 OA
ATOM     17  H   LIG d   1       2.520  93.185 119.884  0.00  0.00     0.149 HD
ENDBRANCH   6  13
BRANCH   5  18
ATOM     18  N   LIG d   1      -0.136  94.252 118.224  0.00  0.00     0.381 N 
ATOM     19  H   LIG d   1      -0.098  94.906 118.980  0.00  0.00    -0.090 HD
ATOM     20  H   LIG d   1      -1.040  94.322 117.791  0.00  0.00    -0.090 HD
ATOM     21  H   LIG d   1       0.576  94.459 117.559  0.00  0.00    -0.090 HD
ENDBRANCH   5  18
BRANCH   3  22
ATOM     22  C   LIG d   1      -2.136  89.919 118.637  0.00  0.00     0.382 C 
ATOM     23  O   LIG d   1      -2.255  89.118 119.595  0.00  0.00    -0.241 OA
ATOM     24  O   LIG d   1      -3.046  90.003 117.791  0.00  0.00    -0.241 OA
ENDBRANCH   3  22
TORSDOF 7
ENDMDL
MODEL 3
REMARK VINA RESULT:      -4.2      2.401      4.334
REMARK  7 active torsions:
REMARK  status: ('A' for Active; 'I' for Inactive)
REMARK    1  A    between atoms: C_2  and  C_3 
REMARK    2  A    between atoms: C_3  and  O_6 
REMARK    3  A    between atoms: C_3  and  C_4 
REMARK    4  A    between atoms: C_7  and  O_6 
REMARK    5  A    between atoms: C_9  and  C_10 
REMARK    6  A    between atoms: N_15  and  C_14 
REMARK    7  A    between atoms: N_20  and  C_19 
REMARK       I    between atoms: C_22  and  N_20 
ROOT
ATOM      1  C   LIG d   1      -0.677  92.297 118.969  0.00  0.00     0.161 C 
ATOM      2  C   LIG d   1      -0.548  90.998 119.488  0.00  0.00     0.016 C 
ATOM      3  C   LIG d   1      -1.523  89.989 119.313  0.00  0.00     0.038 C 
ATOM      4  C   LIG d   1      -2.631  90.168 118.472  0.00  0.00     0.028 C 
ATOM      5  C   LIG d   1      -3.060  91.625 118.335  0.00  0.00    -0.047 C 
ATOM      6  C   LIG d   1      -1.827  92.477 117.956  0.00  0.00     0.091 C 
ENDROOT
BRANCH   1   7
ATOM      7  O   LIG d   1       0.573  92.718 118.388  0.00  0.00    -0.368 OA
BRANCH   7   8
ATOM      8  C   LIG d   1       1.576  91.686 118.219  0.00  0.00     0.119 C 
BRANCH   8   9
ATOM      9  C   LIG d   1       2.928  92.278 118.666  0.00  0.00     0.028 C 
ATOM     10  C   LIG d   1       3.623  93.066 117.543  0.00  0.00     0.006 C 
ENDBRANCH   8   9
BRANCH   8  11
ATOM     11  C   LIG d   1       1.760  91.324 116.743  0.00  0.00     0.028 C 
ATOM     12  C   LIG d   1       0.878  90.145 116.304  0.00  0.00     0.006 C 
ENDBRANCH   8  11
ENDBRANCH   7   8
ENDBRANCH   1   7
BRANCH   6  13
ATOM     13  N   LIG d   1      -2.141  93.928 117.885  0.00  0.00    -0.311 N 
ATOM     14  C   LIG d   1      -2.568  94.637 118.928  0.00  0.00     0.210 C 
ATOM     15  C   LIG d   1      -2.852  96.113 118.633  0.00  0.00     0.109 C 
ATOM     16  O   LIG d   1      -2.707  94.192 120.077  0.00  0.00    -0.276 OA
ATOM     17  H   LIG d   1      -2.026  94.376 116.997  0.00  0.00     0.149 HD
ENDBRANCH   6  13
BRANCH   5  18
ATOM     18  N   LIG d   1      -4.134  91.681 117.326  0.00  0.00     0.381 N 
ATOM     19  H   LIG d   1      -3.750  91.536 116.414  0.00  0.00    -0.090 HD
ATOM     20  H   LIG d   1      -4.555  92.593 117.350  0.00  0.00    -0.090 HD
ATOM     21  H   LIG d   1      -4.820  90.985 117.520  0.00  0.00    -0.090 HD
ENDBRANCH   5  18
BRANCH   3  22
ATOM     22  C   LIG d   1      -1.414  88.798 120.015  0.00  0.00     0.382 C 
ATOM     23  O   LIG d   1      -0.282  88.309 120.247  0.00  0.00    -0.241 OA
ATOM     24  O   LIG d   1      -2.434  88.185 120.380  0.00  0.00    -0.241 OA
ENDBRANCH   3  22
TORSDOF 7
ENDMDL
MODEL 4
REMARK VINA RESULT:      -4.2      1.448      1.824
REMARK  7 active torsions:
REMARK  status: ('A' for Active; 'I' for Inactive)
REMARK    1  A    between atoms: C_2  and  C_3 
REMARK    2  A    between atoms: C_3  and  O_6 
REMARK    3  A    between atoms: C_3  and  C_4 
REMARK    4  A    between atoms: C_7  and  O_6 
REMARK    5  A    between atoms: C_9  and  C_10 
REMARK    6  A    between atoms: N_15  and  C_14 
REMARK    7  A    between atoms: N_20  and  C_19 
REMARK       I    between atoms: C_22  and  N_20 
ROOT
ATOM      1  C   LIG d   1       1.205  90.388 117.075  0.00  0.00     0.161 C 
ATOM      2  C   LIG d   1      -0.188  90.275 117.212  0.00  0.00     0.016 C 
ATOM      3  C   LIG d   1      -0.983  91.227 117.892  0.00  0.00     0.038 C 
ATOM      4  C   LIG d   1      -0.453  92.442 118.352  0.00  0.00     0.028 C 
ATOM      5  C   LIG d   1       1.034  92.368 118.681  0.00  0.00    -0.047 C 
ATOM      6  C   LIG d   1       1.785  91.761 117.474  0.00  0.00     0.091 C 
ENDROOT
BRANCH   1   7
ATOM      7  O   LIG d   1       1.592  90.053 115.727  0.00  0.00    -0.368 OA
BRANCH   7   8
ATOM      8  C   LIG d   1       2.183  88.744 115.540  0.00  0.00     0.119 C 
BRANCH   8   9
ATOM      9  C   LIG d   1       2.953  88.396 116.829  0.00  0.00     0.028 C 
ATOM     10  C   LIG d   1       3.443  86.938 116.844  0.00  0.00     0.006 C 
ENDBRANCH   8   9
BRANCH   8  11
ATOM     11  C   LIG d   1       3.239  88.763 114.430  0.00  0.00     0.028 C 
ATOM     12  C   LIG d   1       4.155  89.995 114.500  0.00  0.00     0.006 C 
ENDBRANCH   8  11
ENDBRANCH   7   8
ENDBRANCH   1   7
BRANCH   6  13
ATOM     13  N   LIG d   1       3.235  91.575 117.743  0.00  0.00    -0.311 N 
ATOM     14  C   LIG d   1       4.155  92.500 117.475  0.00  0.00     0.210 C 
ATOM     15  C   LIG d   1       5.594  92.098 117.812  0.00  0.00     0.109 C 
ATOM     16  O   LIG d   1       3.912  93.628 117.019  0.00  0.00    -0.276 OA
ATOM     17  H   LIG d   1       3.517  90.701 118.142  0.00  0.00     0.149 HD
ENDBRANCH   6  13
BRANCH   5  18
ATOM     18  N   LIG d   1       1.485  93.732 119.016  0.00  0.00     0.381 N 
ATOM     19  H   LIG d   1       2.287  93.687 119.612  0.00  0.00    -0.090 HD
ATOM     20  H   LIG d   1       0.750  94.204 119.512  0.00  0.00    -0.090 HD
ATOM     21  H   LIG d   1       1.708  94.231 118.183  0.00  0.00    -0.090 HD
ENDBRANCH   5  18
BRANCH   3  22
ATOM     22  C   LIG d   1      -2.316  90.950 118.151  0.00  0.00     0.382 C 
ATOM     23  O   LIG d   1      -3.010  91.764 118.807  0.00  0.00    -0.241 OA
ATOM     24  O   LIG d   1      -2.823  89.875 117.777  0.00  0.00    -0.241 OA
ENDBRANCH   3  22
TORSDOF 7
ENDMDL
MODEL 5
REMARK VINA RESULT:      -4.2      1.905      5.443
REMARK  7 active torsions:
REMARK  status: ('A' for Active; 'I' for Inactive)
REMARK    1  A    between atoms: C_2  and  C_3 
REMARK    2  A    between atoms: C_3  and  O_6 
REMARK    3  A    between atoms: C_3  and  C_4 
REMARK    4  A    between atoms: C_7  and  O_6 
REMARK    5  A    between atoms: C_9  and  C_10 
REMARK    6  A    between atoms: N_15  and  C_14 
REMARK    7  A    between atoms: N_20  and  C_19 
REMARK       I    between atoms: C_22  and  N_20 
ROOT
ATOM      1  C   LIG d   1       2.997  93.009 117.380  0.00  0.00     0.161 C 
ATOM      2  C   LIG d   1       4.304  93.409 117.704  0.00  0.00     0.016 C 
ATOM      3  C   LIG d   1       4.666  93.938 118.964  0.00  0.00     0.038 C 
ATOM      4  C   LIG d   1       3.770  93.963 120.043  0.00  0.00     0.028 C 
ATOM      5  C   LIG d   1       2.308  94.038 119.615  0.00  0.00    -0.047 C 
ATOM      6  C   LIG d   1       2.030  92.924 118.580  0.00  0.00     0.091 C 
ENDROOT
BRANCH   1   7
ATOM      7  O   LIG d   1       3.031  91.752 116.675  0.00  0.00    -0.368 OA
BRANCH   7   8
ATOM      8  C   LIG d   1       3.201  90.567 117.492  0.00  0.00     0.119 C 
BRANCH   8   9
ATOM      9  C   LIG d   1       4.486  89.860 117.020  0.00  0.00     0.028 C 
ATOM     10  C   LIG d   1       4.936  90.329 115.626  0.00  0.00     0.006 C 
ENDBRANCH   8   9
BRANCH   8  11
ATOM     11  C   LIG d   1       2.073  89.559 117.253  0.00  0.00     0.028 C 
ATOM     12  C   LIG d   1       1.189  89.928 116.051  0.00  0.00     0.006 C 
ENDBRANCH   8  11
ENDBRANCH   7   8
ENDBRANCH   1   7
BRANCH   6  13
ATOM     13  N   LIG d   1       0.644  92.980 118.047  0.00  0.00    -0.311 N 
ATOM     14  C   LIG d   1      -0.357  92.247 118.530  0.00  0.00     0.210 C 
ATOM     15  C   LIG d   1      -1.702  92.442 117.822  0.00  0.00     0.109 C 
ATOM     16  O   LIG d   1      -0.267  91.478 119.499  0.00  0.00    -0.276 OA
ATOM     17  H   LIG d   1       0.475  93.601 117.280  0.00  0.00     0.149 HD
ENDBRANCH   6  13
BRANCH   5  18
ATOM     18  N   LIG d   1       1.482  93.917 120.831  0.00  0.00     0.381 N 
ATOM     19  H   LIG d   1       2.065  93.722 121.620  0.00  0.00    -0.090 HD
ATOM     20  H   LIG d   1       0.843  93.151 120.715  0.00  0.00    -0.090 HD
ATOM     21  H   LIG d   1       0.975  94.761 120.984  0.00  0.00    -0.090 HD
ENDBRANCH   5  18
BRANCH   3  22
ATOM     22  C   LIG d   1       5.927  94.488 119.141  0.00  0.00     0.382 C 
ATOM     23  O   LIG d   1       6.158  95.661 118.763  0.00  0.00    -0.241 OA
ATOM     24  O   LIG d   1       6.848  93.809 119.635  0.00  0.00    -0.241 OA
ENDBRANCH   3  22
TORSDOF 7
ENDMDL
MODEL 6
REMARK VINA RESULT:      -4.2      2.412      5.254
REMARK  7 active torsions:
REMARK  status: ('A' for Active; 'I' for Inactive)
REMARK    1  A    between atoms: C_2  and  C_3 
REMARK    2  A    between atoms: C_3  and  O_6 
REMARK    3  A    between atoms: C_3  and  C_4 
REMARK    4  A    between atoms: C_7  and  O_6 
REMARK    5  A    between atoms: C_9  and  C_10 
REMARK    6  A    between atoms: N_15  and  C_14 
REMARK    7  A    between atoms: N_20  and  C_19 
REMARK       I    between atoms: C_22  and  N_20 
ROOT
ATOM      1  C   LIG d   1       1.581  91.576 117.972  0.00  0.00     0.161 C 
ATOM      2  C   LIG d   1       1.746  92.669 118.839  0.00  0.00     0.016 C 
ATOM      3  C   LIG d   1       2.976  93.344 119.014  0.00  0.00     0.038 C 
ATOM      4  C   LIG d   1       4.095  93.066 118.216  0.00  0.00     0.028 C 
ATOM      5  C   LIG d   1       4.119  91.637 117.683  0.00  0.00    -0.047 C 
ATOM      6  C   LIG d   1       2.762  91.329 117.010  0.00  0.00     0.091 C 
ENDROOT
BRANCH   1   7
ATOM      7  O   LIG d   1       0.353  91.722 117.231  0.00  0.00    -0.368 OA
BRANCH   7   8
ATOM      8  C   LIG d   1      -0.726  90.830 117.605  0.00  0.00     0.119 C 
BRANCH   8   9
ATOM      9  C   LIG d   1      -1.820  91.684 118.276  0.00  0.00     0.028 C 
ATOM     10  C   LIG d   1      -1.818  93.138 117.776  0.00  0.00     0.006 C 
ENDBRANCH   8   9
BRANCH   8  11
ATOM     11  C   LIG d   1      -0.278  89.831 118.675  0.00  0.00     0.028 C 
ATOM     12  C   LIG d   1      -1.392  89.494 119.679  0.00  0.00     0.006 C 
ENDBRANCH   8  11
ENDBRANCH   7   8
ENDBRANCH   1   7
BRANCH   6  13
ATOM     13  N   LIG d   1       2.670  89.923 116.537  0.00  0.00    -0.311 N 
ATOM     14  C   LIG d   1       3.004  89.542 115.305  0.00  0.00     0.210 C 
ATOM     15  C   LIG d   1       2.814  88.049 115.017  0.00  0.00     0.109 C 
ATOM     16  O   LIG d   1       3.469  90.292 114.434  0.00  0.00    -0.276 OA
ATOM     17  H   LIG d   1       2.331  89.243 117.189  0.00  0.00     0.149 HD
ENDBRANCH   6  13
BRANCH   5  18
ATOM     18  N   LIG d   1       5.262  91.525 116.758  0.00  0.00     0.381 N 
ATOM     19  H   LIG d   1       5.122  90.752 116.139  0.00  0.00    -0.090 HD
ATOM     20  H   LIG d   1       6.097  91.356 117.291  0.00  0.00    -0.090 HD
ATOM     21  H   LIG d   1       5.359  92.366 116.233  0.00  0.00    -0.090 HD
ENDBRANCH   5  18
BRANCH   3  22
ATOM     22  C   LIG d   1       3.106  94.283 120.026  0.00  0.00     0.382 C 
ATOM     23  O   LIG d   1       4.204  94.863 120.206  0.00  0.00    -0.241 OA
ATOM     24  O   LIG d   1       2.152  94.526 120.789  0.00  0.00    -0.241 OA
ENDBRANCH   3  22
TORSDOF 7
ENDMDL
MODEL 7
REMARK VINA RESULT:      -4.1      2.200      5.412
REMARK  7 active torsions:
REMARK  status: ('A' for Active; 'I' for Inactive)
REMARK    1  A    between atoms: C_2  and  C_3 
REMARK    2  A    between atoms: C_3  and  O_6 
REMARK    3  A    between atoms: C_3  and  C_4 
REMARK    4  A    between atoms: C_7  and  O_6 
REMARK    5  A    between atoms: C_9  and  C_10 
REMARK    6  A    between atoms: N_15  and  C_14 
REMARK    7  A    between atoms: N_20  and  C_19 
REMARK       I    between atoms: C_22  and  N_20 
ROOT
ATOM      1  C   LIG d   1       3.068  92.428 117.138  0.00  0.00     0.161 C 
ATOM      2  C   LIG d   1       4.391  91.957 117.087  0.00  0.00     0.016 C 
ATOM      3  C   LIG d   1       5.351  92.224 118.090  0.00  0.00     0.038 C 
ATOM      4  C   LIG d   1       5.009  92.858 119.294  0.00  0.00     0.028 C 
ATOM      5  C   LIG d   1       3.810  93.792 119.167  0.00  0.00    -0.047 C 
ATOM      6  C   LIG d   1       2.647  93.027 118.496  0.00  0.00     0.091 C 
ENDROOT
BRANCH   1   7
ATOM      7  O   LIG d   1       2.160  91.378 116.750  0.00  0.00    -0.368 OA
BRANCH   7   8
ATOM      8  C   LIG d   1       2.166  90.191 117.581  0.00  0.00     0.119 C 
BRANCH   8   9
ATOM      9  C   LIG d   1       2.391  88.979 116.656  0.00  0.00     0.028 C 
ATOM     10  C   LIG d   1       2.183  89.327 115.172  0.00  0.00     0.006 C 
ENDBRANCH   8   9
BRANCH   8  11
ATOM     11  C   LIG d   1       0.799  89.958 118.229  0.00  0.00     0.028 C 
ATOM     12  C   LIG d   1      -0.345  90.651 117.473  0.00  0.00     0.006 C 
ENDBRANCH   8  11
ENDBRANCH   7   8
ENDBRANCH   1   7
BRANCH   6  13
ATOM     13  N   LIG d   1       1.462  93.892 118.258  0.00  0.00    -0.311 N 
ATOM     14  C   LIG d   1       0.425  93.961 119.090  0.00  0.00     0.210 C 
ATOM     15  C   LIG d   1      -0.700  94.900 118.645  0.00  0.00     0.109 C 
ATOM     16  O   LIG d   1       0.344  93.357 120.170  0.00  0.00    -0.276 OA
ATOM     17  H   LIG d   1       1.459  94.440 117.420  0.00  0.00     0.149 HD
ENDBRANCH   6  13
BRANCH   5  18
ATOM     18  N   LIG d   1       3.479  94.278 120.520  0.00  0.00     0.381 N 
ATOM     19  H   LIG d   1       3.221  95.244 120.480  0.00  0.00    -0.090 HD
ATOM     20  H   LIG d   1       4.292  94.192 121.104  0.00  0.00    -0.090 HD
ATOM     21  H   LIG d   1       2.729  93.743 120.900  0.00  0.00    -0.090 HD
ENDBRANCH   5  18
BRANCH   3  22
ATOM     22  C   LIG d   1       6.679  91.890 117.876  0.00  0.00     0.382 C 
ATOM     23  O   LIG d   1       7.556  92.243 118.701  0.00  0.00    -0.241 OA
ATOM     24  O   LIG d   1       7.019  91.278 116.846  0.00  0.00    -0.241 OA
ENDBRANCH   3  22
TORSDOF 7
ENDMDL
MODEL 8
REMARK VINA RESULT:      -4.1      2.214      5.101
REMARK  7 active torsions:
REMARK  status: ('A' for Active; 'I' for Inactive)
REMARK    1  A    between atoms: C_2  and  C_3 
REMARK    2  A    between atoms: C_3  and  O_6 
REMARK    3  A    between atoms: C_3  and  C_4 
REMARK    4  A    between atoms: C_7  and  O_6 
REMARK    5  A    between atoms: C_9  and  C_10 
REMARK    6  A    between atoms: N_15  and  C_14 
REMARK    7  A    between atoms: N_20  and  C_19 
REMARK       I    between atoms: C_22  and  N_20 
ROOT
ATOM      1  C   LIG d   1       1.919  92.002 118.084  0.00  0.00     0.161 C 
ATOM      2  C   LIG d   1       2.601  91.348 117.044  0.00  0.00     0.016 C 
ATOM      3  C   LIG d   1       1.976  90.451 116.147  0.00  0.00     0.038 C 
ATOM      4  C   LIG d   1       0.586  90.262 116.136  0.00  0.00     0.028 C 
ATOM      5  C   LIG d   1      -0.070  90.513 117.489  0.00  0.00    -0.047 C 
ATOM      6  C   LIG d   1       0.382  91.894 118.017  0.00  0.00     0.091 C 
ENDROOT
BRANCH   1   7
ATOM      7  O   LIG d   1       2.322  93.385 118.138  0.00  0.00    -0.368 OA
BRANCH   7   8
ATOM      8  C   LIG d   1       3.139  93.766 119.273  0.00  0.00     0.119 C 
BRANCH   8   9
ATOM      9  C   LIG d   1       4.580  93.958 118.762  0.00  0.00     0.028 C 
ATOM     10  C   LIG d   1       5.467  92.731 119.033  0.00  0.00     0.006 C 
ENDBRANCH   8   9
BRANCH   8  11
ATOM     11  C   LIG d   1       3.221  92.638 120.305  0.00  0.00     0.028 C 
ATOM     12  C   LIG d   1       2.592  93.018 121.655  0.00  0.00     0.006 C 
ENDBRANCH   8  11
ENDBRANCH   7   8
ENDBRANCH   1   7
BRANCH   6  13
ATOM     13  N   LIG d   1      -0.149  92.182 119.376  0.00  0.00    -0.311 N 
ATOM     14  C   LIG d   1      -1.273  92.861 119.595  0.00  0.00     0.210 C 
ATOM     15  C   LIG d   1      -1.629  93.064 121.071  0.00  0.00     0.109 C 
ATOM     16  O   LIG d   1      -2.026  93.287 118.706  0.00  0.00    -0.276 OA
ATOM     17  H   LIG d   1       0.384  91.846 120.154  0.00  0.00     0.149 HD
ENDBRANCH   6  13
BRANCH   5  18
ATOM     18  N   LIG d   1      -1.530  90.415 117.301  0.00  0.00     0.381 N 
ATOM     19  H   LIG d   1      -1.990  91.116 117.848  0.00  0.00    -0.090 HD
ATOM     20  H   LIG d   1      -1.839  89.514 117.619  0.00  0.00    -0.090 HD
ATOM     21  H   LIG d   1      -1.759  90.532 116.338  0.00  0.00    -0.090 HD
ENDBRANCH   5  18
BRANCH   3  22
ATOM     22  C   LIG d   1       2.750  89.701 115.274  0.00  0.00     0.382 C 
ATOM     23  O   LIG d   1       2.759  88.450 115.361  0.00  0.00    -0.241 OA
ATOM     24  O   LIG d   1       3.474  90.263 114.430  0.00  0.00    -0.241 OA
ENDBRANCH   3  22
TORSDOF 7
ENDMDL
MODEL 9
REMARK VINA RESULT:      -4.1      5.052      7.613
REMARK  7 active torsions:
REMARK  status: ('A' for Active; 'I' for Inactive)
REMARK    1  A    between atoms: C_2  and  C_3 
REMARK    2  A    between atoms: C_3  and  O_6 
REMARK    3  A    between atoms: C_3  and  C_4 
REMARK    4  A    between atoms: C_7  and  O_6 
REMARK    5  A    between atoms: C_9  and  C_10 
REMARK    6  A    between atoms: N_15  and  C_14 
REMARK    7  A    between atoms: N_20  and  C_19 
REMARK       I    between atoms: C_22  and  N_20 
ROOT
ATOM      1  C   LIG d   1      -5.305  92.950 118.759  0.00  0.00     0.161 C 
ATOM      2  C   LIG d   1      -5.553  92.095 117.672  0.00  0.00     0.016 C 
ATOM      3  C   LIG d   1      -6.636  92.267 116.779  0.00  0.00     0.038 C 
ATOM      4  C   LIG d   1      -7.461  93.400 116.824  0.00  0.00     0.028 C 
ATOM      5  C   LIG d   1      -7.557  94.025 118.212  0.00  0.00    -0.047 C 
ATOM      6  C   LIG d   1      -6.129  94.254 118.758  0.00  0.00     0.091 C 
ENDROOT
BRANCH   1   7
ATOM      7  O   LIG d   1      -3.896  93.247 118.835  0.00  0.00    -0.368 OA
BRANCH   7   8
ATOM      8  C   LIG d   1      -3.082  92.295 119.563  0.00  0.00     0.119 C 
BRANCH   8   9
ATOM      9  C   LIG d   1      -2.724  92.934 120.919  0.00  0.00     0.028 C 
ATOM     10  C   LIG d   1      -2.498  94.451 120.811  0.00  0.00     0.006 C 
ENDBRANCH   8   9
BRANCH   8  11
ATOM     11  C   LIG d   1      -1.742  92.056 118.860  0.00  0.00     0.028 C 
ATOM     12  C   LIG d   1      -1.627  92.809 117.525  0.00  0.00     0.006 C 
ENDBRANCH   8  11
ENDBRANCH   7   8
ENDBRANCH   1   7
BRANCH   6  13
ATOM     13  N   LIG d   1      -6.132  94.785 120.146  0.00  0.00    -0.311 N 
ATOM     14  C   LIG d   1      -6.060  96.084 120.434  0.00  0.00     0.210 C 
ATOM     15  C   LIG d   1      -6.057  96.415 121.930  0.00  0.00     0.109 C 
ATOM     16  O   LIG d   1      -6.031  96.994 119.593  0.00  0.00    -0.276 OA
ATOM     17  H   LIG d   1      -6.184  94.117 120.890  0.00  0.00     0.149 HD
ENDBRANCH   6  13
BRANCH   5  18
ATOM     18  N   LIG d   1      -8.334  95.272 118.086  0.00  0.00     0.381 N 
ATOM     19  H   LIG d   1      -8.551  95.441 117.124  0.00  0.00    -0.090 HD
ATOM     20  H   LIG d   1      -7.777  96.038 118.422  0.00  0.00    -0.090 HD
ATOM     21  H   LIG d   1      -9.175  95.205 118.617  0.00  0.00    -0.090 HD
ENDBRANCH   5  18
BRANCH   3  22
ATOM     22  C   LIG d   1      -6.925  91.277 115.852  0.00  0.00     0.382 C 
ATOM     23  O   LIG d   1      -6.540  91.399 114.664  0.00  0.00    -0.241 OA
ATOM     24  O   LIG d   1      -7.605  90.286 116.178  0.00  0.00    -0.241 OA
ENDBRANCH   3  22
TORSDOF 7
ENDMDL
