MODEL 1
REMARK VINA RESULT:      -5.2      0.000      0.000
REMARK  7 active torsions:
REMARK  status: ('A' for Active; 'I' for Inactive)
REMARK    1  A    between atoms: C_2  and  C_3 
REMARK    2  A    between atoms: C_3  and  O_6 
REMARK    3  A    between atoms: C_3  and  C_4 
REMARK    4  A    between atoms: C_7  and  O_6 
REMARK    5  A    between atoms: C_9  and  C_10 
REMARK    6  A    between atoms: N_15  and  C_14 
REMARK    7  A    between atoms: N_20  and  C_19 
REMARK       I    between atoms: C_22  and  N_20 
ROOT
ATOM      1  C   LIG d   1      -3.241  90.940 118.055  0.00  0.00     0.161 C 
ATOM      2  C   LIG d   1      -3.848  90.278 116.976  0.00  0.00     0.016 C 
ATOM      3  C   LIG d   1      -5.068  90.694 116.393  0.00  0.00     0.038 C 
ATOM      4  C   LIG d   1      -5.690  91.897 116.756  0.00  0.00     0.028 C 
ATOM      5  C   LIG d   1      -5.380  92.333 118.184  0.00  0.00    -0.047 C 
ATOM      6  C   LIG d   1      -3.848  92.319 118.392  0.00  0.00     0.091 C 
ENDROOT
BRANCH   1   7
ATOM      7  O   LIG d   1      -1.824  91.060 117.821  0.00  0.00    -0.368 OA
BRANCH   7   8
ATOM      8  C   LIG d   1      -0.993  90.024 118.398  0.00  0.00     0.119 C 
BRANCH   8   9
ATOM      9  C   LIG d   1      -0.472  90.547 119.751  0.00  0.00     0.028 C 
ATOM     10  C   LIG d   1      -1.258  89.974 120.943  0.00  0.00     0.006 C 
ENDBRANCH   8   9
BRANCH   8  11
ATOM     11  C   LIG d   1       0.259  89.777 117.550  0.00  0.00     0.028 C 
ATOM     12  C   LIG d   1       0.823  91.066 116.932  0.00  0.00     0.006 C 
ENDBRANCH   8  11
ENDBRANCH   7   8
ENDBRANCH   1   7
BRANCH   6  13
ATOM     13  N   LIG d   1      -3.462  92.651 119.788  0.00  0.00    -0.311 N 
ATOM     14  C   LIG d   1      -2.605  93.622 120.100  0.00  0.00     0.210 C 
ATOM     15  C   LIG d   1      -2.331  93.785 121.598  0.00  0.00     0.109 C 
ATOM     16  O   LIG d   1      -2.072  94.385 119.281  0.00  0.00    -0.276 OA
ATOM     17  H   LIG d   1      -3.873  92.102 120.518  0.00  0.00     0.149 HD
ENDBRANCH   6  13
BRANCH   5  18
ATOM     18  N   LIG d   1      -5.978  93.667 118.383  0.00  0.00     0.381 N 
ATOM     19  H   LIG d   1      -5.413  94.201 119.013  0.00  0.00    -0.090 HD
ATOM     20  H   LIG d   1      -6.889  93.557 118.791  0.00  0.00    -0.090 HD
ATOM     21  H   LIG d   1      -6.052  94.141 117.509  0.00  0.00    -0.090 HD
ENDBRANCH   5  18
BRANCH   3  22
ATOM     22  C   LIG d   1      -5.698  89.880 115.463  0.00  0.00     0.382 C 
ATOM     23  O   LIG d   1      -6.775  90.249 114.936  0.00  0.00    -0.241 OA
ATOM     24  O   LIG d   1      -5.226  88.764 115.178  0.00  0.00    -0.241 OA
ENDBRANCH   3  22
TORSDOF 7
ENDMDL
MODEL 2
REMARK VINA RESULT:      -4.6      2.639      6.517
REMARK  7 active torsions:
REMARK  status: ('A' for Active; 'I' for Inactive)
REMARK    1  A    between atoms: C_2  and  C_3 
REMARK    2  A    between atoms: C_3  and  O_6 
REMARK    3  A    between atoms: C_3  and  C_4 
REMARK    4  A    between atoms: C_7  and  O_6 
REMARK    5  A    between atoms: C_9  and  C_10 
REMARK    6  A    between atoms: N_15  and  C_14 
REMARK    7  A    between atoms: N_20  and  C_19 
REMARK       I    between atoms: C_22  and  N_20 
ROOT
ATOM      1  C   LIG d   1      -5.025  92.790 118.991  0.00  0.00     0.161 C 
ATOM      2  C   LIG d   1      -4.027  93.317 119.828  0.00  0.00     0.016 C 
ATOM      3  C   LIG d   1      -2.673  92.915 119.773  0.00  0.00     0.038 C 
ATOM      4  C   LIG d   1      -2.193  92.062 118.768  0.00  0.00     0.028 C 
ATOM      5  C   LIG d   1      -3.256  91.117 118.217  0.00  0.00    -0.047 C 
ATOM      6  C   LIG d   1      -4.500  91.941 117.815  0.00  0.00     0.091 C 
ENDROOT
BRANCH   1   7
ATOM      7  O   LIG d   1      -5.867  93.854 118.505  0.00  0.00    -0.368 OA
BRANCH   7   8
ATOM      8  C   LIG d   1      -6.353  94.788 119.500  0.00  0.00     0.119 C 
BRANCH   8   9
ATOM      9  C   LIG d   1      -7.873  94.576 119.631  0.00  0.00     0.028 C 
ATOM     10  C   LIG d   1      -8.663  95.295 118.524  0.00  0.00     0.006 C 
ENDBRANCH   8   9
BRANCH   8  11
ATOM     11  C   LIG d   1      -6.184  96.237 119.034  0.00  0.00     0.028 C 
ATOM     12  C   LIG d   1      -4.874  96.873 119.527  0.00  0.00     0.006 C 
ENDBRANCH   8  11
ENDBRANCH   7   8
ENDBRANCH   1   7
BRANCH   6  13
ATOM     13  N   LIG d   1      -5.619  91.084 117.344  0.00  0.00    -0.311 N 
ATOM     14  C   LIG d   1      -6.139  91.163 116.120  0.00  0.00     0.210 C 
ATOM     15  C   LIG d   1      -7.300  90.202 115.847  0.00  0.00     0.109 C 
ATOM     16  O   LIG d   1      -5.727  91.916 115.224  0.00  0.00    -0.276 OA
ATOM     17  H   LIG d   1      -5.994  90.423 117.997  0.00  0.00     0.149 HD
ENDBRANCH   6  13
BRANCH   5  18
ATOM     18  N   LIG d   1      -2.657  90.384 117.086  0.00  0.00     0.381 N 
ATOM     19  H   LIG d   1      -3.172  90.573 116.249  0.00  0.00    -0.090 HD
ATOM     20  H   LIG d   1      -2.710  89.398 117.273  0.00  0.00    -0.090 HD
ATOM     21  H   LIG d   1      -1.706  90.657 116.968  0.00  0.00    -0.090 HD
ENDBRANCH   5  18
BRANCH   3  22
ATOM     22  C   LIG d   1      -1.790  93.336 120.756  0.00  0.00     0.382 C 
ATOM     23  O   LIG d   1      -2.083  94.315 121.484  0.00  0.00    -0.241 OA
ATOM     24  O   LIG d   1      -0.686  92.777 120.895  0.00  0.00    -0.241 OA
ENDBRANCH   3  22
TORSDOF 7
ENDMDL
MODEL 3
REMARK VINA RESULT:      -4.6      2.243      4.293
REMARK  7 active torsions:
REMARK  status: ('A' for Active; 'I' for Inactive)
REMARK    1  A    between atoms: C_2  and  C_3 
REMARK    2  A    between atoms: C_3  and  O_6 
REMARK    3  A    between atoms: C_3  and  C_4 
REMARK    4  A    between atoms: C_7  and  O_6 
REMARK    5  A    between atoms: C_9  and  C_10 
REMARK    6  A    between atoms: N_15  and  C_14 
REMARK    7  A    between atoms: N_20  and  C_19 
REMARK       I    between atoms: C_22  and  N_20 
ROOT
ATOM      1  C   LIG d   1      -4.260  92.524 118.818  0.00  0.00     0.161 C 
ATOM      2  C   LIG d   1      -5.301  92.359 117.889  0.00  0.00     0.016 C 
ATOM      3  C   LIG d   1      -5.281  91.384 116.865  0.00  0.00     0.038 C 
ATOM      4  C   LIG d   1      -4.282  90.402 116.794  0.00  0.00     0.028 C 
ATOM      5  C   LIG d   1      -2.955  90.844 117.403  0.00  0.00    -0.047 C 
ATOM      6  C   LIG d   1      -3.213  91.391 118.825  0.00  0.00     0.091 C 
ENDROOT
BRANCH   1   7
ATOM      7  O   LIG d   1      -4.809  92.708 120.138  0.00  0.00    -0.368 OA
BRANCH   7   8
ATOM      8  C   LIG d   1      -4.718  94.046 120.685  0.00  0.00     0.119 C 
BRANCH   8   9
ATOM      9  C   LIG d   1      -6.108  94.698 120.547  0.00  0.00     0.028 C 
ATOM     10  C   LIG d   1      -6.172  95.702 119.384  0.00  0.00     0.006 C 
ENDBRANCH   8   9
BRANCH   8  11
ATOM     11  C   LIG d   1      -3.774  94.924 119.858  0.00  0.00     0.028 C 
ATOM     12  C   LIG d   1      -2.528  95.363 120.643  0.00  0.00     0.006 C 
ENDBRANCH   8  11
ENDBRANCH   7   8
ENDBRANCH   1   7
BRANCH   6  13
ATOM     13  N   LIG d   1      -1.979  91.923 119.461  0.00  0.00    -0.311 N 
ATOM     14  C   LIG d   1      -1.203  91.204 120.270  0.00  0.00     0.210 C 
ATOM     15  C   LIG d   1       0.010  91.951 120.834  0.00  0.00     0.109 C 
ATOM     16  O   LIG d   1      -1.387  90.010 120.549  0.00  0.00    -0.276 OA
ATOM     17  H   LIG d   1      -1.739  92.875 119.264  0.00  0.00     0.149 HD
ENDBRANCH   6  13
BRANCH   5  18
ATOM     18  N   LIG d   1      -2.048  89.681 117.386  0.00  0.00     0.381 N 
ATOM     19  H   LIG d   1      -2.448  88.948 116.836  0.00  0.00    -0.090 HD
ATOM     20  H   LIG d   1      -1.934  89.345 118.326  0.00  0.00    -0.090 HD
ATOM     21  H   LIG d   1      -1.163  89.944 117.010  0.00  0.00    -0.090 HD
ENDBRANCH   5  18
BRANCH   3  22
ATOM     22  C   LIG d   1      -6.250  91.410 115.873  0.00  0.00     0.382 C 
ATOM     23  O   LIG d   1      -7.364  90.867 116.071  0.00  0.00    -0.241 OA
ATOM     24  O   LIG d   1      -6.009  91.930 114.767  0.00  0.00    -0.241 OA
ENDBRANCH   3  22
TORSDOF 7
ENDMDL
MODEL 4
REMARK VINA RESULT:      -4.5      3.381      5.421
REMARK  7 active torsions:
REMARK  status: ('A' for Active; 'I' for Inactive)
REMARK    1  A    between atoms: C_2  and  C_3 
REMARK    2  A    between atoms: C_3  and  O_6 
REMARK    3  A    between atoms: C_3  and  C_4 
REMARK    4  A    between atoms: C_7  and  O_6 
REMARK    5  A    between atoms: C_9  and  C_10 
REMARK    6  A    between atoms: N_15  and  C_14 
REMARK    7  A    between atoms: N_20  and  C_19 
REMARK       I    between atoms: C_22  and  N_20 
ROOT
ATOM      1  C   LIG d   1       0.905  90.070 117.481  0.00  0.00     0.161 C 
ATOM      2  C   LIG d   1      -0.488  89.895 117.454  0.00  0.00     0.016 C 
ATOM      3  C   LIG d   1      -1.408  90.925 117.754  0.00  0.00     0.038 C 
ATOM      4  C   LIG d   1      -0.997  92.251 117.956  0.00  0.00     0.028 C 
ATOM      5  C   LIG d   1       0.427  92.368 118.490  0.00  0.00    -0.047 C 
ATOM      6  C   LIG d   1       1.370  91.537 117.591  0.00  0.00     0.091 C 
ENDROOT
BRANCH   1   7
ATOM      7  O   LIG d   1       1.500  89.441 116.328  0.00  0.00    -0.368 OA
BRANCH   7   8
ATOM      8  C   LIG d   1       2.357  88.304 116.593  0.00  0.00     0.119 C 
BRANCH   8   9
ATOM      9  C   LIG d   1       3.770  88.662 116.092  0.00  0.00     0.028 C 
ATOM     10  C   LIG d   1       3.754  89.797 115.054  0.00  0.00     0.006 C 
ENDBRANCH   8   9
BRANCH   8  11
ATOM     11  C   LIG d   1       1.933  87.083 115.772  0.00  0.00     0.028 C 
ATOM     12  C   LIG d   1       0.487  86.647 116.056  0.00  0.00     0.006 C 
ENDBRANCH   8  11
ENDBRANCH   7   8
ENDBRANCH   1   7
BRANCH   6  13
ATOM     13  N   LIG d   1       2.770  91.530 118.091  0.00  0.00    -0.311 N 
ATOM     14  C   LIG d   1       3.679  92.436 117.739  0.00  0.00     0.210 C 
ATOM     15  C   LIG d   1       5.067  92.233 118.355  0.00  0.00     0.109 C 
ATOM     16  O   LIG d   1       3.460  93.408 117.001  0.00  0.00    -0.276 OA
ATOM     17  H   LIG d   1       3.025  90.793 118.720  0.00  0.00     0.149 HD
ENDBRANCH   6  13
BRANCH   5  18
ATOM     18  N   LIG d   1       0.774  93.802 118.524  0.00  0.00     0.381 N 
ATOM     19  H   LIG d   1       0.463  94.245 117.682  0.00  0.00    -0.090 HD
ATOM     20  H   LIG d   1       1.773  93.893 118.577  0.00  0.00    -0.090 HD
ATOM     21  H   LIG d   1       0.350  94.237 119.313  0.00  0.00    -0.090 HD
ENDBRANCH   5  18
BRANCH   3  22
ATOM     22  C   LIG d   1      -2.755  90.625 117.894  0.00  0.00     0.382 C 
ATOM     23  O   LIG d   1      -3.185  89.499 117.547  0.00  0.00    -0.241 OA
ATOM     24  O   LIG d   1      -3.552  91.481 118.322  0.00  0.00    -0.241 OA
ENDBRANCH   3  22
TORSDOF 7
ENDMDL
MODEL 5
REMARK VINA RESULT:      -4.4      3.977      6.434
REMARK  7 active torsions:
REMARK  status: ('A' for Active; 'I' for Inactive)
REMARK    1  A    between atoms: C_2  and  C_3 
REMARK    2  A    between atoms: C_3  and  O_6 
REMARK    3  A    between atoms: C_3  and  C_4 
REMARK    4  A    between atoms: C_7  and  O_6 
REMARK    5  A    between atoms: C_9  and  C_10 
REMARK    6  A    between atoms: N_15  and  C_14 
REMARK    7  A    between atoms: N_20  and  C_19 
REMARK       I    between atoms: C_22  and  N_20 
ROOT
ATOM      1  C   LIG d   1       1.247  89.002 117.064  0.00  0.00     0.161 C 
ATOM      2  C   LIG d   1      -0.126  89.057 117.354  0.00  0.00     0.016 C 
ATOM      3  C   LIG d   1      -0.811  90.258 117.653  0.00  0.00     0.038 C 
ATOM      4  C   LIG d   1      -0.195  91.512 117.533  0.00  0.00     0.028 C 
ATOM      5  C   LIG d   1       1.316  91.467 117.735  0.00  0.00    -0.047 C 
ATOM      6  C   LIG d   1       1.912  90.373 116.820  0.00  0.00     0.091 C 
ENDROOT
BRANCH   1   7
ATOM      7  O   LIG d   1       1.475  88.127 115.941  0.00  0.00    -0.368 OA
BRANCH   7   8
ATOM      8  C   LIG d   1       1.162  86.728 116.150  0.00  0.00     0.119 C 
BRANCH   8   9
ATOM      9  C   LIG d   1       2.497  85.962 116.225  0.00  0.00     0.028 C 
ATOM     10  C   LIG d   1       3.582  86.583 115.329  0.00  0.00     0.006 C 
ENDBRANCH   8   9
BRANCH   8  11
ATOM     11  C   LIG d   1       0.422  86.137 114.946  0.00  0.00     0.028 C 
ATOM     12  C   LIG d   1      -1.034  85.765 115.266  0.00  0.00     0.006 C 
ENDBRANCH   8  11
ENDBRANCH   7   8
ENDBRANCH   1   7
BRANCH   6  13
ATOM     13  N   LIG d   1       3.375  90.205 117.017  0.00  0.00    -0.311 N 
ATOM     14  C   LIG d   1       4.252  90.176 116.014  0.00  0.00     0.210 C 
ATOM     15  C   LIG d   1       5.710  89.973 116.435  0.00  0.00     0.109 C 
ATOM     16  O   LIG d   1       3.963  90.331 114.818  0.00  0.00    -0.276 OA
ATOM     17  H   LIG d   1       3.700  90.103 117.958  0.00  0.00     0.149 HD
ENDBRANCH   6  13
BRANCH   5  18
ATOM     18  N   LIG d   1       1.845  92.813 117.446  0.00  0.00     0.381 N 
ATOM     19  H   LIG d   1       2.815  92.855 117.688  0.00  0.00    -0.090 HD
ATOM     20  H   LIG d   1       1.350  93.484 118.008  0.00  0.00    -0.090 HD
ATOM     21  H   LIG d   1       1.726  93.027 116.480  0.00  0.00    -0.090 HD
ENDBRANCH   5  18
BRANCH   3  22
ATOM     22  C   LIG d   1      -2.117  90.207 118.116  0.00  0.00     0.382 C 
ATOM     23  O   LIG d   1      -2.499  91.007 119.003  0.00  0.00    -0.241 OA
ATOM     24  O   LIG d   1      -2.905  89.342 117.689  0.00  0.00    -0.241 OA
ENDBRANCH   3  22
TORSDOF 7
ENDMDL
MODEL 6
REMARK VINA RESULT:      -4.3      2.939      5.921
REMARK  7 active torsions:
REMARK  status: ('A' for Active; 'I' for Inactive)
REMARK    1  A    between atoms: C_2  and  C_3 
REMARK    2  A    between atoms: C_3  and  O_6 
REMARK    3  A    between atoms: C_3  and  C_4 
REMARK    4  A    between atoms: C_7  and  O_6 
REMARK    5  A    between atoms: C_9  and  C_10 
REMARK    6  A    between atoms: N_15  and  C_14 
REMARK    7  A    between atoms: N_20  and  C_19 
REMARK       I    between atoms: C_22  and  N_20 
ROOT
ATOM      1  C   LIG d   1       0.265  91.506 117.118  0.00  0.00     0.161 C 
ATOM      2  C   LIG d   1       1.608  91.879 117.293  0.00  0.00     0.016 C 
ATOM      3  C   LIG d   1       2.027  92.873 118.206  0.00  0.00     0.038 C 
ATOM      4  C   LIG d   1       1.141  93.460 119.121  0.00  0.00     0.028 C 
ATOM      5  C   LIG d   1      -0.305  93.480 118.636  0.00  0.00    -0.047 C 
ATOM      6  C   LIG d   1      -0.703  92.056 118.186  0.00  0.00     0.091 C 
ENDROOT
BRANCH   1   7
ATOM      7  O   LIG d   1       0.163  90.070 117.041  0.00  0.00    -0.368 OA
BRANCH   7   8
ATOM      8  C   LIG d   1       1.289  89.322 117.562  0.00  0.00     0.119 C 
BRANCH   8   9
ATOM      9  C   LIG d   1       1.463  88.072 116.677  0.00  0.00     0.028 C 
ATOM     10  C   LIG d   1       1.759  86.807 117.500  0.00  0.00     0.006 C 
ENDBRANCH   8   9
BRANCH   8  11
ATOM     11  C   LIG d   1       1.000  88.787 118.967  0.00  0.00     0.028 C 
ATOM     12  C   LIG d   1       1.752  89.557 120.064  0.00  0.00     0.006 C 
ENDBRANCH   8  11
ENDBRANCH   7   8
ENDBRANCH   1   7
BRANCH   6  13
ATOM     13  N   LIG d   1      -2.076  92.004 117.619  0.00  0.00    -0.311 N 
ATOM     14  C   LIG d   1      -3.169  91.835 118.360  0.00  0.00     0.210 C 
ATOM     15  C   LIG d   1      -4.483  91.790 117.573  0.00  0.00     0.109 C 
ATOM     16  O   LIG d   1      -3.179  91.751 119.597  0.00  0.00    -0.276 OA
ATOM     17  H   LIG d   1      -2.163  92.095 116.625  0.00  0.00     0.149 HD
ENDBRANCH   6  13
BRANCH   5  18
ATOM     18  N   LIG d   1      -1.139  93.991 119.741  0.00  0.00     0.381 N 
ATOM     19  H   LIG d   1      -1.319  94.966 119.606  0.00  0.00    -0.090 HD
ATOM     20  H   LIG d   1      -0.637  93.880 120.605  0.00  0.00    -0.090 HD
ATOM     21  H   LIG d   1      -1.998  93.489 119.780  0.00  0.00    -0.090 HD
ENDBRANCH   5  18
BRANCH   3  22
ATOM     22  C   LIG d   1       3.340  93.319 118.182  0.00  0.00     0.382 C 
ATOM     23  O   LIG d   1       3.854  93.812 119.215  0.00  0.00    -0.241 OA
ATOM     24  O   LIG d   1       4.003  93.276 117.128  0.00  0.00    -0.241 OA
ENDBRANCH   3  22
TORSDOF 7
ENDMDL
MODEL 7
REMARK VINA RESULT:      -4.3      1.222      1.456
REMARK  7 active torsions:
REMARK  status: ('A' for Active; 'I' for Inactive)
REMARK    1  A    between atoms: C_2  and  C_3 
REMARK    2  A    between atoms: C_3  and  O_6 
REMARK    3  A    between atoms: C_3  and  C_4 
REMARK    4  A    between atoms: C_7  and  O_6 
REMARK    5  A    between atoms: C_9  and  C_10 
REMARK    6  A    between atoms: N_15  and  C_14 
REMARK    7  A    between atoms: N_20  and  C_19 
REMARK       I    between atoms: C_22  and  N_20 
ROOT
ATOM      1  C   LIG d   1      -3.626  91.563 118.150  0.00  0.00     0.161 C 
ATOM      2  C   LIG d   1      -4.005  90.774 117.051  0.00  0.00     0.016 C 
ATOM      3  C   LIG d   1      -5.237  90.923 116.374  0.00  0.00     0.038 C 
ATOM      4  C   LIG d   1      -6.115  91.980 116.658  0.00  0.00     0.028 C 
ATOM      5  C   LIG d   1      -6.006  92.491 118.090  0.00  0.00    -0.047 C 
ATOM      6  C   LIG d   1      -4.522  92.793 118.403  0.00  0.00     0.091 C 
ENDROOT
BRANCH   1   7
ATOM      7  O   LIG d   1      -2.249  91.967 118.009  0.00  0.00    -0.368 OA
BRANCH   7   8
ATOM      8  C   LIG d   1      -1.279  91.195 118.760  0.00  0.00     0.119 C 
BRANCH   8   9
ATOM      9  C   LIG d   1      -0.674  92.126 119.828  0.00  0.00     0.028 C 
ATOM     10  C   LIG d   1      -1.368  91.982 121.193  0.00  0.00     0.006 C 
ENDBRANCH   8   9
BRANCH   8  11
ATOM     11  C   LIG d   1      -0.101  90.771 117.877  0.00  0.00     0.028 C 
ATOM     12  C   LIG d   1      -0.256  89.348 117.319  0.00  0.00     0.006 C 
ENDBRANCH   8  11
ENDBRANCH   7   8
ENDBRANCH   1   7
BRANCH   6  13
ATOM     13  N   LIG d   1      -4.315  93.218 119.811  0.00  0.00    -0.311 N 
ATOM     14  C   LIG d   1      -4.284  94.494 120.195  0.00  0.00     0.210 C 
ATOM     15  C   LIG d   1      -4.038  94.713 121.691  0.00  0.00     0.109 C 
ATOM     16  O   LIG d   1      -4.469  95.463 119.444  0.00  0.00    -0.276 OA
ATOM     17  H   LIG d   1      -4.187  92.495 120.492  0.00  0.00     0.149 HD
ENDBRANCH   6  13
BRANCH   5  18
ATOM     18  N   LIG d   1      -6.874  93.677 118.208  0.00  0.00     0.381 N 
ATOM     19  H   LIG d   1      -7.643  93.599 117.572  0.00  0.00    -0.090 HD
ATOM     20  H   LIG d   1      -6.344  94.494 117.962  0.00  0.00    -0.090 HD
ATOM     21  H   LIG d   1      -7.213  93.761 119.141  0.00  0.00    -0.090 HD
ENDBRANCH   5  18
BRANCH   3  22
ATOM     22  C   LIG d   1      -5.619  89.985 115.428  0.00  0.00     0.382 C 
ATOM     23  O   LIG d   1      -5.099  88.843 115.431  0.00  0.00    -0.241 OA
ATOM     24  O   LIG d   1      -6.446  90.280 114.544  0.00  0.00    -0.241 OA
ENDBRANCH   3  22
TORSDOF 7
ENDMDL
MODEL 8
REMARK VINA RESULT:      -4.2      1.872      5.268
REMARK  7 active torsions:
REMARK  status: ('A' for Active; 'I' for Inactive)
REMARK    1  A    between atoms: C_2  and  C_3 
REMARK    2  A    between atoms: C_3  and  O_6 
REMARK    3  A    between atoms: C_3  and  C_4 
REMARK    4  A    between atoms: C_7  and  O_6 
REMARK    5  A    between atoms: C_9  and  C_10 
REMARK    6  A    between atoms: N_15  and  C_14 
REMARK    7  A    between atoms: N_20  and  C_19 
REMARK       I    between atoms: C_22  and  N_20 
ROOT
ATOM      1  C   LIG d   1      -2.023  93.126 117.904  0.00  0.00     0.161 C 
ATOM      2  C   LIG d   1      -1.331  94.027 118.729  0.00  0.00     0.016 C 
ATOM      3  C   LIG d   1      -1.808  94.453 119.990  0.00  0.00     0.038 C 
ATOM      4  C   LIG d   1      -2.947  93.885 120.581  0.00  0.00     0.028 C 
ATOM      5  C   LIG d   1      -3.950  93.344 119.568  0.00  0.00    -0.047 C 
ATOM      6  C   LIG d   1      -3.212  92.412 118.581  0.00  0.00     0.091 C 
ENDROOT
BRANCH   1   7
ATOM      7  O   LIG d   1      -1.105  92.160 117.356  0.00  0.00    -0.368 OA
BRANCH   7   8
ATOM      8  C   LIG d   1       0.005  91.781 118.207  0.00  0.00     0.119 C 
BRANCH   8   9
ATOM      9  C   LIG d   1       1.285  91.838 117.351  0.00  0.00     0.028 C 
ATOM     10  C   LIG d   1       2.279  92.900 117.851  0.00  0.00     0.006 C 
ENDBRANCH   8   9
BRANCH   8  11
ATOM     11  C   LIG d   1      -0.114  90.324 118.663  0.00  0.00     0.028 C 
ATOM     12  C   LIG d   1       0.175  89.321 117.534  0.00  0.00     0.006 C 
ENDBRANCH   8  11
ENDBRANCH   7   8
ENDBRANCH   1   7
BRANCH   6  13
ATOM     13  N   LIG d   1      -4.104  91.905 117.505  0.00  0.00    -0.311 N 
ATOM     14  C   LIG d   1      -4.100  90.642 117.084  0.00  0.00     0.210 C 
ATOM     15  C   LIG d   1      -5.085  90.335 115.951  0.00  0.00     0.109 C 
ATOM     16  O   LIG d   1      -3.397  89.739 117.562  0.00  0.00    -0.276 OA
ATOM     17  H   LIG d   1      -4.729  92.564 117.083  0.00  0.00     0.149 HD
ENDBRANCH   6  13
BRANCH   5  18
ATOM     18  N   LIG d   1      -5.019  92.660 120.321  0.00  0.00     0.381 N 
ATOM     19  H   LIG d   1      -4.802  92.666 121.297  0.00  0.00    -0.090 HD
ATOM     20  H   LIG d   1      -5.071  91.704 120.015  0.00  0.00    -0.090 HD
ATOM     21  H   LIG d   1      -5.891  93.115 120.163  0.00  0.00    -0.090 HD
ENDBRANCH   5  18
BRANCH   3  22
ATOM     22  C   LIG d   1      -1.166  95.486 120.655  0.00  0.00     0.382 C 
ATOM     23  O   LIG d   1      -0.019  95.307 121.132  0.00  0.00    -0.241 OA
ATOM     24  O   LIG d   1      -1.737  96.580 120.823  0.00  0.00    -0.241 OA
ENDBRANCH   3  22
TORSDOF 7
ENDMDL
MODEL 9
REMARK VINA RESULT:      -4.2      2.077      4.413
REMARK  7 active torsions:
REMARK  status: ('A' for Active; 'I' for Inactive)
REMARK    1  A    between atoms: C_2  and  C_3 
REMARK    2  A    between atoms: C_3  and  O_6 
REMARK    3  A    between atoms: C_3  and  C_4 
REMARK    4  A    between atoms: C_7  and  O_6 
REMARK    5  A    between atoms: C_9  and  C_10 
REMARK    6  A    between atoms: N_15  and  C_14 
REMARK    7  A    between atoms: N_20  and  C_19 
REMARK       I    between atoms: C_22  and  N_20 
ROOT
ATOM      1  C   LIG d   1      -3.961  92.521 118.733  0.00  0.00     0.161 C 
ATOM      2  C   LIG d   1      -4.782  91.918 117.766  0.00  0.00     0.016 C 
ATOM      3  C   LIG d   1      -4.421  90.747 117.060  0.00  0.00     0.038 C 
ATOM      4  C   LIG d   1      -3.273  90.009 117.385  0.00  0.00     0.028 C 
ATOM      5  C   LIG d   1      -2.166  90.854 118.006  0.00  0.00    -0.047 C 
ATOM      6  C   LIG d   1      -2.755  91.669 119.181  0.00  0.00     0.091 C 
ENDROOT
BRANCH   1   7
ATOM      7  O   LIG d   1      -4.753  92.906 119.874  0.00  0.00    -0.368 OA
BRANCH   7   8
ATOM      8  C   LIG d   1      -4.930  94.329 120.077  0.00  0.00     0.119 C 
BRANCH   8   9
ATOM      9  C   LIG d   1      -4.241  94.697 121.405  0.00  0.00     0.028 C 
ATOM     10  C   LIG d   1      -4.122  96.218 121.604  0.00  0.00     0.006 C 
ENDBRANCH   8   9
BRANCH   8  11
ATOM     11  C   LIG d   1      -6.406  94.685 120.274  0.00  0.00     0.028 C 
ATOM     12  C   LIG d   1      -7.175  94.795 118.948  0.00  0.00     0.006 C 
ENDBRANCH   8  11
ENDBRANCH   7   8
ENDBRANCH   1   7
BRANCH   6  13
ATOM     13  N   LIG d   1      -1.758  92.586 119.791  0.00  0.00    -0.311 N 
ATOM     14  C   LIG d   1      -1.280  93.665 119.173  0.00  0.00     0.210 C 
ATOM     15  C   LIG d   1      -0.245  94.462 119.973  0.00  0.00     0.109 C 
ATOM     16  O   LIG d   1      -1.639  94.055 118.052  0.00  0.00    -0.276 OA
ATOM     17  H   LIG d   1      -1.435  92.362 120.712  0.00  0.00     0.149 HD
ENDBRANCH   6  13
BRANCH   5  18
ATOM     18  N   LIG d   1      -1.087  89.939 118.421  0.00  0.00     0.381 N 
ATOM     19  H   LIG d   1      -1.419  88.995 118.410  0.00  0.00    -0.090 HD
ATOM     20  H   LIG d   1      -0.812  90.165 119.361  0.00  0.00    -0.090 HD
ATOM     21  H   LIG d   1      -0.307  90.031 117.808  0.00  0.00    -0.090 HD
ENDBRANCH   5  18
BRANCH   3  22
ATOM     22  C   LIG d   1      -5.194  90.325 115.989  0.00  0.00     0.382 C 
ATOM     23  O   LIG d   1      -5.213  89.112 115.669  0.00  0.00    -0.241 OA
ATOM     24  O   LIG d   1      -5.838  91.148 115.311  0.00  0.00    -0.241 OA
ENDBRANCH   3  22
TORSDOF 7
ENDMDL
