MODEL 1
REMARK VINA RESULT:      -4.6      0.000      0.000
REMARK  7 active torsions:
REMARK  status: ('A' for Active; 'I' for Inactive)
REMARK    1  A    between atoms: C_2  and  C_3 
REMARK    2  A    between atoms: C_3  and  O_6 
REMARK    3  A    between atoms: C_3  and  C_4 
REMARK    4  A    between atoms: C_7  and  O_6 
REMARK    5  A    between atoms: C_9  and  C_10 
REMARK    6  A    between atoms: N_15  and  C_14 
REMARK    7  A    between atoms: N_20  and  C_19 
REMARK       I    between atoms: C_22  and  N_20 
ROOT
ATOM      1  C   LIG d   1       1.622  89.539 116.669  0.00  0.00     0.161 C 
ATOM      2  C   LIG d   1       0.240  89.302 116.749  0.00  0.00     0.016 C 
ATOM      3  C   LIG d   1      -0.631  90.048 117.575  0.00  0.00     0.038 C 
ATOM      4  C   LIG d   1      -0.200  91.189 118.268  0.00  0.00     0.028 C 
ATOM      5  C   LIG d   1       1.285  91.163 118.613  0.00  0.00    -0.047 C 
ATOM      6  C   LIG d   1       2.093  90.851 117.332  0.00  0.00     0.091 C 
ENDROOT
BRANCH   1   7
ATOM      7  O   LIG d   1       2.047  89.494 115.292  0.00  0.00    -0.368 OA
BRANCH   7   8
ATOM      8  C   LIG d   1       2.908  88.387 114.927  0.00  0.00     0.119 C 
BRANCH   8   9
ATOM      9  C   LIG d   1       3.104  87.518 116.185  0.00  0.00     0.028 C 
ATOM     10  C   LIG d   1       2.613  86.075 115.984  0.00  0.00     0.006 C 
ENDBRANCH   8   9
BRANCH   8  11
ATOM     11  C   LIG d   1       4.309  88.872 114.547  0.00  0.00     0.028 C 
ATOM     12  C   LIG d   1       5.391  88.402 115.533  0.00  0.00     0.006 C 
ENDBRANCH   8  11
ENDBRANCH   7   8
ENDBRANCH   1   7
BRANCH   6  13
ATOM     13  N   LIG d   1       3.549  90.723 117.598  0.00  0.00    -0.311 N 
ATOM     14  C   LIG d   1       4.408  91.733 117.472  0.00  0.00     0.210 C 
ATOM     15  C   LIG d   1       5.868  91.382 117.775  0.00  0.00     0.109 C 
ATOM     16  O   LIG d   1       4.095  92.895 117.170  0.00  0.00    -0.276 OA
ATOM     17  H   LIG d   1       3.885  89.823 117.878  0.00  0.00     0.149 HD
ENDBRANCH   6  13
BRANCH   5  18
ATOM     18  N   LIG d   1       1.627  92.469 119.208  0.00  0.00     0.381 N 
ATOM     19  H   LIG d   1       1.992  93.077 118.503  0.00  0.00    -0.090 HD
ATOM     20  H   LIG d   1       2.339  92.332 119.905  0.00  0.00    -0.090 HD
ATOM     21  H   LIG d   1       0.819  92.876 119.624  0.00  0.00    -0.090 HD
ENDBRANCH   5  18
BRANCH   3  22
ATOM     22  C   LIG d   1      -1.943  89.631 117.745  0.00  0.00     0.382 C 
ATOM     23  O   LIG d   1      -2.876  90.250 117.180  0.00  0.00    -0.241 OA
ATOM     24  O   LIG d   1      -2.208  88.670 118.493  0.00  0.00    -0.241 OA
ENDBRANCH   3  22
TORSDOF 7
ENDMDL
MODEL 2
REMARK VINA RESULT:      -4.5      0.915      1.652
REMARK  7 active torsions:
REMARK  status: ('A' for Active; 'I' for Inactive)
REMARK    1  A    between atoms: C_2  and  C_3 
REMARK    2  A    between atoms: C_3  and  O_6 
REMARK    3  A    between atoms: C_3  and  C_4 
REMARK    4  A    between atoms: C_7  and  O_6 
REMARK    5  A    between atoms: C_9  and  C_10 
REMARK    6  A    between atoms: N_15  and  C_14 
REMARK    7  A    between atoms: N_20  and  C_19 
REMARK       I    between atoms: C_22  and  N_20 
ROOT
ATOM      1  C   LIG d   1       1.734  90.135 117.209  0.00  0.00     0.161 C 
ATOM      2  C   LIG d   1       0.394  89.737 117.066  0.00  0.00     0.016 C 
ATOM      3  C   LIG d   1      -0.679  90.361 117.741  0.00  0.00     0.038 C 
ATOM      4  C   LIG d   1      -0.502  91.532 118.493  0.00  0.00     0.028 C 
ATOM      5  C   LIG d   1       0.902  91.673 119.072  0.00  0.00    -0.047 C 
ATOM      6  C   LIG d   1       1.934  91.480 117.938  0.00  0.00     0.091 C 
ENDROOT
BRANCH   1   7
ATOM      7  O   LIG d   1       2.375  90.165 115.918  0.00  0.00    -0.368 OA
BRANCH   7   8
ATOM      8  C   LIG d   1       3.361  89.132 115.673  0.00  0.00     0.119 C 
BRANCH   8   9
ATOM      9  C   LIG d   1       4.676  89.832 115.280  0.00  0.00     0.028 C 
ATOM     10  C   LIG d   1       5.858  89.400 116.163  0.00  0.00     0.006 C 
ENDBRANCH   8   9
BRANCH   8  11
ATOM     11  C   LIG d   1       2.981  88.274 114.462  0.00  0.00     0.028 C 
ATOM     12  C   LIG d   1       2.171  87.026 114.847  0.00  0.00     0.006 C 
ENDBRANCH   8  11
ENDBRANCH   7   8
ENDBRANCH   1   7
BRANCH   6  13
ATOM     13  N   LIG d   1       3.335  91.519 118.433  0.00  0.00    -0.311 N 
ATOM     14  C   LIG d   1       4.269  92.324 117.929  0.00  0.00     0.210 C 
ATOM     15  C   LIG d   1       5.653  92.190 118.572  0.00  0.00     0.109 C 
ATOM     16  O   LIG d   1       4.075  93.158 117.032  0.00  0.00    -0.276 OA
ATOM     17  H   LIG d   1       3.572  90.897 119.181  0.00  0.00     0.149 HD
ENDBRANCH   6  13
BRANCH   5  18
ATOM     18  N   LIG d   1       0.988  92.999 119.714  0.00  0.00     0.381 N 
ATOM     19  H   LIG d   1       1.947  93.234 119.877  0.00  0.00    -0.090 HD
ATOM     20  H   LIG d   1       0.517  92.962 120.600  0.00  0.00    -0.090 HD
ATOM     21  H   LIG d   1       0.564  93.687 119.132  0.00  0.00    -0.090 HD
ENDBRANCH   5  18
BRANCH   3  22
ATOM     22  C   LIG d   1      -1.942  89.790 117.700  0.00  0.00     0.382 C 
ATOM     23  O   LIG d   1      -2.888  90.400 117.145  0.00  0.00    -0.241 OA
ATOM     24  O   LIG d   1      -2.158  88.693 118.248  0.00  0.00    -0.241 OA
ENDBRANCH   3  22
TORSDOF 7
ENDMDL
MODEL 3
REMARK VINA RESULT:      -4.5      2.342      5.426
REMARK  7 active torsions:
REMARK  status: ('A' for Active; 'I' for Inactive)
REMARK    1  A    between atoms: C_2  and  C_3 
REMARK    2  A    between atoms: C_3  and  O_6 
REMARK    3  A    between atoms: C_3  and  C_4 
REMARK    4  A    between atoms: C_7  and  O_6 
REMARK    5  A    between atoms: C_9  and  C_10 
REMARK    6  A    between atoms: N_15  and  C_14 
REMARK    7  A    between atoms: N_20  and  C_19 
REMARK       I    between atoms: C_22  and  N_20 
ROOT
ATOM      1  C   LIG d   1      -0.068  89.869 116.686  0.00  0.00     0.161 C 
ATOM      2  C   LIG d   1       1.298  89.655 116.437  0.00  0.00     0.016 C 
ATOM      3  C   LIG d   1       2.306  90.585 116.780  0.00  0.00     0.038 C 
ATOM      4  C   LIG d   1       2.030  91.733 117.537  0.00  0.00     0.028 C 
ATOM      5  C   LIG d   1       0.601  92.238 117.371  0.00  0.00    -0.047 C 
ATOM      6  C   LIG d   1      -0.377  91.065 117.610  0.00  0.00     0.091 C 
ENDROOT
BRANCH   1   7
ATOM      7  O   LIG d   1      -0.664  88.665 117.208  0.00  0.00    -0.368 OA
BRANCH   7   8
ATOM      8  C   LIG d   1      -0.346  88.342 118.585  0.00  0.00     0.119 C 
BRANCH   8   9
ATOM      9  C   LIG d   1       0.222  86.909 118.604  0.00  0.00     0.028 C 
ATOM     10  C   LIG d   1       1.745  86.885 118.813  0.00  0.00     0.006 C 
ENDBRANCH   8   9
BRANCH   8  11
ATOM     11  C   LIG d   1      -1.609  88.289 119.450  0.00  0.00     0.028 C 
ATOM     12  C   LIG d   1      -1.653  87.056 120.366  0.00  0.00     0.006 C 
ENDBRANCH   8  11
ENDBRANCH   7   8
ENDBRANCH   1   7
BRANCH   6  13
ATOM     13  N   LIG d   1      -1.794  91.453 117.385  0.00  0.00    -0.311 N 
ATOM     14  C   LIG d   1      -2.588  91.922 118.346  0.00  0.00     0.210 C 
ATOM     15  C   LIG d   1      -4.019  92.243 117.904  0.00  0.00     0.109 C 
ATOM     16  O   LIG d   1      -2.233  92.133 119.516  0.00  0.00    -0.276 OA
ATOM     17  H   LIG d   1      -2.155  91.344 116.457  0.00  0.00     0.149 HD
ENDBRANCH   6  13
BRANCH   5  18
ATOM     18  N   LIG d   1       0.409  93.353 118.318  0.00  0.00     0.381 N 
ATOM     19  H   LIG d   1       1.225  93.932 118.329  0.00  0.00    -0.090 HD
ATOM     20  H   LIG d   1       0.276  92.977 119.240  0.00  0.00    -0.090 HD
ATOM     21  H   LIG d   1      -0.386  93.892 118.053  0.00  0.00    -0.090 HD
ENDBRANCH   5  18
BRANCH   3  22
ATOM     22  C   LIG d   1       3.603  90.389 116.330  0.00  0.00     0.382 C 
ATOM     23  O   LIG d   1       4.548  90.318 117.153  0.00  0.00    -0.241 OA
ATOM     24  O   LIG d   1       3.846  90.327 115.110  0.00  0.00    -0.241 OA
ENDBRANCH   3  22
TORSDOF 7
ENDMDL
MODEL 4
REMARK VINA RESULT:      -4.5      2.248      5.049
REMARK  7 active torsions:
REMARK  status: ('A' for Active; 'I' for Inactive)
REMARK    1  A    between atoms: C_2  and  C_3 
REMARK    2  A    between atoms: C_3  and  O_6 
REMARK    3  A    between atoms: C_3  and  C_4 
REMARK    4  A    between atoms: C_7  and  O_6 
REMARK    5  A    between atoms: C_9  and  C_10 
REMARK    6  A    between atoms: N_15  and  C_14 
REMARK    7  A    between atoms: N_20  and  C_19 
REMARK       I    between atoms: C_22  and  N_20 
ROOT
ATOM      1  C   LIG d   1       1.467  89.860 116.235  0.00  0.00     0.161 C 
ATOM      2  C   LIG d   1       2.532  89.009 115.897  0.00  0.00     0.016 C 
ATOM      3  C   LIG d   1       3.873  89.256 116.269  0.00  0.00     0.038 C 
ATOM      4  C   LIG d   1       4.221  90.300 117.139  0.00  0.00     0.028 C 
ATOM      5  C   LIG d   1       3.251  91.476 117.092  0.00  0.00    -0.047 C 
ATOM      6  C   LIG d   1       1.811  90.945 117.277  0.00  0.00     0.091 C 
ENDROOT
BRANCH   1   7
ATOM      7  O   LIG d   1       0.339  89.080 116.678  0.00  0.00    -0.368 OA
BRANCH   7   8
ATOM      8  C   LIG d   1       0.304  88.754 118.089  0.00  0.00     0.119 C 
BRANCH   8   9
ATOM      9  C   LIG d   1       0.515  87.233 118.218  0.00  0.00     0.028 C 
ATOM     10  C   LIG d   1      -0.439  86.593 119.240  0.00  0.00     0.006 C 
ENDBRANCH   8   9
BRANCH   8  11
ATOM     11  C   LIG d   1      -1.079  89.024 118.689  0.00  0.00     0.028 C 
ATOM     12  C   LIG d   1      -2.003  89.796 117.734  0.00  0.00     0.006 C 
ENDBRANCH   8  11
ENDBRANCH   7   8
ENDBRANCH   1   7
BRANCH   6  13
ATOM     13  N   LIG d   1       0.791  92.020 117.160  0.00  0.00    -0.311 N 
ATOM     14  C   LIG d   1       0.298  92.679 118.207  0.00  0.00     0.210 C 
ATOM     15  C   LIG d   1      -0.759  93.735 117.867  0.00  0.00     0.109 C 
ATOM     16  O   LIG d   1       0.658  92.511 119.382  0.00  0.00    -0.276 OA
ATOM     17  H   LIG d   1       0.466  92.242 116.239  0.00  0.00     0.149 HD
ENDBRANCH   6  13
BRANCH   5  18
ATOM     18  N   LIG d   1       3.654  92.429 118.143  0.00  0.00     0.381 N 
ATOM     19  H   LIG d   1       3.277  93.334 117.943  0.00  0.00    -0.090 HD
ATOM     20  H   LIG d   1       4.657  92.499 118.151  0.00  0.00    -0.090 HD
ATOM     21  H   LIG d   1       3.330  92.115 119.031  0.00  0.00    -0.090 HD
ENDBRANCH   5  18
BRANCH   3  22
ATOM     22  C   LIG d   1       4.889  88.476 115.737  0.00  0.00     0.382 C 
ATOM     23  O   LIG d   1       5.868  89.021 115.173  0.00  0.00    -0.241 OA
ATOM     24  O   LIG d   1       4.817  87.233 115.775  0.00  0.00    -0.241 OA
ENDBRANCH   3  22
TORSDOF 7
ENDMDL
MODEL 5
REMARK VINA RESULT:      -4.4      2.460      4.190
REMARK  7 active torsions:
REMARK  status: ('A' for Active; 'I' for Inactive)
REMARK    1  A    between atoms: C_2  and  C_3 
REMARK    2  A    between atoms: C_3  and  O_6 
REMARK    3  A    between atoms: C_3  and  C_4 
REMARK    4  A    between atoms: C_7  and  O_6 
REMARK    5  A    between atoms: C_9  and  C_10 
REMARK    6  A    between atoms: N_15  and  C_14 
REMARK    7  A    between atoms: N_20  and  C_19 
REMARK       I    between atoms: C_22  and  N_20 
ROOT
ATOM      1  C   LIG d   1       1.961  90.991 117.179  0.00  0.00     0.161 C 
ATOM      2  C   LIG d   1       1.438  92.152 117.771  0.00  0.00     0.016 C 
ATOM      3  C   LIG d   1       0.076  92.303 118.119  0.00  0.00     0.038 C 
ATOM      4  C   LIG d   1      -0.833  91.237 118.037  0.00  0.00     0.028 C 
ATOM      5  C   LIG d   1      -0.463  90.207 116.975  0.00  0.00    -0.047 C 
ATOM      6  C   LIG d   1       1.007  89.777 117.183  0.00  0.00     0.091 C 
ENDROOT
BRANCH   1   7
ATOM      7  O   LIG d   1       3.214  90.646 117.802  0.00  0.00    -0.368 OA
BRANCH   7   8
ATOM      8  C   LIG d   1       4.408  91.147 117.153  0.00  0.00     0.119 C 
BRANCH   8   9
ATOM      9  C   LIG d   1       5.140  89.941 116.534  0.00  0.00     0.028 C 
ATOM     10  C   LIG d   1       4.809  89.755 115.044  0.00  0.00     0.006 C 
ENDBRANCH   8   9
BRANCH   8  11
ATOM     11  C   LIG d   1       5.388  91.739 118.170  0.00  0.00     0.028 C 
ATOM     12  C   LIG d   1       5.043  93.185 118.559  0.00  0.00     0.006 C 
ENDBRANCH   8  11
ENDBRANCH   7   8
ENDBRANCH   1   7
BRANCH   6  13
ATOM     13  N   LIG d   1       1.476  88.834 116.135  0.00  0.00    -0.311 N 
ATOM     14  C   LIG d   1       1.965  87.624 116.403  0.00  0.00     0.210 C 
ATOM     15  C   LIG d   1       2.409  86.820 115.177  0.00  0.00     0.109 C 
ATOM     16  O   LIG d   1       2.043  87.128 117.537  0.00  0.00    -0.276 OA
ATOM     17  H   LIG d   1       1.419  89.143 115.184  0.00  0.00     0.149 HD
ENDBRANCH   6  13
BRANCH   5  18
ATOM     18  N   LIG d   1      -1.415  89.086 117.091  0.00  0.00     0.381 N 
ATOM     19  H   LIG d   1      -1.949  89.181 117.931  0.00  0.00    -0.090 HD
ATOM     20  H   LIG d   1      -0.899  88.225 117.141  0.00  0.00    -0.090 HD
ATOM     21  H   LIG d   1      -2.023  89.072 116.302  0.00  0.00    -0.090 HD
ENDBRANCH   5  18
BRANCH   3  22
ATOM     22  C   LIG d   1      -0.398  93.543 118.519  0.00  0.00     0.382 C 
ATOM     23  O   LIG d   1      -0.313  93.889 119.722  0.00  0.00    -0.241 OA
ATOM     24  O   LIG d   1      -0.950  94.302 117.700  0.00  0.00    -0.241 OA
ENDBRANCH   3  22
TORSDOF 7
ENDMDL
MODEL 6
REMARK VINA RESULT:      -4.3      2.579      5.415
REMARK  7 active torsions:
REMARK  status: ('A' for Active; 'I' for Inactive)
REMARK    1  A    between atoms: C_2  and  C_3 
REMARK    2  A    between atoms: C_3  and  O_6 
REMARK    3  A    between atoms: C_3  and  C_4 
REMARK    4  A    between atoms: C_7  and  O_6 
REMARK    5  A    between atoms: C_9  and  C_10 
REMARK    6  A    between atoms: N_15  and  C_14 
REMARK    7  A    between atoms: N_20  and  C_19 
REMARK       I    between atoms: C_22  and  N_20 
ROOT
ATOM      1  C   LIG d   1       0.566  91.751 117.092  0.00  0.00     0.161 C 
ATOM      2  C   LIG d   1       1.934  91.681 117.405  0.00  0.00     0.016 C 
ATOM      3  C   LIG d   1       2.475  92.134 118.630  0.00  0.00     0.038 C 
ATOM      4  C   LIG d   1       1.660  92.551 119.693  0.00  0.00     0.028 C 
ATOM      5  C   LIG d   1       0.316  93.112 119.240  0.00  0.00    -0.047 C 
ATOM      6  C   LIG d   1      -0.353  92.100 118.281  0.00  0.00     0.091 C 
ENDROOT
BRANCH   1   7
ATOM      7  O   LIG d   1       0.143  90.518 116.476  0.00  0.00    -0.368 OA
BRANCH   7   8
ATOM      8  C   LIG d   1       0.183  89.339 117.317  0.00  0.00     0.119 C 
BRANCH   8   9
ATOM      9  C   LIG d   1       0.907  88.232 116.527  0.00  0.00     0.028 C 
ATOM     10  C   LIG d   1       1.410  87.096 117.434  0.00  0.00     0.006 C 
ENDBRANCH   8   9
BRANCH   8  11
ATOM     11  C   LIG d   1      -1.223  88.795 117.583  0.00  0.00     0.028 C 
ATOM     12  C   LIG d   1      -1.532  88.647 119.081  0.00  0.00     0.006 C 
ENDBRANCH   8  11
ENDBRANCH   7   8
ENDBRANCH   1   7
BRANCH   6  13
ATOM     13  N   LIG d   1      -1.634  92.608 117.725  0.00  0.00    -0.311 N 
ATOM     14  C   LIG d   1      -2.813  92.427 118.318  0.00  0.00     0.210 C 
ATOM     15  C   LIG d   1      -4.012  93.014 117.566  0.00  0.00     0.109 C 
ATOM     16  O   LIG d   1      -2.976  91.865 119.411  0.00  0.00    -0.276 OA
ATOM     17  H   LIG d   1      -1.590  93.103 116.856  0.00  0.00     0.149 HD
ENDBRANCH   6  13
BRANCH   5  18
ATOM     18  N   LIG d   1      -0.486  93.379 120.449  0.00  0.00     0.381 N 
ATOM     19  H   LIG d   1      -1.452  93.464 120.203  0.00  0.00    -0.090 HD
ATOM     20  H   LIG d   1      -0.185  94.248 120.853  0.00  0.00    -0.090 HD
ATOM     21  H   LIG d   1      -0.367  92.640 121.107  0.00  0.00    -0.090 HD
ENDBRANCH   5  18
BRANCH   3  22
ATOM     22  C   LIG d   1       3.851  92.209 118.787  0.00  0.00     0.382 C 
ATOM     23  O   LIG d   1       4.546  92.824 117.942  0.00  0.00    -0.241 OA
ATOM     24  O   LIG d   1       4.411  91.633 119.739  0.00  0.00    -0.241 OA
ENDBRANCH   3  22
TORSDOF 7
ENDMDL
MODEL 7
REMARK VINA RESULT:      -4.1      2.478      3.960
REMARK  7 active torsions:
REMARK  status: ('A' for Active; 'I' for Inactive)
REMARK    1  A    between atoms: C_2  and  C_3 
REMARK    2  A    between atoms: C_3  and  O_6 
REMARK    3  A    between atoms: C_3  and  C_4 
REMARK    4  A    between atoms: C_7  and  O_6 
REMARK    5  A    between atoms: C_9  and  C_10 
REMARK    6  A    between atoms: N_15  and  C_14 
REMARK    7  A    between atoms: N_20  and  C_19 
REMARK       I    between atoms: C_22  and  N_20 
ROOT
ATOM      1  C   LIG d   1       1.400  90.574 117.587  0.00  0.00     0.161 C 
ATOM      2  C   LIG d   1       1.590  89.239 117.980  0.00  0.00     0.016 C 
ATOM      3  C   LIG d   1       0.555  88.277 117.995  0.00  0.00     0.038 C 
ATOM      4  C   LIG d   1      -0.717  88.549 117.469  0.00  0.00     0.028 C 
ATOM      5  C   LIG d   1      -1.095  90.025 117.530  0.00  0.00    -0.047 C 
ATOM      6  C   LIG d   1       0.046  90.860 116.905  0.00  0.00     0.091 C 
ENDROOT
BRANCH   1   7
ATOM      7  O   LIG d   1       2.487  90.993 116.738  0.00  0.00    -0.368 OA
BRANCH   7   8
ATOM      8  C   LIG d   1       3.597  90.070 116.622  0.00  0.00     0.119 C 
BRANCH   8   9
ATOM      9  C   LIG d   1       4.860  90.800 117.117  0.00  0.00     0.028 C 
ATOM     10  C   LIG d   1       6.156  90.117 116.647  0.00  0.00     0.006 C 
ENDBRANCH   8   9
BRANCH   8  11
ATOM     11  C   LIG d   1       3.879  89.719 115.158  0.00  0.00     0.028 C 
ATOM     12  C   LIG d   1       3.117  88.470 114.687  0.00  0.00     0.006 C 
ENDBRANCH   8  11
ENDBRANCH   7   8
ENDBRANCH   1   7
BRANCH   6  13
ATOM     13  N   LIG d   1      -0.206  92.322 116.999  0.00  0.00    -0.311 N 
ATOM     14  C   LIG d   1      -0.775  92.902 118.055  0.00  0.00     0.210 C 
ATOM     15  C   LIG d   1      -0.960  94.418 117.939  0.00  0.00     0.109 C 
ATOM     16  O   LIG d   1      -1.117  92.308 119.089  0.00  0.00    -0.276 OA
ATOM     17  H   LIG d   1       0.069  92.884 116.217  0.00  0.00     0.149 HD
ENDBRANCH   6  13
BRANCH   5  18
ATOM     18  N   LIG d   1      -2.381  90.185 116.826  0.00  0.00     0.381 N 
ATOM     19  H   LIG d   1      -2.513  91.144 116.574  0.00  0.00    -0.090 HD
ATOM     20  H   LIG d   1      -3.126  89.916 117.445  0.00  0.00    -0.090 HD
ATOM     21  H   LIG d   1      -2.397  89.614 116.009  0.00  0.00    -0.090 HD
ENDBRANCH   5  18
BRANCH   3  22
ATOM     22  C   LIG d   1       0.776  87.038 118.577  0.00  0.00     0.382 C 
ATOM     23  O   LIG d   1       1.223  86.091 117.885  0.00  0.00    -0.241 OA
ATOM     24  O   LIG d   1       0.493  86.843 119.774  0.00  0.00    -0.241 OA
ENDBRANCH   3  22
TORSDOF 7
ENDMDL
MODEL 8
REMARK VINA RESULT:      -4.0      3.486      6.087
REMARK  7 active torsions:
REMARK  status: ('A' for Active; 'I' for Inactive)
REMARK    1  A    between atoms: C_2  and  C_3 
REMARK    2  A    between atoms: C_3  and  O_6 
REMARK    3  A    between atoms: C_3  and  C_4 
REMARK    4  A    between atoms: C_7  and  O_6 
REMARK    5  A    between atoms: C_9  and  C_10 
REMARK    6  A    between atoms: N_15  and  C_14 
REMARK    7  A    between atoms: N_20  and  C_19 
REMARK       I    between atoms: C_22  and  N_20 
ROOT
ATOM      1  C   LIG d   1      -1.064  91.124 118.640  0.00  0.00     0.161 C 
ATOM      2  C   LIG d   1       0.173  91.391 119.250  0.00  0.00     0.016 C 
ATOM      3  C   LIG d   1       0.619  92.695 119.567  0.00  0.00     0.038 C 
ATOM      4  C   LIG d   1      -0.214  93.816 119.434  0.00  0.00     0.028 C 
ATOM      5  C   LIG d   1      -1.279  93.654 118.355  0.00  0.00    -0.047 C 
ATOM      6  C   LIG d   1      -2.032  92.324 118.589  0.00  0.00     0.091 C 
ENDROOT
BRANCH   1   7
ATOM      7  O   LIG d   1      -1.694  90.000 119.286  0.00  0.00    -0.368 OA
BRANCH   7   8
ATOM      8  C   LIG d   1      -1.674  88.750 118.552  0.00  0.00     0.119 C 
BRANCH   8   9
ATOM      9  C   LIG d   1      -0.945  87.712 119.427  0.00  0.00     0.028 C 
ATOM     10  C   LIG d   1      -1.081  88.011 120.929  0.00  0.00     0.006 C 
ENDBRANCH   8   9
BRANCH   8  11
ATOM     11  C   LIG d   1      -0.835  88.866 117.277  0.00  0.00     0.028 C 
ATOM     12  C   LIG d   1       0.476  88.067 117.350  0.00  0.00     0.006 C 
ENDBRANCH   8  11
ENDBRANCH   7   8
ENDBRANCH   1   7
BRANCH   6  13
ATOM     13  N   LIG d   1      -3.036  92.047 117.528  0.00  0.00    -0.311 N 
ATOM     14  C   LIG d   1      -4.282  92.517 117.557  0.00  0.00     0.210 C 
ATOM     15  C   LIG d   1      -5.160  92.096 116.375  0.00  0.00     0.109 C 
ATOM     16  O   LIG d   1      -4.734  93.270 118.434  0.00  0.00    -0.276 OA
ATOM     17  H   LIG d   1      -2.744  91.470 116.764  0.00  0.00     0.149 HD
ENDBRANCH   6  13
BRANCH   5  18
ATOM     18  N   LIG d   1      -2.160  94.836 118.417  0.00  0.00     0.381 N 
ATOM     19  H   LIG d   1      -2.084  95.268 119.317  0.00  0.00    -0.090 HD
ATOM     20  H   LIG d   1      -3.111  94.539 118.289  0.00  0.00    -0.090 HD
ATOM     21  H   LIG d   1      -1.909  95.486 117.706  0.00  0.00    -0.090 HD
ENDBRANCH   5  18
BRANCH   3  22
ATOM     22  C   LIG d   1       1.925  92.891 119.988  0.00  0.00     0.382 C 
ATOM     23  O   LIG d   1       2.876  92.414 119.322  0.00  0.00    -0.241 OA
ATOM     24  O   LIG d   1       2.163  93.500 121.048  0.00  0.00    -0.241 OA
ENDBRANCH   3  22
TORSDOF 7
ENDMDL
MODEL 9
REMARK VINA RESULT:      -4.0      5.886      9.581
REMARK  7 active torsions:
REMARK  status: ('A' for Active; 'I' for Inactive)
REMARK    1  A    between atoms: C_2  and  C_3 
REMARK    2  A    between atoms: C_3  and  O_6 
REMARK    3  A    between atoms: C_3  and  C_4 
REMARK    4  A    between atoms: C_7  and  O_6 
REMARK    5  A    between atoms: C_9  and  C_10 
REMARK    6  A    between atoms: N_15  and  C_14 
REMARK    7  A    between atoms: N_20  and  C_19 
REMARK       I    between atoms: C_22  and  N_20 
ROOT
ATOM      1  C   LIG d   1      -4.669  93.425 118.443  0.00  0.00     0.161 C 
ATOM      2  C   LIG d   1      -3.599  93.939 119.196  0.00  0.00     0.016 C 
ATOM      3  C   LIG d   1      -2.292  93.401 119.159  0.00  0.00     0.038 C 
ATOM      4  C   LIG d   1      -1.928  92.401 118.245  0.00  0.00     0.028 C 
ATOM      5  C   LIG d   1      -3.093  91.511 117.825  0.00  0.00    -0.047 C 
ATOM      6  C   LIG d   1      -4.264  92.405 117.359  0.00  0.00     0.091 C 
ENDROOT
BRANCH   1   7
ATOM      7  O   LIG d   1      -5.419  94.508 117.859  0.00  0.00    -0.368 OA
BRANCH   7   8
ATOM      8  C   LIG d   1      -6.518  95.022 118.650  0.00  0.00     0.119 C 
BRANCH   8   9
ATOM      9  C   LIG d   1      -7.745  95.129 117.724  0.00  0.00     0.028 C 
ATOM     10  C   LIG d   1      -8.185  96.585 117.498  0.00  0.00     0.006 C 
ENDBRANCH   8   9
BRANCH   8  11
ATOM     11  C   LIG d   1      -6.242  96.453 119.124  0.00  0.00     0.028 C 
ATOM     12  C   LIG d   1      -5.866  96.525 120.612  0.00  0.00     0.006 C 
ENDBRANCH   8  11
ENDBRANCH   7   8
ENDBRANCH   1   7
BRANCH   6  13
ATOM     13  N   LIG d   1      -5.475  91.617 117.009  0.00  0.00    -0.311 N 
ATOM     14  C   LIG d   1      -6.176  91.806 115.893  0.00  0.00     0.210 C 
ATOM     15  C   LIG d   1      -7.401  90.899 115.737  0.00  0.00     0.109 C 
ATOM     16  O   LIG d   1      -5.882  92.617 115.002  0.00  0.00    -0.276 OA
ATOM     17  H   LIG d   1      -5.767  90.916 117.662  0.00  0.00     0.149 HD
ENDBRANCH   6  13
BRANCH   5  18
ATOM     18  N   LIG d   1      -2.603  90.603 116.770  0.00  0.00     0.381 N 
ATOM     19  H   LIG d   1      -3.261  89.864 116.627  0.00  0.00    -0.090 HD
ATOM     20  H   LIG d   1      -1.733  90.198 117.069  0.00  0.00    -0.090 HD
ATOM     21  H   LIG d   1      -2.468  91.108 115.922  0.00  0.00    -0.090 HD
ENDBRANCH   5  18
BRANCH   3  22
ATOM     22  C   LIG d   1      -1.343  93.838 120.070  0.00  0.00     0.382 C 
ATOM     23  O   LIG d   1      -0.499  93.032 120.531  0.00  0.00    -0.241 OA
ATOM     24  O   LIG d   1      -1.348  95.017 120.472  0.00  0.00    -0.241 OA
ENDBRANCH   3  22
TORSDOF 7
ENDMDL
