MODEL 1
REMARK VINA RESULT:      -5.3      0.000      0.000
REMARK  7 active torsions:
REMARK  status: ('A' for Active; 'I' for Inactive)
REMARK    1  A    between atoms: C_2  and  C_3 
REMARK    2  A    between atoms: C_3  and  O_6 
REMARK    3  A    between atoms: C_3  and  C_4 
REMARK    4  A    between atoms: C_7  and  O_6 
REMARK    5  A    between atoms: C_9  and  C_10 
REMARK    6  A    between atoms: N_15  and  C_14 
REMARK    7  A    between atoms: N_20  and  C_19 
REMARK       I    between atoms: C_22  and  N_20 
ROOT
ATOM      1  C   LIG d   1      -6.269  92.996 117.347  0.00  0.00     0.161 C 
ATOM      2  C   LIG d   1      -7.185  92.078 116.808  0.00  0.00     0.016 C 
ATOM      3  C   LIG d   1      -6.823  90.783 116.370  0.00  0.00     0.038 C 
ATOM      4  C   LIG d   1      -5.539  90.260 116.583  0.00  0.00     0.028 C 
ATOM      5  C   LIG d   1      -4.455  91.330 116.664  0.00  0.00    -0.047 C 
ATOM      6  C   LIG d   1      -4.886  92.404 117.690  0.00  0.00     0.091 C 
ENDROOT
BRANCH   1   7
ATOM      7  O   LIG d   1      -6.842  93.635 118.505  0.00  0.00    -0.368 OA
BRANCH   7   8
ATOM      8  C   LIG d   1      -7.146  95.044 118.370  0.00  0.00     0.119 C 
BRANCH   8   9
ATOM      9  C   LIG d   1      -6.304  95.802 119.415  0.00  0.00     0.028 C 
ATOM     10  C   LIG d   1      -5.871  94.902 120.584  0.00  0.00     0.006 C 
ENDBRANCH   8   9
BRANCH   8  11
ATOM     11  C   LIG d   1      -8.605  95.337 118.736  0.00  0.00     0.028 C 
ATOM     12  C   LIG d   1      -9.335  94.109 119.302  0.00  0.00     0.006 C 
ENDBRANCH   8  11
ENDBRANCH   7   8
ENDBRANCH   1   7
BRANCH   6  13
ATOM     13  N   LIG d   1      -3.921  93.531 117.769  0.00  0.00    -0.311 N 
ATOM     14  C   LIG d   1      -2.936  93.592 118.664  0.00  0.00     0.210 C 
ATOM     15  C   LIG d   1      -2.067  94.851 118.585  0.00  0.00     0.109 C 
ATOM     16  O   LIG d   1      -2.679  92.707 119.494  0.00  0.00    -0.276 OA
ATOM     17  H   LIG d   1      -4.037  94.278 117.113  0.00  0.00     0.149 HD
ENDBRANCH   6  13
BRANCH   5  18
ATOM     18  N   LIG d   1      -3.193  90.659 117.026  0.00  0.00     0.381 N 
ATOM     19  H   LIG d   1      -3.286  90.221 117.920  0.00  0.00    -0.090 HD
ATOM     20  H   LIG d   1      -2.464  91.348 117.087  0.00  0.00    -0.090 HD
ATOM     21  H   LIG d   1      -2.959  89.978 116.337  0.00  0.00    -0.090 HD
ENDBRANCH   5  18
BRANCH   3  22
ATOM     22  C   LIG d   1      -7.741  90.011 115.674  0.00  0.00     0.382 C 
ATOM     23  O   LIG d   1      -8.504  89.232 116.296  0.00  0.00    -0.241 OA
ATOM     24  O   LIG d   1      -7.786  90.051 114.430  0.00  0.00    -0.241 OA
ENDBRANCH   3  22
TORSDOF 7
ENDMDL
MODEL 2
REMARK VINA RESULT:      -5.3      0.720      1.691
REMARK  7 active torsions:
REMARK  status: ('A' for Active; 'I' for Inactive)
REMARK    1  A    between atoms: C_2  and  C_3 
REMARK    2  A    between atoms: C_3  and  O_6 
REMARK    3  A    between atoms: C_3  and  C_4 
REMARK    4  A    between atoms: C_7  and  O_6 
REMARK    5  A    between atoms: C_9  and  C_10 
REMARK    6  A    between atoms: N_15  and  C_14 
REMARK    7  A    between atoms: N_20  and  C_19 
REMARK       I    between atoms: C_22  and  N_20 
ROOT
ATOM      1  C   LIG d   1      -5.996  92.957 117.004  0.00  0.00     0.161 C 
ATOM      2  C   LIG d   1      -7.007  92.089 116.560  0.00  0.00     0.016 C 
ATOM      3  C   LIG d   1      -6.791  90.719 116.284  0.00  0.00     0.038 C 
ATOM      4  C   LIG d   1      -5.575  90.086 116.581  0.00  0.00     0.028 C 
ATOM      5  C   LIG d   1      -4.379  91.031 116.555  0.00  0.00    -0.047 C 
ATOM      6  C   LIG d   1      -4.690  92.259 117.440  0.00  0.00     0.091 C 
ENDROOT
BRANCH   1   7
ATOM      7  O   LIG d   1      -6.499  93.788 118.069  0.00  0.00    -0.368 OA
BRANCH   7   8
ATOM      8  C   LIG d   1      -7.020  93.094 119.228  0.00  0.00     0.119 C 
BRANCH   8   9
ATOM      9  C   LIG d   1      -8.418  93.672 119.525  0.00  0.00     0.028 C 
ATOM     10  C   LIG d   1      -8.725  94.923 118.685  0.00  0.00     0.006 C 
ENDBRANCH   8   9
BRANCH   8  11
ATOM     11  C   LIG d   1      -6.185  93.390 120.478  0.00  0.00     0.028 C 
ATOM     12  C   LIG d   1      -5.417  94.717 120.380  0.00  0.00     0.006 C 
ENDBRANCH   8  11
ENDBRANCH   7   8
ENDBRANCH   1   7
BRANCH   6  13
ATOM     13  N   LIG d   1      -3.605  93.274 117.403  0.00  0.00    -0.311 N 
ATOM     14  C   LIG d   1      -2.637  93.344 118.315  0.00  0.00     0.210 C 
ATOM     15  C   LIG d   1      -1.629  94.478 118.102  0.00  0.00     0.109 C 
ATOM     16  O   LIG d   1      -2.498  92.556 119.262  0.00  0.00    -0.276 OA
ATOM     17  H   LIG d   1      -3.623  93.934 116.651  0.00  0.00     0.149 HD
ENDBRANCH   6  13
BRANCH   5  18
ATOM     18  N   LIG d   1      -3.201  90.271 117.016  0.00  0.00     0.381 N 
ATOM     19  H   LIG d   1      -2.774  89.805 116.240  0.00  0.00    -0.090 HD
ATOM     20  H   LIG d   1      -3.501  89.575 117.676  0.00  0.00    -0.090 HD
ATOM     21  H   LIG d   1      -2.545  90.885 117.446  0.00  0.00    -0.090 HD
ENDBRANCH   5  18
BRANCH   3  22
ATOM     22  C   LIG d   1      -7.787  89.977 115.668  0.00  0.00     0.382 C 
ATOM     23  O   LIG d   1      -8.523  89.225 116.351  0.00  0.00    -0.241 OA
ATOM     24  O   LIG d   1      -7.931  90.016 114.431  0.00  0.00    -0.241 OA
ENDBRANCH   3  22
TORSDOF 7
ENDMDL
MODEL 3
REMARK VINA RESULT:      -5.3      1.888      4.204
REMARK  7 active torsions:
REMARK  status: ('A' for Active; 'I' for Inactive)
REMARK    1  A    between atoms: C_2  and  C_3 
REMARK    2  A    between atoms: C_3  and  O_6 
REMARK    3  A    between atoms: C_3  and  C_4 
REMARK    4  A    between atoms: C_7  and  O_6 
REMARK    5  A    between atoms: C_9  and  C_10 
REMARK    6  A    between atoms: N_15  and  C_14 
REMARK    7  A    between atoms: N_20  and  C_19 
REMARK       I    between atoms: C_22  and  N_20 
ROOT
ATOM      1  C   LIG d   1      -4.854  92.499 117.648  0.00  0.00     0.161 C 
ATOM      2  C   LIG d   1      -4.936  91.490 116.674  0.00  0.00     0.016 C 
ATOM      3  C   LIG d   1      -6.121  91.191 115.962  0.00  0.00     0.038 C 
ATOM      4  C   LIG d   1      -7.272  91.986 116.071  0.00  0.00     0.028 C 
ATOM      5  C   LIG d   1      -7.390  92.701 117.413  0.00  0.00    -0.047 C 
ATOM      6  C   LIG d   1      -6.068  93.449 117.701  0.00  0.00     0.091 C 
ENDROOT
BRANCH   1   7
ATOM      7  O   LIG d   1      -3.637  93.250 117.472  0.00  0.00    -0.368 OA
BRANCH   7   8
ATOM      8  C   LIG d   1      -2.684  93.187 118.561  0.00  0.00     0.119 C 
BRANCH   8   9
ATOM      9  C   LIG d   1      -1.915  94.522 118.583  0.00  0.00     0.028 C 
ATOM     10  C   LIG d   1      -2.691  95.634 119.310  0.00  0.00     0.006 C 
ENDBRANCH   8   9
BRANCH   8  11
ATOM     11  C   LIG d   1      -1.623  92.112 118.311  0.00  0.00     0.028 C 
ATOM     12  C   LIG d   1      -1.827  90.859 119.178  0.00  0.00     0.006 C 
ENDBRANCH   8  11
ENDBRANCH   7   8
ENDBRANCH   1   7
BRANCH   6  13
ATOM     13  N   LIG d   1      -6.068  94.106 119.034  0.00  0.00    -0.311 N 
ATOM     14  C   LIG d   1      -6.436  95.372 119.227  0.00  0.00     0.210 C 
ATOM     15  C   LIG d   1      -6.342  95.858 120.677  0.00  0.00     0.109 C 
ATOM     16  O   LIG d   1      -6.862  96.128 118.341  0.00  0.00    -0.276 OA
ATOM     17  H   LIG d   1      -5.766  93.556 119.814  0.00  0.00     0.149 HD
ENDBRANCH   6  13
BRANCH   5  18
ATOM     18  N   LIG d   1      -8.558  93.598 117.339  0.00  0.00     0.381 N 
ATOM     19  H   LIG d   1      -8.287  94.529 117.586  0.00  0.00    -0.090 HD
ATOM     20  H   LIG d   1      -9.250  93.286 117.997  0.00  0.00    -0.090 HD
ATOM     21  H   LIG d   1      -8.938  93.589 116.418  0.00  0.00    -0.090 HD
ENDBRANCH   5  18
BRANCH   3  22
ATOM     22  C   LIG d   1      -6.174  90.061 115.161  0.00  0.00     0.382 C 
ATOM     23  O   LIG d   1      -5.146  89.362 114.994  0.00  0.00    -0.241 OA
ATOM     24  O   LIG d   1      -7.226  89.757 114.566  0.00  0.00    -0.241 OA
ENDBRANCH   3  22
TORSDOF 7
ENDMDL
MODEL 4
REMARK VINA RESULT:      -5.2      1.998      4.747
REMARK  7 active torsions:
REMARK  status: ('A' for Active; 'I' for Inactive)
REMARK    1  A    between atoms: C_2  and  C_3 
REMARK    2  A    between atoms: C_3  and  O_6 
REMARK    3  A    between atoms: C_3  and  C_4 
REMARK    4  A    between atoms: C_7  and  O_6 
REMARK    5  A    between atoms: C_9  and  C_10 
REMARK    6  A    between atoms: N_15  and  C_14 
REMARK    7  A    between atoms: N_20  and  C_19 
REMARK       I    between atoms: C_22  and  N_20 
ROOT
ATOM      1  C   LIG d   1      -6.123  91.897 119.055  0.00  0.00     0.161 C 
ATOM      2  C   LIG d   1      -7.421  92.414 118.909  0.00  0.00     0.016 C 
ATOM      3  C   LIG d   1      -7.702  93.796 118.811  0.00  0.00     0.038 C 
ATOM      4  C   LIG d   1      -6.682  94.753 118.700  0.00  0.00     0.028 C 
ATOM      5  C   LIG d   1      -5.372  94.321 119.350  0.00  0.00    -0.047 C 
ATOM      6  C   LIG d   1      -4.990  92.919 118.825  0.00  0.00     0.091 C 
ENDROOT
BRANCH   1   7
ATOM      7  O   LIG d   1      -5.951  90.755 118.192  0.00  0.00    -0.368 OA
BRANCH   7   8
ATOM      8  C   LIG d   1      -6.107  91.001 116.772  0.00  0.00     0.119 C 
BRANCH   8   9
ATOM      9  C   LIG d   1      -7.300  90.155 116.285  0.00  0.00     0.028 C 
ATOM     10  C   LIG d   1      -7.407  90.121 114.751  0.00  0.00     0.006 C 
ENDBRANCH   8   9
BRANCH   8  11
ATOM     11  C   LIG d   1      -4.898  90.491 115.982  0.00  0.00     0.028 C 
ATOM     12  C   LIG d   1      -3.773  89.966 116.888  0.00  0.00     0.006 C 
ENDBRANCH   8  11
ENDBRANCH   7   8
ENDBRANCH   1   7
BRANCH   6  13
ATOM     13  N   LIG d   1      -3.764  92.385 119.474  0.00  0.00    -0.311 N 
ATOM     14  C   LIG d   1      -2.537  92.583 118.996  0.00  0.00     0.210 C 
ATOM     15  C   LIG d   1      -1.414  91.929 119.807  0.00  0.00     0.109 C 
ATOM     16  O   LIG d   1      -2.268  93.264 117.995  0.00  0.00    -0.276 OA
ATOM     17  H   LIG d   1      -3.887  91.847 120.309  0.00  0.00     0.149 HD
ENDBRANCH   6  13
BRANCH   5  18
ATOM     18  N   LIG d   1      -4.361  95.350 119.041  0.00  0.00     0.381 N 
ATOM     19  H   LIG d   1      -4.735  96.006 118.385  0.00  0.00    -0.090 HD
ATOM     20  H   LIG d   1      -3.563  94.906 118.623  0.00  0.00    -0.090 HD
ATOM     21  H   LIG d   1      -4.089  95.822 119.875  0.00  0.00    -0.090 HD
ENDBRANCH   5  18
BRANCH   3  22
ATOM     22  C   LIG d   1      -9.016  94.235 118.863  0.00  0.00     0.382 C 
ATOM     23  O   LIG d   1      -9.927  93.448 119.216  0.00  0.00    -0.241 OA
ATOM     24  O   LIG d   1      -9.307  95.396 118.519  0.00  0.00    -0.241 OA
ENDBRANCH   3  22
TORSDOF 7
ENDMDL
MODEL 5
REMARK VINA RESULT:      -4.8      2.344      4.525
REMARK  7 active torsions:
REMARK  status: ('A' for Active; 'I' for Inactive)
REMARK    1  A    between atoms: C_2  and  C_3 
REMARK    2  A    between atoms: C_3  and  O_6 
REMARK    3  A    between atoms: C_3  and  C_4 
REMARK    4  A    between atoms: C_7  and  O_6 
REMARK    5  A    between atoms: C_9  and  C_10 
REMARK    6  A    between atoms: N_15  and  C_14 
REMARK    7  A    between atoms: N_20  and  C_19 
REMARK       I    between atoms: C_22  and  N_20 
ROOT
ATOM      1  C   LIG d   1      -4.463  91.324 117.752  0.00  0.00     0.161 C 
ATOM      2  C   LIG d   1      -5.240  90.592 116.838  0.00  0.00     0.016 C 
ATOM      3  C   LIG d   1      -6.379  91.119 116.187  0.00  0.00     0.038 C 
ATOM      4  C   LIG d   1      -6.734  92.472 116.293  0.00  0.00     0.028 C 
ATOM      5  C   LIG d   1      -6.276  93.118 117.596  0.00  0.00    -0.047 C 
ATOM      6  C   LIG d   1      -4.769  92.836 117.795  0.00  0.00     0.091 C 
ENDROOT
BRANCH   1   7
ATOM      7  O   LIG d   1      -3.063  91.104 117.490  0.00  0.00    -0.368 OA
BRANCH   7   8
ATOM      8  C   LIG d   1      -2.351  90.305 118.466  0.00  0.00     0.119 C 
BRANCH   8   9
ATOM      9  C   LIG d   1      -2.235  88.876 117.899  0.00  0.00     0.028 C 
ATOM     10  C   LIG d   1      -0.785  88.496 117.556  0.00  0.00     0.006 C 
ENDBRANCH   8   9
BRANCH   8  11
ATOM     11  C   LIG d   1      -3.153  90.163 119.763  0.00  0.00     0.028 C 
ATOM     12  C   LIG d   1      -3.161  88.724 120.303  0.00  0.00     0.006 C 
ENDBRANCH   8  11
ENDBRANCH   7   8
ENDBRANCH   1   7
BRANCH   6  13
ATOM     13  N   LIG d   1      -4.260  93.362 119.088  0.00  0.00    -0.311 N 
ATOM     14  C   LIG d   1      -3.118  94.037 119.206  0.00  0.00     0.210 C 
ATOM     15  C   LIG d   1      -2.768  94.471 120.633  0.00  0.00     0.109 C 
ATOM     16  O   LIG d   1      -2.377  94.345 118.260  0.00  0.00    -0.276 OA
ATOM     17  H   LIG d   1      -4.814  93.184 119.903  0.00  0.00     0.149 HD
ENDBRANCH   6  13
BRANCH   5  18
ATOM     18  N   LIG d   1      -6.589  94.558 117.514  0.00  0.00     0.381 N 
ATOM     19  H   LIG d   1      -6.353  95.005 118.377  0.00  0.00    -0.090 HD
ATOM     20  H   LIG d   1      -7.576  94.668 117.361  0.00  0.00    -0.090 HD
ATOM     21  H   LIG d   1      -6.081  94.975 116.765  0.00  0.00    -0.090 HD
ENDBRANCH   5  18
BRANCH   3  22
ATOM     22  C   LIG d   1      -7.201  90.278 115.452  0.00  0.00     0.382 C 
ATOM     23  O   LIG d   1      -6.714  89.565 114.542  0.00  0.00    -0.241 OA
ATOM     24  O   LIG d   1      -8.429  90.257 115.658  0.00  0.00    -0.241 OA
ENDBRANCH   3  22
TORSDOF 7
ENDMDL
MODEL 6
REMARK VINA RESULT:      -4.7      2.575      6.085
REMARK  7 active torsions:
REMARK  status: ('A' for Active; 'I' for Inactive)
REMARK    1  A    between atoms: C_2  and  C_3 
REMARK    2  A    between atoms: C_3  and  O_6 
REMARK    3  A    between atoms: C_3  and  C_4 
REMARK    4  A    between atoms: C_7  and  O_6 
REMARK    5  A    between atoms: C_9  and  C_10 
REMARK    6  A    between atoms: N_15  and  C_14 
REMARK    7  A    between atoms: N_20  and  C_19 
REMARK       I    between atoms: C_22  and  N_20 
ROOT
ATOM      1  C   LIG d   1      -4.869  92.422 117.622  0.00  0.00     0.161 C 
ATOM      2  C   LIG d   1      -4.361  93.374 118.521  0.00  0.00     0.016 C 
ATOM      3  C   LIG d   1      -5.151  94.387 119.111  0.00  0.00     0.038 C 
ATOM      4  C   LIG d   1      -6.545  94.424 118.958  0.00  0.00     0.028 C 
ATOM      5  C   LIG d   1      -7.028  93.788 117.659  0.00  0.00    -0.047 C 
ATOM      6  C   LIG d   1      -6.409  92.378 117.529  0.00  0.00     0.091 C 
ENDROOT
BRANCH   1   7
ATOM      7  O   LIG d   1      -4.349  91.118 117.946  0.00  0.00    -0.368 OA
BRANCH   7   8
ATOM      8  C   LIG d   1      -3.121  91.094 118.714  0.00  0.00     0.119 C 
BRANCH   8   9
ATOM      9  C   LIG d   1      -2.043  90.419 117.843  0.00  0.00     0.028 C 
ATOM     10  C   LIG d   1      -2.197  88.890 117.799  0.00  0.00     0.006 C 
ENDBRANCH   8   9
BRANCH   8  11
ATOM     11  C   LIG d   1      -3.255  90.205 119.953  0.00  0.00     0.028 C 
ATOM     12  C   LIG d   1      -4.343  90.695 120.923  0.00  0.00     0.006 C 
ENDBRANCH   8  11
ENDBRANCH   7   8
ENDBRANCH   1   7
BRANCH   6  13
ATOM     13  N   LIG d   1      -6.763  91.719 116.245  0.00  0.00    -0.311 N 
ATOM     14  C   LIG d   1      -7.404  90.554 116.171  0.00  0.00     0.210 C 
ATOM     15  C   LIG d   1      -7.653  90.042 114.749  0.00  0.00     0.109 C 
ATOM     16  O   LIG d   1      -7.817  89.911 117.148  0.00  0.00    -0.276 OA
ATOM     17  H   LIG d   1      -6.493  92.187 115.402  0.00  0.00     0.149 HD
ENDBRANCH   6  13
BRANCH   5  18
ATOM     18  N   LIG d   1      -8.503  93.771 117.693  0.00  0.00     0.381 N 
ATOM     19  H   LIG d   1      -8.822  92.915 118.101  0.00  0.00    -0.090 HD
ATOM     20  H   LIG d   1      -8.850  93.820 116.751  0.00  0.00    -0.090 HD
ATOM     21  H   LIG d   1      -8.841  94.546 118.220  0.00  0.00    -0.090 HD
ENDBRANCH   5  18
BRANCH   3  22
ATOM     22  C   LIG d   1      -4.541  95.402 119.833  0.00  0.00     0.382 C 
ATOM     23  O   LIG d   1      -3.451  95.883 119.440  0.00  0.00    -0.241 OA
ATOM     24  O   LIG d   1      -5.044  95.811 120.896  0.00  0.00    -0.241 OA
ENDBRANCH   3  22
TORSDOF 7
ENDMDL
MODEL 7
REMARK VINA RESULT:      -4.6      2.120      4.147
REMARK  7 active torsions:
REMARK  status: ('A' for Active; 'I' for Inactive)
REMARK    1  A    between atoms: C_2  and  C_3 
REMARK    2  A    between atoms: C_3  and  O_6 
REMARK    3  A    between atoms: C_3  and  C_4 
REMARK    4  A    between atoms: C_7  and  O_6 
REMARK    5  A    between atoms: C_9  and  C_10 
REMARK    6  A    between atoms: N_15  and  C_14 
REMARK    7  A    between atoms: N_20  and  C_19 
REMARK       I    between atoms: C_22  and  N_20 
ROOT
ATOM      1  C   LIG d   1      -5.840  92.011 119.202  0.00  0.00     0.161 C 
ATOM      2  C   LIG d   1      -6.096  91.072 118.189  0.00  0.00     0.016 C 
ATOM      3  C   LIG d   1      -7.016  91.291 117.139  0.00  0.00     0.038 C 
ATOM      4  C   LIG d   1      -7.637  92.534 116.944  0.00  0.00     0.028 C 
ATOM      5  C   LIG d   1      -7.793  93.341 118.228  0.00  0.00    -0.047 C 
ATOM      6  C   LIG d   1      -6.425  93.416 118.944  0.00  0.00     0.091 C 
ENDROOT
BRANCH   1   7
ATOM      7  O   LIG d   1      -4.422  92.095 119.444  0.00  0.00    -0.368 OA
BRANCH   7   8
ATOM      8  C   LIG d   1      -3.616  92.589 118.346  0.00  0.00     0.119 C 
BRANCH   8   9
ATOM      9  C   LIG d   1      -2.495  91.562 118.096  0.00  0.00     0.028 C 
ATOM     10  C   LIG d   1      -2.400  90.513 119.216  0.00  0.00     0.006 C 
ENDBRANCH   8   9
BRANCH   8  11
ATOM     11  C   LIG d   1      -2.900  93.889 118.721  0.00  0.00     0.028 C 
ATOM     12  C   LIG d   1      -2.814  94.106 120.240  0.00  0.00     0.006 C 
ENDBRANCH   8  11
ENDBRANCH   7   8
ENDBRANCH   1   7
BRANCH   6  13
ATOM     13  N   LIG d   1      -6.507  94.116 120.252  0.00  0.00    -0.311 N 
ATOM     14  C   LIG d   1      -6.246  95.414 120.406  0.00  0.00     0.210 C 
ATOM     15  C   LIG d   1      -6.371  95.932 121.842  0.00  0.00     0.109 C 
ATOM     16  O   LIG d   1      -5.955  96.191 119.485  0.00  0.00    -0.276 OA
ATOM     17  H   LIG d   1      -6.766  93.568 121.048  0.00  0.00     0.149 HD
ENDBRANCH   6  13
BRANCH   5  18
ATOM     18  N   LIG d   1      -8.326  94.666 117.860  0.00  0.00     0.381 N 
ATOM     19  H   LIG d   1      -9.235  94.565 117.455  0.00  0.00    -0.090 HD
ATOM     20  H   LIG d   1      -7.720  95.081 117.174  0.00  0.00    -0.090 HD
ATOM     21  H   LIG d   1      -8.376  95.250 118.666  0.00  0.00    -0.090 HD
ENDBRANCH   5  18
BRANCH   3  22
ATOM     22  C   LIG d   1      -7.355  90.246 116.292  0.00  0.00     0.382 C 
ATOM     23  O   LIG d   1      -8.089  89.317 116.706  0.00  0.00    -0.241 OA
ATOM     24  O   LIG d   1      -6.898  90.198 115.134  0.00  0.00    -0.241 OA
ENDBRANCH   3  22
TORSDOF 7
ENDMDL
MODEL 8
REMARK VINA RESULT:      -4.5      2.706      5.044
REMARK  7 active torsions:
REMARK  status: ('A' for Active; 'I' for Inactive)
REMARK    1  A    between atoms: C_2  and  C_3 
REMARK    2  A    between atoms: C_3  and  O_6 
REMARK    3  A    between atoms: C_3  and  C_4 
REMARK    4  A    between atoms: C_7  and  O_6 
REMARK    5  A    between atoms: C_9  and  C_10 
REMARK    6  A    between atoms: N_15  and  C_14 
REMARK    7  A    between atoms: N_20  and  C_19 
REMARK       I    between atoms: C_22  and  N_20 
ROOT
ATOM      1  C   LIG d   1      -6.708  91.769 119.279  0.00  0.00     0.161 C 
ATOM      2  C   LIG d   1      -6.210  91.330 118.041  0.00  0.00     0.016 C 
ATOM      3  C   LIG d   1      -6.225  92.124 116.871  0.00  0.00     0.038 C 
ATOM      4  C   LIG d   1      -6.605  93.474 116.896  0.00  0.00     0.028 C 
ATOM      5  C   LIG d   1      -7.588  93.806 118.013  0.00  0.00    -0.047 C 
ATOM      6  C   LIG d   1      -7.023  93.278 119.351  0.00  0.00     0.091 C 
ENDROOT
BRANCH   1   7
ATOM      7  O   LIG d   1      -5.796  91.397 120.332  0.00  0.00    -0.368 OA
BRANCH   7   8
ATOM      8  C   LIG d   1      -4.414  91.204 119.940  0.00  0.00     0.119 C 
BRANCH   8   9
ATOM      9  C   LIG d   1      -3.869  90.006 120.741  0.00  0.00     0.028 C 
ATOM     10  C   LIG d   1      -2.968  89.093 119.892  0.00  0.00     0.006 C 
ENDBRANCH   8   9
BRANCH   8  11
ATOM     11  C   LIG d   1      -3.546  92.396 120.353  0.00  0.00     0.028 C 
ATOM     12  C   LIG d   1      -3.197  93.316 119.172  0.00  0.00     0.006 C 
ENDBRANCH   8  11
ENDBRANCH   7   8
ENDBRANCH   1   7
BRANCH   6  13
ATOM     13  N   LIG d   1      -7.962  93.487 120.485  0.00  0.00    -0.311 N 
ATOM     14  C   LIG d   1      -9.285  93.531 120.342  0.00  0.00     0.210 C 
ATOM     15  C   LIG d   1     -10.068  93.776 121.636  0.00  0.00     0.109 C 
ATOM     16  O   LIG d   1      -9.887  93.358 119.271  0.00  0.00    -0.276 OA
ATOM     17  H   LIG d   1      -7.560  93.605 121.394  0.00  0.00     0.149 HD
ENDBRANCH   6  13
BRANCH   5  18
ATOM     18  N   LIG d   1      -7.791  95.267 118.008  0.00  0.00     0.381 N 
ATOM     19  H   LIG d   1      -8.718  95.480 117.700  0.00  0.00    -0.090 HD
ATOM     20  H   LIG d   1      -7.141  95.684 117.364  0.00  0.00    -0.090 HD
ATOM     21  H   LIG d   1      -7.645  95.635 118.923  0.00  0.00    -0.090 HD
ENDBRANCH   5  18
BRANCH   3  22
ATOM     22  C   LIG d   1      -5.896  91.554 115.650  0.00  0.00     0.382 C 
ATOM     23  O   LIG d   1      -6.083  92.196 114.588  0.00  0.00    -0.241 OA
ATOM     24  O   LIG d   1      -5.454  90.391 115.594  0.00  0.00    -0.241 OA
ENDBRANCH   3  22
TORSDOF 7
ENDMDL
MODEL 9
REMARK VINA RESULT:      -4.5      2.010      4.740
REMARK  7 active torsions:
REMARK  status: ('A' for Active; 'I' for Inactive)
REMARK    1  A    between atoms: C_2  and  C_3 
REMARK    2  A    between atoms: C_3  and  O_6 
REMARK    3  A    between atoms: C_3  and  C_4 
REMARK    4  A    between atoms: C_7  and  O_6 
REMARK    5  A    between atoms: C_9  and  C_10 
REMARK    6  A    between atoms: N_15  and  C_14 
REMARK    7  A    between atoms: N_20  and  C_19 
REMARK       I    between atoms: C_22  and  N_20 
ROOT
ATOM      1  C   LIG d   1      -5.930  92.726 118.438  0.00  0.00     0.161 C 
ATOM      2  C   LIG d   1      -7.294  93.065 118.440  0.00  0.00     0.016 C 
ATOM      3  C   LIG d   1      -7.806  94.227 119.061  0.00  0.00     0.038 C 
ATOM      4  C   LIG d   1      -6.964  95.213 119.596  0.00  0.00     0.028 C 
ATOM      5  C   LIG d   1      -5.617  94.673 120.063  0.00  0.00    -0.047 C 
ATOM      6  C   LIG d   1      -4.985  93.846 118.920  0.00  0.00     0.091 C 
ENDROOT
BRANCH   1   7
ATOM      7  O   LIG d   1      -5.541  92.272 117.126  0.00  0.00    -0.368 OA
BRANCH   7   8
ATOM      8  C   LIG d   1      -5.401  90.840 116.962  0.00  0.00     0.119 C 
BRANCH   8   9
ATOM      9  C   LIG d   1      -3.895  90.530 116.869  0.00  0.00     0.028 C 
ATOM     10  C   LIG d   1      -3.351  89.868 118.147  0.00  0.00     0.006 C 
ENDBRANCH   8   9
BRANCH   8  11
ATOM     11  C   LIG d   1      -5.995  90.370 115.631  0.00  0.00     0.028 C 
ATOM     12  C   LIG d   1      -6.389  91.535 114.710  0.00  0.00     0.006 C 
ENDBRANCH   8  11
ENDBRANCH   7   8
ENDBRANCH   1   7
BRANCH   6  13
ATOM     13  N   LIG d   1      -3.703  93.210 119.322  0.00  0.00    -0.311 N 
ATOM     14  C   LIG d   1      -2.509  93.738 119.058  0.00  0.00     0.210 C 
ATOM     15  C   LIG d   1      -1.315  92.910 119.544  0.00  0.00     0.109 C 
ATOM     16  O   LIG d   1      -2.326  94.829 118.497  0.00  0.00    -0.276 OA
ATOM     17  H   LIG d   1      -3.760  92.338 119.810  0.00  0.00     0.149 HD
ENDBRANCH   6  13
BRANCH   5  18
ATOM     18  N   LIG d   1      -4.791  95.825 120.469  0.00  0.00     0.381 N 
ATOM     19  H   LIG d   1      -4.783  95.902 121.466  0.00  0.00    -0.090 HD
ATOM     20  H   LIG d   1      -5.195  96.664 120.091  0.00  0.00    -0.090 HD
ATOM     21  H   LIG d   1      -3.860  95.714 120.130  0.00  0.00    -0.090 HD
ENDBRANCH   5  18
BRANCH   3  22
ATOM     22  C   LIG d   1      -9.177  94.391 119.186  0.00  0.00     0.382 C 
ATOM     23  O   LIG d   1      -9.662  95.543 119.300  0.00  0.00    -0.241 OA
ATOM     24  O   LIG d   1      -9.931  93.401 119.233  0.00  0.00    -0.241 OA
ENDBRANCH   3  22
TORSDOF 7
ENDMDL
