MODEL 1
REMARK VINA RESULT:      -5.5      0.000      0.000
REMARK  7 active torsions:
REMARK  status: ('A' for Active; 'I' for Inactive)
REMARK    1  A    between atoms: C_2  and  C_3 
REMARK    2  A    between atoms: C_3  and  O_6 
REMARK    3  A    between atoms: C_3  and  C_4 
REMARK    4  A    between atoms: C_7  and  O_6 
REMARK    5  A    between atoms: C_9  and  C_10 
REMARK    6  A    between atoms: N_15  and  C_14 
REMARK    7  A    between atoms: N_20  and  C_19 
REMARK       I    between atoms: C_22  and  N_20 
ROOT
ATOM      1  C   LIG d   1      -3.263  89.962 117.850  0.00  0.00     0.161 C 
ATOM      2  C   LIG d   1      -3.698  89.218 116.741  0.00  0.00     0.016 C 
ATOM      3  C   LIG d   1      -4.827  89.566 115.964  0.00  0.00     0.038 C 
ATOM      4  C   LIG d   1      -5.513  90.775 116.154  0.00  0.00     0.028 C 
ATOM      5  C   LIG d   1      -5.418  91.309 117.579  0.00  0.00    -0.047 C 
ATOM      6  C   LIG d   1      -3.932  91.344 118.004  0.00  0.00     0.091 C 
ENDROOT
BRANCH   1   7
ATOM      7  O   LIG d   1      -1.829  90.101 117.812  0.00  0.00    -0.368 OA
BRANCH   7   8
ATOM      8  C   LIG d   1      -1.077  89.186 118.647  0.00  0.00     0.119 C 
BRANCH   8   9
ATOM      9  C   LIG d   1      -1.909  88.932 119.919  0.00  0.00     0.028 C 
ATOM     10  C   LIG d   1      -1.221  89.468 121.186  0.00  0.00     0.006 C 
ENDBRANCH   8   9
BRANCH   8  11
ATOM     11  C   LIG d   1       0.228  89.821 119.135  0.00  0.00     0.028 C 
ATOM     12  C   LIG d   1       0.682  90.999 118.259  0.00  0.00     0.006 C 
ENDBRANCH   8  11
ENDBRANCH   7   8
ENDBRANCH   1   7
BRANCH   6  13
ATOM     13  N   LIG d   1      -3.756  91.775 119.415  0.00  0.00    -0.311 N 
ATOM     14  C   LIG d   1      -2.805  92.620 119.811  0.00  0.00     0.210 C 
ATOM     15  C   LIG d   1      -2.787  92.915 121.314  0.00  0.00     0.109 C 
ATOM     16  O   LIG d   1      -1.996  93.178 119.055  0.00  0.00    -0.276 OA
ATOM     17  H   LIG d   1      -4.389  91.394 120.091  0.00  0.00     0.149 HD
ENDBRANCH   6  13
BRANCH   5  18
ATOM     18  N   LIG d   1      -6.058  92.637 117.601  0.00  0.00     0.381 N 
ATOM     19  H   LIG d   1      -6.618  92.757 116.781  0.00  0.00    -0.090 HD
ATOM     20  H   LIG d   1      -5.342  93.343 117.600  0.00  0.00    -0.090 HD
ATOM     21  H   LIG d   1      -6.624  92.730 118.416  0.00  0.00    -0.090 HD
ENDBRANCH   5  18
BRANCH   3  22
ATOM     22  C   LIG d   1      -5.305  88.680 115.011  0.00  0.00     0.382 C 
ATOM     23  O   LIG d   1      -6.525  88.672 114.718  0.00  0.00    -0.241 OA
ATOM     24  O   LIG d   1      -4.540  87.859 114.471  0.00  0.00    -0.241 OA
ENDBRANCH   3  22
TORSDOF 7
ENDMDL
MODEL 2
REMARK VINA RESULT:      -5.4      2.609      4.760
REMARK  7 active torsions:
REMARK  status: ('A' for Active; 'I' for Inactive)
REMARK    1  A    between atoms: C_2  and  C_3 
REMARK    2  A    between atoms: C_3  and  O_6 
REMARK    3  A    between atoms: C_3  and  C_4 
REMARK    4  A    between atoms: C_7  and  O_6 
REMARK    5  A    between atoms: C_9  and  C_10 
REMARK    6  A    between atoms: N_15  and  C_14 
REMARK    7  A    between atoms: N_20  and  C_19 
REMARK       I    between atoms: C_22  and  N_20 
ROOT
ATOM      1  C   LIG d   1      -4.706  91.420 118.474  0.00  0.00     0.161 C 
ATOM      2  C   LIG d   1      -5.558  91.438 117.358  0.00  0.00     0.016 C 
ATOM      3  C   LIG d   1      -5.384  90.601 116.232  0.00  0.00     0.038 C 
ATOM      4  C   LIG d   1      -4.427  89.575 116.212  0.00  0.00     0.028 C 
ATOM      5  C   LIG d   1      -3.223  89.853 117.105  0.00  0.00    -0.047 C 
ATOM      6  C   LIG d   1      -3.722  90.232 118.518  0.00  0.00     0.091 C 
ENDROOT
BRANCH   1   7
ATOM      7  O   LIG d   1      -5.485  91.470 119.685  0.00  0.00    -0.368 OA
BRANCH   7   8
ATOM      8  C   LIG d   1      -6.447  92.550 119.780  0.00  0.00     0.119 C 
BRANCH   8   9
ATOM      9  C   LIG d   1      -5.666  93.841 120.091  0.00  0.00     0.028 C 
ATOM     10  C   LIG d   1      -6.209  95.056 119.320  0.00  0.00     0.006 C 
ENDBRANCH   8   9
BRANCH   8  11
ATOM     11  C   LIG d   1      -7.392  92.351 120.969  0.00  0.00     0.028 C 
ATOM     12  C   LIG d   1      -8.824  92.828 120.678  0.00  0.00     0.006 C 
ENDBRANCH   8  11
ENDBRANCH   7   8
ENDBRANCH   1   7
BRANCH   6  13
ATOM     13  N   LIG d   1      -2.611  90.602 119.432  0.00  0.00    -0.311 N 
ATOM     14  C   LIG d   1      -1.931  89.714 120.156  0.00  0.00     0.210 C 
ATOM     15  C   LIG d   1      -0.837  90.309 121.048  0.00  0.00     0.109 C 
ATOM     16  O   LIG d   1      -2.108  88.487 120.119  0.00  0.00    -0.276 OA
ATOM     17  H   LIG d   1      -2.379  91.573 119.500  0.00  0.00     0.149 HD
ENDBRANCH   6  13
BRANCH   5  18
ATOM     18  N   LIG d   1      -2.373  88.648 117.096  0.00  0.00     0.381 N 
ATOM     19  H   LIG d   1      -2.246  88.330 116.156  0.00  0.00    -0.090 HD
ATOM     20  H   LIG d   1      -2.835  87.921 117.614  0.00  0.00    -0.090 HD
ATOM     21  H   LIG d   1      -1.489  88.850 117.509  0.00  0.00    -0.090 HD
ENDBRANCH   5  18
BRANCH   3  22
ATOM     22  C   LIG d   1      -6.148  90.812 115.094  0.00  0.00     0.382 C 
ATOM     23  O   LIG d   1      -6.080  91.908 114.488  0.00  0.00    -0.241 OA
ATOM     24  O   LIG d   1      -6.937  89.936 114.692  0.00  0.00    -0.241 OA
ENDBRANCH   3  22
TORSDOF 7
ENDMDL
MODEL 3
REMARK VINA RESULT:      -5.3      2.908      6.322
REMARK  7 active torsions:
REMARK  status: ('A' for Active; 'I' for Inactive)
REMARK    1  A    between atoms: C_2  and  C_3 
REMARK    2  A    between atoms: C_3  and  O_6 
REMARK    3  A    between atoms: C_3  and  C_4 
REMARK    4  A    between atoms: C_7  and  O_6 
REMARK    5  A    between atoms: C_9  and  C_10 
REMARK    6  A    between atoms: N_15  and  C_14 
REMARK    7  A    between atoms: N_20  and  C_19 
REMARK       I    between atoms: C_22  and  N_20 
ROOT
ATOM      1  C   LIG d   1      -5.590  91.545 118.689  0.00  0.00     0.161 C 
ATOM      2  C   LIG d   1      -4.474  92.027 119.393  0.00  0.00     0.016 C 
ATOM      3  C   LIG d   1      -3.145  91.636 119.107  0.00  0.00     0.038 C 
ATOM      4  C   LIG d   1      -2.829  90.846 117.992  0.00  0.00     0.028 C 
ATOM      5  C   LIG d   1      -3.967  89.929 117.556  0.00  0.00    -0.047 C 
ATOM      6  C   LIG d   1      -5.255  90.769 117.398  0.00  0.00     0.091 C 
ENDROOT
BRANCH   1   7
ATOM      7  O   LIG d   1      -6.492  92.631 118.401  0.00  0.00    -0.368 OA
BRANCH   7   8
ATOM      8  C   LIG d   1      -6.692  93.593 119.465  0.00  0.00     0.119 C 
BRANCH   8   9
ATOM      9  C   LIG d   1      -8.113  93.379 120.022  0.00  0.00     0.028 C 
ATOM     10  C   LIG d   1      -8.106  92.733 121.418  0.00  0.00     0.006 C 
ENDBRANCH   8   9
BRANCH   8  11
ATOM     11  C   LIG d   1      -6.678  95.028 118.930  0.00  0.00     0.028 C 
ATOM     12  C   LIG d   1      -8.080  95.540 118.562  0.00  0.00     0.006 C 
ENDBRANCH   8  11
ENDBRANCH   7   8
ENDBRANCH   1   7
BRANCH   6  13
ATOM     13  N   LIG d   1      -6.436  89.935 117.055  0.00  0.00    -0.311 N 
ATOM     14  C   LIG d   1      -6.806  89.667 115.804  0.00  0.00     0.210 C 
ATOM     15  C   LIG d   1      -8.066  88.805 115.672  0.00  0.00     0.109 C 
ATOM     16  O   LIG d   1      -6.193  90.035 114.791  0.00  0.00    -0.276 OA
ATOM     17  H   LIG d   1      -6.974  89.570 117.817  0.00  0.00     0.149 HD
ENDBRANCH   6  13
BRANCH   5  18
ATOM     18  N   LIG d   1      -3.551  89.267 116.305  0.00  0.00     0.381 N 
ATOM     19  H   LIG d   1      -2.774  89.755 115.905  0.00  0.00    -0.090 HD
ATOM     20  H   LIG d   1      -4.314  89.299 115.651  0.00  0.00    -0.090 HD
ATOM     21  H   LIG d   1      -3.300  88.320 116.487  0.00  0.00    -0.090 HD
ENDBRANCH   5  18
BRANCH   3  22
ATOM     22  C   LIG d   1      -2.121  92.003 119.966  0.00  0.00     0.382 C 
ATOM     23  O   LIG d   1      -2.122  93.143 120.491  0.00  0.00    -0.241 OA
ATOM     24  O   LIG d   1      -1.173  91.226 120.188  0.00  0.00    -0.241 OA
ENDBRANCH   3  22
TORSDOF 7
ENDMDL
MODEL 4
REMARK VINA RESULT:      -5.0      2.431      4.064
REMARK  7 active torsions:
REMARK  status: ('A' for Active; 'I' for Inactive)
REMARK    1  A    between atoms: C_2  and  C_3 
REMARK    2  A    between atoms: C_3  and  O_6 
REMARK    3  A    between atoms: C_3  and  C_4 
REMARK    4  A    between atoms: C_7  and  O_6 
REMARK    5  A    between atoms: C_9  and  C_10 
REMARK    6  A    between atoms: N_15  and  C_14 
REMARK    7  A    between atoms: N_20  and  C_19 
REMARK       I    between atoms: C_22  and  N_20 
ROOT
ATOM      1  C   LIG d   1      -4.942  91.218 118.491  0.00  0.00     0.161 C 
ATOM      2  C   LIG d   1      -5.742  91.291 117.340  0.00  0.00     0.016 C 
ATOM      3  C   LIG d   1      -5.473  90.564 116.157  0.00  0.00     0.038 C 
ATOM      4  C   LIG d   1      -4.463  89.592 116.099  0.00  0.00     0.028 C 
ATOM      5  C   LIG d   1      -3.317  89.850 117.071  0.00  0.00    -0.047 C 
ATOM      6  C   LIG d   1      -3.900  90.080 118.484  0.00  0.00     0.091 C 
ENDROOT
BRANCH   1   7
ATOM      7  O   LIG d   1      -5.777  91.125 119.662  0.00  0.00    -0.368 OA
BRANCH   7   8
ATOM      8  C   LIG d   1      -5.588  92.155 120.664  0.00  0.00     0.119 C 
BRANCH   8   9
ATOM      9  C   LIG d   1      -6.946  92.381 121.357  0.00  0.00     0.028 C 
ATOM     10  C   LIG d   1      -8.006  92.953 120.401  0.00  0.00     0.006 C 
ENDBRANCH   8   9
BRANCH   8  11
ATOM     11  C   LIG d   1      -5.233  93.499 120.021  0.00  0.00     0.028 C 
ATOM     12  C   LIG d   1      -4.246  94.321 120.865  0.00  0.00     0.006 C 
ENDBRANCH   8  11
ENDBRANCH   7   8
ENDBRANCH   1   7
BRANCH   6  13
ATOM     13  N   LIG d   1      -2.852  90.422 119.481  0.00  0.00    -0.311 N 
ATOM     14  C   LIG d   1      -2.078  91.502 119.389  0.00  0.00     0.210 C 
ATOM     15  C   LIG d   1      -1.048  91.657 120.512  0.00  0.00     0.109 C 
ATOM     16  O   LIG d   1      -2.169  92.364 118.502  0.00  0.00    -0.276 OA
ATOM     17  H   LIG d   1      -2.732  89.793 120.251  0.00  0.00     0.149 HD
ENDBRANCH   6  13
BRANCH   5  18
ATOM     18  N   LIG d   1      -2.406  88.692 117.003  0.00  0.00     0.381 N 
ATOM     19  H   LIG d   1      -2.398  88.321 116.073  0.00  0.00    -0.090 HD
ATOM     20  H   LIG d   1      -2.742  87.977 117.624  0.00  0.00    -0.090 HD
ATOM     21  H   LIG d   1      -1.485  88.966 117.266  0.00  0.00    -0.090 HD
ENDBRANCH   5  18
BRANCH   3  22
ATOM     22  C   LIG d   1      -6.194  90.835 115.004  0.00  0.00     0.382 C 
ATOM     23  O   LIG d   1      -6.934  89.954 114.506  0.00  0.00    -0.241 OA
ATOM     24  O   LIG d   1      -6.080  91.936 114.432  0.00  0.00    -0.241 OA
ENDBRANCH   3  22
TORSDOF 7
ENDMDL
MODEL 5
REMARK VINA RESULT:      -4.3      3.091      5.794
REMARK  7 active torsions:
REMARK  status: ('A' for Active; 'I' for Inactive)
REMARK    1  A    between atoms: C_2  and  C_3 
REMARK    2  A    between atoms: C_3  and  O_6 
REMARK    3  A    between atoms: C_3  and  C_4 
REMARK    4  A    between atoms: C_7  and  O_6 
REMARK    5  A    between atoms: C_9  and  C_10 
REMARK    6  A    between atoms: N_15  and  C_14 
REMARK    7  A    between atoms: N_20  and  C_19 
REMARK       I    between atoms: C_22  and  N_20 
ROOT
ATOM      1  C   LIG d   1      -0.972  92.595 118.417  0.00  0.00     0.161 C 
ATOM      2  C   LIG d   1       0.193  91.950 117.972  0.00  0.00     0.016 C 
ATOM      3  C   LIG d   1       1.494  92.470 118.165  0.00  0.00     0.038 C 
ATOM      4  C   LIG d   1       1.728  93.605 118.955  0.00  0.00     0.028 C 
ATOM      5  C   LIG d   1       0.545  94.567 119.000  0.00  0.00    -0.047 C 
ATOM      6  C   LIG d   1      -0.729  93.778 119.378  0.00  0.00     0.091 C 
ENDROOT
BRANCH   1   7
ATOM      7  O   LIG d   1      -1.862  91.635 119.020  0.00  0.00    -0.368 OA
BRANCH   7   8
ATOM      8  C   LIG d   1      -3.081  91.350 118.289  0.00  0.00     0.119 C 
BRANCH   8   9
ATOM      9  C   LIG d   1      -4.255  91.485 119.278  0.00  0.00     0.028 C 
ATOM     10  C   LIG d   1      -5.523  92.044 118.610  0.00  0.00     0.006 C 
ENDBRANCH   8   9
BRANCH   8  11
ATOM     11  C   LIG d   1      -3.117  89.896 117.812  0.00  0.00     0.028 C 
ATOM     12  C   LIG d   1      -2.369  88.940 118.755  0.00  0.00     0.006 C 
ENDBRANCH   8  11
ENDBRANCH   7   8
ENDBRANCH   1   7
BRANCH   6  13
ATOM     13  N   LIG d   1      -1.948  94.629 119.362  0.00  0.00    -0.311 N 
ATOM     14  C   LIG d   1      -2.790  94.722 120.389  0.00  0.00     0.210 C 
ATOM     15  C   LIG d   1      -3.995  95.639 120.156  0.00  0.00     0.109 C 
ATOM     16  O   LIG d   1      -2.638  94.157 121.483  0.00  0.00    -0.276 OA
ATOM     17  H   LIG d   1      -2.132  95.146 118.525  0.00  0.00     0.149 HD
ENDBRANCH   6  13
BRANCH   5  18
ATOM     18  N   LIG d   1       0.874  95.633 119.966  0.00  0.00     0.381 N 
ATOM     19  H   LIG d   1       0.839  96.524 119.512  0.00  0.00    -0.090 HD
ATOM     20  H   LIG d   1       1.808  95.488 120.305  0.00  0.00    -0.090 HD
ATOM     21  H   LIG d   1       0.230  95.614 120.726  0.00  0.00    -0.090 HD
ENDBRANCH   5  18
BRANCH   3  22
ATOM     22  C   LIG d   1       2.574  91.875 117.531  0.00  0.00     0.382 C 
ATOM     23  O   LIG d   1       3.492  92.587 117.056  0.00  0.00    -0.241 OA
ATOM     24  O   LIG d   1       2.619  90.639 117.388  0.00  0.00    -0.241 OA
ENDBRANCH   3  22
TORSDOF 7
ENDMDL
MODEL 6
REMARK VINA RESULT:      -4.2      3.838      5.863
REMARK  7 active torsions:
REMARK  status: ('A' for Active; 'I' for Inactive)
REMARK    1  A    between atoms: C_2  and  C_3 
REMARK    2  A    between atoms: C_3  and  O_6 
REMARK    3  A    between atoms: C_3  and  C_4 
REMARK    4  A    between atoms: C_7  and  O_6 
REMARK    5  A    between atoms: C_9  and  C_10 
REMARK    6  A    between atoms: N_15  and  C_14 
REMARK    7  A    between atoms: N_20  and  C_19 
REMARK       I    between atoms: C_22  and  N_20 
ROOT
ATOM      1  C   LIG d   1       0.960  89.141 117.298  0.00  0.00     0.161 C 
ATOM      2  C   LIG d   1      -0.421  88.916 117.429  0.00  0.00     0.016 C 
ATOM      3  C   LIG d   1      -1.307  89.841 118.027  0.00  0.00     0.038 C 
ATOM      4  C   LIG d   1      -0.893  91.129 118.401  0.00  0.00     0.028 C 
ATOM      5  C   LIG d   1       0.589  91.211 118.749  0.00  0.00    -0.047 C 
ATOM      6  C   LIG d   1       1.411  90.586 117.599  0.00  0.00     0.091 C 
ENDROOT
BRANCH   1   7
ATOM      7  O   LIG d   1       1.397  88.744 115.983  0.00  0.00    -0.368 OA
BRANCH   7   8
ATOM      8  C   LIG d   1       2.248  87.573 115.922  0.00  0.00     0.119 C 
BRANCH   8   9
ATOM      9  C   LIG d   1       3.652  88.043 115.494  0.00  0.00     0.028 C 
ATOM     10  C   LIG d   1       3.601  89.242 114.532  0.00  0.00     0.006 C 
ENDBRANCH   8   9
BRANCH   8  11
ATOM     11  C   LIG d   1       1.791  86.609 114.823  0.00  0.00     0.028 C 
ATOM     12  C   LIG d   1       0.370  86.070 115.056  0.00  0.00     0.006 C 
ENDBRANCH   8  11
ENDBRANCH   7   8
ENDBRANCH   1   7
BRANCH   6  13
ATOM     13  N   LIG d   1       2.866  90.550 117.897  0.00  0.00    -0.311 N 
ATOM     14  C   LIG d   1       3.713  91.512 117.532  0.00  0.00     0.210 C 
ATOM     15  C   LIG d   1       5.174  91.268 117.921  0.00  0.00     0.109 C 
ATOM     16  O   LIG d   1       3.387  92.559 116.953  0.00  0.00    -0.276 OA
ATOM     17  H   LIG d   1       3.211  89.751 118.392  0.00  0.00     0.149 HD
ENDBRANCH   6  13
BRANCH   5  18
ATOM     18  N   LIG d   1       0.913  92.631 118.986  0.00  0.00     0.381 N 
ATOM     19  H   LIG d   1       0.487  92.938 119.837  0.00  0.00    -0.090 HD
ATOM     20  H   LIG d   1       0.540  93.180 118.231  0.00  0.00    -0.090 HD
ATOM     21  H   LIG d   1       1.900  92.752 119.037  0.00  0.00    -0.090 HD
ENDBRANCH   5  18
BRANCH   3  22
ATOM     22  C   LIG d   1      -2.615  89.466 118.293  0.00  0.00     0.382 C 
ATOM     23  O   LIG d   1      -3.078  88.411 117.798  0.00  0.00    -0.241 OA
ATOM     24  O   LIG d   1      -3.352  90.193 118.987  0.00  0.00    -0.241 OA
ENDBRANCH   3  22
TORSDOF 7
ENDMDL
MODEL 7
REMARK VINA RESULT:      -4.2      3.998      6.024
REMARK  7 active torsions:
REMARK  status: ('A' for Active; 'I' for Inactive)
REMARK    1  A    between atoms: C_2  and  C_3 
REMARK    2  A    between atoms: C_3  and  O_6 
REMARK    3  A    between atoms: C_3  and  C_4 
REMARK    4  A    between atoms: C_7  and  O_6 
REMARK    5  A    between atoms: C_9  and  C_10 
REMARK    6  A    between atoms: N_15  and  C_14 
REMARK    7  A    between atoms: N_20  and  C_19 
REMARK       I    between atoms: C_22  and  N_20 
ROOT
ATOM      1  C   LIG d   1       2.009  91.706 118.159  0.00  0.00     0.161 C 
ATOM      2  C   LIG d   1       2.920  91.208 117.212  0.00  0.00     0.016 C 
ATOM      3  C   LIG d   1       2.590  90.216 116.261  0.00  0.00     0.038 C 
ATOM      4  C   LIG d   1       1.274  89.759 116.092  0.00  0.00     0.028 C 
ATOM      5  C   LIG d   1       0.430  89.864 117.358  0.00  0.00    -0.047 C 
ATOM      6  C   LIG d   1       0.540  91.300 117.918  0.00  0.00     0.091 C 
ENDROOT
BRANCH   1   7
ATOM      7  O   LIG d   1       2.127  93.140 118.242  0.00  0.00    -0.368 OA
BRANCH   7   8
ATOM      8  C   LIG d   1       2.618  93.667 119.499  0.00  0.00     0.119 C 
BRANCH   8   9
ATOM      9  C   LIG d   1       2.886  92.469 120.430  0.00  0.00     0.028 C 
ATOM     10  C   LIG d   1       2.147  92.593 121.773  0.00  0.00     0.006 C 
ENDBRANCH   8   9
BRANCH   8  11
ATOM     11  C   LIG d   1       1.548  94.501 120.209  0.00  0.00     0.028 C 
ATOM     12  C   LIG d   1       0.523  95.107 119.238  0.00  0.00     0.006 C 
ENDBRANCH   8  11
ENDBRANCH   7   8
ENDBRANCH   1   7
BRANCH   6  13
ATOM     13  N   LIG d   1      -0.188  91.466 119.202  0.00  0.00    -0.311 N 
ATOM     14  C   LIG d   1      -1.430  91.942 119.285  0.00  0.00     0.210 C 
ATOM     15  C   LIG d   1      -1.987  92.050 120.708  0.00  0.00     0.109 C 
ATOM     16  O   LIG d   1      -2.133  92.255 118.313  0.00  0.00    -0.276 OA
ATOM     17  H   LIG d   1       0.297  91.207 120.039  0.00  0.00     0.149 HD
ENDBRANCH   6  13
BRANCH   5  18
ATOM     18  N   LIG d   1      -0.952  89.486 117.005  0.00  0.00     0.381 N 
ATOM     19  H   LIG d   1      -1.310  90.117 116.317  0.00  0.00    -0.090 HD
ATOM     20  H   LIG d   1      -1.527  89.554 117.826  0.00  0.00    -0.090 HD
ATOM     21  H   LIG d   1      -0.971  88.554 116.653  0.00  0.00    -0.090 HD
ENDBRANCH   5  18
BRANCH   3  22
ATOM     22  C   LIG d   1       3.590  89.640 115.492  0.00  0.00     0.382 C 
ATOM     23  O   LIG d   1       4.161  88.595 115.886  0.00  0.00    -0.241 OA
ATOM     24  O   LIG d   1       3.959  90.177 114.430  0.00  0.00    -0.241 OA
ENDBRANCH   3  22
TORSDOF 7
ENDMDL
MODEL 8
REMARK VINA RESULT:      -4.2      2.482      5.203
REMARK  7 active torsions:
REMARK  status: ('A' for Active; 'I' for Inactive)
REMARK    1  A    between atoms: C_2  and  C_3 
REMARK    2  A    between atoms: C_3  and  O_6 
REMARK    3  A    between atoms: C_3  and  C_4 
REMARK    4  A    between atoms: C_7  and  O_6 
REMARK    5  A    between atoms: C_9  and  C_10 
REMARK    6  A    between atoms: N_15  and  C_14 
REMARK    7  A    between atoms: N_20  and  C_19 
REMARK       I    between atoms: C_22  and  N_20 
ROOT
ATOM      1  C   LIG d   1      -3.447  91.788 118.497  0.00  0.00     0.161 C 
ATOM      2  C   LIG d   1      -2.464  90.890 118.945  0.00  0.00     0.016 C 
ATOM      3  C   LIG d   1      -2.387  90.422 120.277  0.00  0.00     0.038 C 
ATOM      4  C   LIG d   1      -3.386  90.704 121.221  0.00  0.00     0.028 C 
ATOM      5  C   LIG d   1      -4.122  92.012 120.951  0.00  0.00    -0.047 C 
ATOM      6  C   LIG d   1      -4.610  92.020 119.484  0.00  0.00     0.091 C 
ENDROOT
BRANCH   1   7
ATOM      7  O   LIG d   1      -3.954  91.358 117.218  0.00  0.00    -0.368 OA
BRANCH   7   8
ATOM      8  C   LIG d   1      -4.727  90.133 117.218  0.00  0.00     0.119 C 
BRANCH   8   9
ATOM      9  C   LIG d   1      -4.109  89.195 116.163  0.00  0.00     0.028 C 
ATOM     10  C   LIG d   1      -2.952  88.355 116.731  0.00  0.00     0.006 C 
ENDBRANCH   8   9
BRANCH   8  11
ATOM     11  C   LIG d   1      -6.164  90.381 116.747  0.00  0.00     0.028 C 
ATOM     12  C   LIG d   1      -6.749  89.192 115.968  0.00  0.00     0.006 C 
ENDBRANCH   8  11
ENDBRANCH   7   8
ENDBRANCH   1   7
BRANCH   6  13
ATOM     13  N   LIG d   1      -5.267  93.299 119.112  0.00  0.00    -0.311 N 
ATOM     14  C   LIG d   1      -6.579  93.505 119.209  0.00  0.00     0.210 C 
ATOM     15  C   LIG d   1      -7.053  94.889 118.754  0.00  0.00     0.109 C 
ATOM     16  O   LIG d   1      -7.392  92.684 119.660  0.00  0.00    -0.276 OA
ATOM     17  H   LIG d   1      -4.678  94.031 118.766  0.00  0.00     0.149 HD
ENDBRANCH   6  13
BRANCH   5  18
ATOM     18  N   LIG d   1      -5.224  92.113 121.927  0.00  0.00     0.381 N 
ATOM     19  H   LIG d   1      -5.927  92.735 121.581  0.00  0.00    -0.090 HD
ATOM     20  H   LIG d   1      -4.864  92.491 122.785  0.00  0.00    -0.090 HD
ATOM     21  H   LIG d   1      -5.617  91.213 122.091  0.00  0.00    -0.090 HD
ENDBRANCH   5  18
BRANCH   3  22
ATOM     22  C   LIG d   1      -1.281  89.694 120.687  0.00  0.00     0.382 C 
ATOM     23  O   LIG d   1      -0.129  90.066 120.358  0.00  0.00    -0.241 OA
ATOM     24  O   LIG d   1      -1.422  88.645 121.345  0.00  0.00    -0.241 OA
ENDBRANCH   3  22
TORSDOF 7
ENDMDL
MODEL 9
REMARK VINA RESULT:      -4.1      2.617      3.874
REMARK  7 active torsions:
REMARK  status: ('A' for Active; 'I' for Inactive)
REMARK    1  A    between atoms: C_2  and  C_3 
REMARK    2  A    between atoms: C_3  and  O_6 
REMARK    3  A    between atoms: C_3  and  C_4 
REMARK    4  A    between atoms: C_7  and  O_6 
REMARK    5  A    between atoms: C_9  and  C_10 
REMARK    6  A    between atoms: N_15  and  C_14 
REMARK    7  A    between atoms: N_20  and  C_19 
REMARK       I    between atoms: C_22  and  N_20 
ROOT
ATOM      1  C   LIG d   1      -0.283  91.131 118.207  0.00  0.00     0.161 C 
ATOM      2  C   LIG d   1      -1.248  90.210 117.765  0.00  0.00     0.016 C 
ATOM      3  C   LIG d   1      -2.640  90.408 117.917  0.00  0.00     0.038 C 
ATOM      4  C   LIG d   1      -3.169  91.618 118.390  0.00  0.00     0.028 C 
ATOM      5  C   LIG d   1      -2.221  92.374 119.316  0.00  0.00    -0.047 C 
ATOM      6  C   LIG d   1      -0.844  92.506 118.624  0.00  0.00     0.091 C 
ENDROOT
BRANCH   1   7
ATOM      7  O   LIG d   1       0.737  91.290 117.201  0.00  0.00    -0.368 OA
BRANCH   7   8
ATOM      8  C   LIG d   1       1.768  90.273 117.171  0.00  0.00     0.119 C 
BRANCH   8   9
ATOM      9  C   LIG d   1       3.124  90.992 117.035  0.00  0.00     0.028 C 
ATOM     10  C   LIG d   1       3.123  92.378 117.700  0.00  0.00     0.006 C 
ENDBRANCH   8   9
BRANCH   8  11
ATOM     11  C   LIG d   1       1.647  89.393 115.923  0.00  0.00     0.028 C 
ATOM     12  C   LIG d   1       1.273  87.939 116.253  0.00  0.00     0.006 C 
ENDBRANCH   8  11
ENDBRANCH   7   8
ENDBRANCH   1   7
BRANCH   6  13
ATOM     13  N   LIG d   1       0.167  93.159 119.496  0.00  0.00    -0.311 N 
ATOM     14  C   LIG d   1       0.422  94.466 119.471  0.00  0.00     0.210 C 
ATOM     15  C   LIG d   1       1.517  94.930 120.437  0.00  0.00     0.109 C 
ATOM     16  O   LIG d   1      -0.178  95.290 118.765  0.00  0.00    -0.276 OA
ATOM     17  H   LIG d   1       0.678  92.569 120.122  0.00  0.00     0.149 HD
ENDBRANCH   6  13
BRANCH   5  18
ATOM     18  N   LIG d   1      -2.841  93.676 119.623  0.00  0.00     0.381 N 
ATOM     19  H   LIG d   1      -3.798  93.543 119.881  0.00  0.00    -0.090 HD
ATOM     20  H   LIG d   1      -2.813  94.252 118.799  0.00  0.00    -0.090 HD
ATOM     21  H   LIG d   1      -2.348  94.122 120.365  0.00  0.00    -0.090 HD
ENDBRANCH   5  18
BRANCH   3  22
ATOM     22  C   LIG d   1      -3.517  89.373 117.632  0.00  0.00     0.382 C 
ATOM     23  O   LIG d   1      -4.710  89.625 117.337  0.00  0.00    -0.241 OA
ATOM     24  O   LIG d   1      -3.141  88.188 117.710  0.00  0.00    -0.241 OA
ENDBRANCH   3  22
TORSDOF 7
ENDMDL
