MODEL 1
REMARK VINA RESULT:      -5.7      0.000      0.000
REMARK  7 active torsions:
REMARK  status: ('A' for Active; 'I' for Inactive)
REMARK    1  A    between atoms: C_2  and  C_3 
REMARK    2  A    between atoms: C_3  and  O_6 
REMARK    3  A    between atoms: C_3  and  C_4 
REMARK    4  A    between atoms: C_7  and  O_6 
REMARK    5  A    between atoms: C_9  and  C_10 
REMARK    6  A    between atoms: N_15  and  C_14 
REMARK    7  A    between atoms: N_20  and  C_19 
REMARK       I    between atoms: C_22  and  N_20 
ROOT
ATOM      1  C   LIG d   1      -5.525  92.817 117.100  0.00  0.00     0.161 C 
ATOM      2  C   LIG d   1      -6.470  91.852 116.716  0.00  0.00     0.016 C 
ATOM      3  C   LIG d   1      -6.149  90.493 116.494  0.00  0.00     0.038 C 
ATOM      4  C   LIG d   1      -4.880  89.974 116.790  0.00  0.00     0.028 C 
ATOM      5  C   LIG d   1      -3.764  91.010 116.698  0.00  0.00    -0.047 C 
ATOM      6  C   LIG d   1      -4.159  92.247 117.536  0.00  0.00     0.091 C 
ENDROOT
BRANCH   1   7
ATOM      7  O   LIG d   1      -6.074  93.652 118.139  0.00  0.00    -0.368 OA
BRANCH   7   8
ATOM      8  C   LIG d   1      -7.113  93.055 118.954  0.00  0.00     0.119 C 
BRANCH   8   9
ATOM      9  C   LIG d   1      -8.270  94.069 119.045  0.00  0.00     0.028 C 
ATOM     10  C   LIG d   1      -8.024  95.318 118.183  0.00  0.00     0.006 C 
ENDBRANCH   8   9
BRANCH   8  11
ATOM     11  C   LIG d   1      -6.640  92.848 120.396  0.00  0.00     0.028 C 
ATOM     12  C   LIG d   1      -6.064  91.444 120.638  0.00  0.00     0.006 C 
ENDBRANCH   8  11
ENDBRANCH   7   8
ENDBRANCH   1   7
BRANCH   6  13
ATOM     13  N   LIG d   1      -3.161  93.343 117.432  0.00  0.00    -0.311 N 
ATOM     14  C   LIG d   1      -2.178  93.526 118.313  0.00  0.00     0.210 C 
ATOM     15  C   LIG d   1      -1.272  94.728 118.031  0.00  0.00     0.109 C 
ATOM     16  O   LIG d   1      -1.952  92.787 119.283  0.00  0.00    -0.276 OA
ATOM     17  H   LIG d   1      -3.252  93.971 116.658  0.00  0.00     0.149 HD
ENDBRANCH   6  13
BRANCH   5  18
ATOM     18  N   LIG d   1      -2.521  90.368 117.165  0.00  0.00     0.381 N 
ATOM     19  H   LIG d   1      -2.739  89.533 117.671  0.00  0.00    -0.090 HD
ATOM     20  H   LIG d   1      -2.044  90.998 117.786  0.00  0.00    -0.090 HD
ATOM     21  H   LIG d   1      -1.937  90.151 116.387  0.00  0.00    -0.090 HD
ENDBRANCH   5  18
BRANCH   3  22
ATOM     22  C   LIG d   1      -7.092  89.646 115.932  0.00  0.00     0.382 C 
ATOM     23  O   LIG d   1      -7.702  89.990 114.891  0.00  0.00    -0.241 OA
ATOM     24  O   LIG d   1      -7.372  88.562 116.477  0.00  0.00    -0.241 OA
ENDBRANCH   3  22
TORSDOF 7
ENDMDL
MODEL 2
REMARK VINA RESULT:      -5.1      1.936      4.336
REMARK  7 active torsions:
REMARK  status: ('A' for Active; 'I' for Inactive)
REMARK    1  A    between atoms: C_2  and  C_3 
REMARK    2  A    between atoms: C_3  and  O_6 
REMARK    3  A    between atoms: C_3  and  C_4 
REMARK    4  A    between atoms: C_7  and  O_6 
REMARK    5  A    between atoms: C_9  and  C_10 
REMARK    6  A    between atoms: N_15  and  C_14 
REMARK    7  A    between atoms: N_20  and  C_19 
REMARK       I    between atoms: C_22  and  N_20 
ROOT
ATOM      1  C   LIG d   1      -5.440  92.212 117.866  0.00  0.00     0.161 C 
ATOM      2  C   LIG d   1      -6.775  92.523 118.176  0.00  0.00     0.016 C 
ATOM      3  C   LIG d   1      -7.151  93.622 118.982  0.00  0.00     0.038 C 
ATOM      4  C   LIG d   1      -6.220  94.579 119.412  0.00  0.00     0.028 C 
ATOM      5  C   LIG d   1      -4.804  94.029 119.546  0.00  0.00    -0.047 C 
ATOM      6  C   LIG d   1      -4.419  93.308 118.234  0.00  0.00     0.091 C 
ENDROOT
BRANCH   1   7
ATOM      7  O   LIG d   1      -5.329  91.871 116.470  0.00  0.00    -0.368 OA
BRANCH   7   8
ATOM      8  C   LIG d   1      -4.959  90.502 116.176  0.00  0.00     0.119 C 
BRANCH   8   9
ATOM      9  C   LIG d   1      -6.091  89.888 115.329  0.00  0.00     0.028 C 
ATOM     10  C   LIG d   1      -7.200  89.267 116.195  0.00  0.00     0.006 C 
ENDBRANCH   8   9
BRANCH   8  11
ATOM     11  C   LIG d   1      -4.900  89.654 117.450  0.00  0.00     0.028 C 
ATOM     12  C   LIG d   1      -3.479  89.169 117.778  0.00  0.00     0.006 C 
ENDBRANCH   8  11
ENDBRANCH   7   8
ENDBRANCH   1   7
BRANCH   6  13
ATOM     13  N   LIG d   1      -3.080  92.668 118.310  0.00  0.00    -0.311 N 
ATOM     14  C   LIG d   1      -1.958  93.266 117.913  0.00  0.00     0.210 C 
ATOM     15  C   LIG d   1      -0.688  92.421 118.061  0.00  0.00     0.109 C 
ATOM     16  O   LIG d   1      -1.889  94.427 117.484  0.00  0.00    -0.276 OA
ATOM     17  H   LIG d   1      -3.040  91.737 118.676  0.00  0.00     0.149 HD
ENDBRANCH   6  13
BRANCH   5  18
ATOM     18  N   LIG d   1      -3.914  95.162 119.866  0.00  0.00     0.381 N 
ATOM     19  H   LIG d   1      -4.146  95.947 119.291  0.00  0.00    -0.090 HD
ATOM     20  H   LIG d   1      -2.966  94.896 119.668  0.00  0.00    -0.090 HD
ATOM     21  H   LIG d   1      -4.006  95.406 120.827  0.00  0.00    -0.090 HD
ENDBRANCH   5  18
BRANCH   3  22
ATOM     22  C   LIG d   1      -8.467  93.749 119.400  0.00  0.00     0.382 C 
ATOM     23  O   LIG d   1      -8.998  92.842 120.085  0.00  0.00    -0.241 OA
ATOM     24  O   LIG d   1      -9.143  94.739 119.064  0.00  0.00    -0.241 OA
ENDBRANCH   3  22
TORSDOF 7
ENDMDL
MODEL 3
REMARK VINA RESULT:      -5.0      2.399      5.893
REMARK  7 active torsions:
REMARK  status: ('A' for Active; 'I' for Inactive)
REMARK    1  A    between atoms: C_2  and  C_3 
REMARK    2  A    between atoms: C_3  and  O_6 
REMARK    3  A    between atoms: C_3  and  C_4 
REMARK    4  A    between atoms: C_7  and  O_6 
REMARK    5  A    between atoms: C_9  and  C_10 
REMARK    6  A    between atoms: N_15  and  C_14 
REMARK    7  A    between atoms: N_20  and  C_19 
REMARK       I    between atoms: C_22  and  N_20 
ROOT
ATOM      1  C   LIG d   1      -4.069  91.774 116.899  0.00  0.00     0.161 C 
ATOM      2  C   LIG d   1      -3.275  92.657 117.650  0.00  0.00     0.016 C 
ATOM      3  C   LIG d   1      -3.807  93.687 118.458  0.00  0.00     0.038 C 
ATOM      4  C   LIG d   1      -5.185  93.809 118.691  0.00  0.00     0.028 C 
ATOM      5  C   LIG d   1      -6.043  93.258 117.556  0.00  0.00    -0.047 C 
ATOM      6  C   LIG d   1      -5.576  91.821 117.227  0.00  0.00     0.091 C 
ENDROOT
BRANCH   1   7
ATOM      7  O   LIG d   1      -3.568  90.429 117.036  0.00  0.00    -0.368 OA
BRANCH   7   8
ATOM      8  C   LIG d   1      -2.912  90.118 118.290  0.00  0.00     0.119 C 
BRANCH   8   9
ATOM      9  C   LIG d   1      -1.854  89.036 118.003  0.00  0.00     0.028 C 
ATOM     10  C   LIG d   1      -2.435  87.614 118.071  0.00  0.00     0.006 C 
ENDBRANCH   8   9
BRANCH   8  11
ATOM     11  C   LIG d   1      -3.886  89.480 119.285  0.00  0.00     0.028 C 
ATOM     12  C   LIG d   1      -4.131  90.355 120.524  0.00  0.00     0.006 C 
ENDBRANCH   8  11
ENDBRANCH   7   8
ENDBRANCH   1   7
BRANCH   6  13
ATOM     13  N   LIG d   1      -6.307  91.239 116.072  0.00  0.00    -0.311 N 
ATOM     14  C   LIG d   1      -6.764  89.988 116.049  0.00  0.00     0.210 C 
ATOM     15  C   LIG d   1      -7.472  89.582 114.752  0.00  0.00     0.109 C 
ATOM     16  O   LIG d   1      -6.679  89.186 116.991  0.00  0.00    -0.276 OA
ATOM     17  H   LIG d   1      -6.447  91.830 115.276  0.00  0.00     0.149 HD
ENDBRANCH   6  13
BRANCH   5  18
ATOM     18  N   LIG d   1      -7.451  93.324 117.989  0.00  0.00     0.381 N 
ATOM     19  H   LIG d   1      -7.495  93.478 118.977  0.00  0.00    -0.090 HD
ATOM     20  H   LIG d   1      -7.894  92.445 117.788  0.00  0.00    -0.090 HD
ATOM     21  H   LIG d   1      -7.921  94.059 117.510  0.00  0.00    -0.090 HD
ENDBRANCH   5  18
BRANCH   3  22
ATOM     22  C   LIG d   1      -2.959  94.634 119.012  0.00  0.00     0.382 C 
ATOM     23  O   LIG d   1      -1.940  95.006 118.383  0.00  0.00    -0.241 OA
ATOM     24  O   LIG d   1      -3.177  95.087 120.152  0.00  0.00    -0.241 OA
ENDBRANCH   3  22
TORSDOF 7
ENDMDL
MODEL 4
REMARK VINA RESULT:      -5.0      2.244      4.187
REMARK  7 active torsions:
REMARK  status: ('A' for Active; 'I' for Inactive)
REMARK    1  A    between atoms: C_2  and  C_3 
REMARK    2  A    between atoms: C_3  and  O_6 
REMARK    3  A    between atoms: C_3  and  C_4 
REMARK    4  A    between atoms: C_7  and  O_6 
REMARK    5  A    between atoms: C_9  and  C_10 
REMARK    6  A    between atoms: N_15  and  C_14 
REMARK    7  A    between atoms: N_20  and  C_19 
REMARK       I    between atoms: C_22  and  N_20 
ROOT
ATOM      1  C   LIG d   1      -3.918  91.021 117.621  0.00  0.00     0.161 C 
ATOM      2  C   LIG d   1      -4.576  90.365 116.567  0.00  0.00     0.016 C 
ATOM      3  C   LIG d   1      -5.669  90.923 115.865  0.00  0.00     0.038 C 
ATOM      4  C   LIG d   1      -6.084  92.247 116.070  0.00  0.00     0.028 C 
ATOM      5  C   LIG d   1      -5.777  92.768 117.470  0.00  0.00    -0.047 C 
ATOM      6  C   LIG d   1      -4.285  92.510 117.784  0.00  0.00     0.091 C 
ENDROOT
BRANCH   1   7
ATOM      7  O   LIG d   1      -2.492  90.869 117.476  0.00  0.00    -0.368 OA
BRANCH   7   8
ATOM      8  C   LIG d   1      -1.837  90.035 118.462  0.00  0.00     0.119 C 
BRANCH   8   9
ATOM      9  C   LIG d   1      -1.395  88.740 117.753  0.00  0.00     0.028 C 
ATOM     10  C   LIG d   1      -2.377  87.579 117.986  0.00  0.00     0.006 C 
ENDBRANCH   8   9
BRANCH   8  11
ATOM     11  C   LIG d   1      -2.815  89.587 119.552  0.00  0.00     0.028 C 
ATOM     12  C   LIG d   1      -2.412  90.077 120.952  0.00  0.00     0.006 C 
ENDBRANCH   8  11
ENDBRANCH   7   8
ENDBRANCH   1   7
BRANCH   6  13
ATOM     13  N   LIG d   1      -3.920  92.914 119.167  0.00  0.00    -0.311 N 
ATOM     14  C   LIG d   1      -2.859  93.666 119.456  0.00  0.00     0.210 C 
ATOM     15  C   LIG d   1      -2.653  93.949 120.947  0.00  0.00     0.109 C 
ATOM     16  O   LIG d   1      -2.087  94.151 118.615  0.00  0.00    -0.276 OA
ATOM     17  H   LIG d   1      -4.510  92.590 119.908  0.00  0.00     0.149 HD
ENDBRANCH   6  13
BRANCH   5  18
ATOM     18  N   LIG d   1      -6.136  94.198 117.502  0.00  0.00     0.381 N 
ATOM     19  H   LIG d   1      -5.645  94.687 116.780  0.00  0.00    -0.090 HD
ATOM     20  H   LIG d   1      -5.859  94.583 118.387  0.00  0.00    -0.090 HD
ATOM     21  H   LIG d   1      -7.118  94.306 117.377  0.00  0.00    -0.090 HD
ENDBRANCH   5  18
BRANCH   3  22
ATOM     22  C   LIG d   1      -6.385  90.139 114.972  0.00  0.00     0.382 C 
ATOM     23  O   LIG d   1      -7.464  90.562 114.491  0.00  0.00    -0.241 OA
ATOM     24  O   LIG d   1      -5.988  88.996 114.676  0.00  0.00    -0.241 OA
ENDBRANCH   3  22
TORSDOF 7
ENDMDL
MODEL 5
REMARK VINA RESULT:      -4.7      2.713      4.672
REMARK  7 active torsions:
REMARK  status: ('A' for Active; 'I' for Inactive)
REMARK    1  A    between atoms: C_2  and  C_3 
REMARK    2  A    between atoms: C_3  and  O_6 
REMARK    3  A    between atoms: C_3  and  C_4 
REMARK    4  A    between atoms: C_7  and  O_6 
REMARK    5  A    between atoms: C_9  and  C_10 
REMARK    6  A    between atoms: N_15  and  C_14 
REMARK    7  A    between atoms: N_20  and  C_19 
REMARK       I    between atoms: C_22  and  N_20 
ROOT
ATOM      1  C   LIG d   1      -4.939  93.412 119.926  0.00  0.00     0.161 C 
ATOM      2  C   LIG d   1      -6.312  93.118 119.970  0.00  0.00     0.016 C 
ATOM      3  C   LIG d   1      -7.309  93.981 119.461  0.00  0.00     0.038 C 
ATOM      4  C   LIG d   1      -6.988  95.137 118.733  0.00  0.00     0.028 C 
ATOM      5  C   LIG d   1      -5.633  95.730 119.104  0.00  0.00    -0.047 C 
ATOM      6  C   LIG d   1      -4.563  94.616 119.037  0.00  0.00     0.091 C 
ENDROOT
BRANCH   1   7
ATOM      7  O   LIG d   1      -4.201  92.241 119.523  0.00  0.00    -0.368 OA
BRANCH   7   8
ATOM      8  C   LIG d   1      -4.894  91.324 118.641  0.00  0.00     0.119 C 
BRANCH   8   9
ATOM      9  C   LIG d   1      -4.439  89.898 119.007  0.00  0.00     0.028 C 
ATOM     10  C   LIG d   1      -3.575  89.257 117.907  0.00  0.00     0.006 C 
ENDBRANCH   8   9
BRANCH   8  11
ATOM     11  C   LIG d   1      -4.469  91.524 117.183  0.00  0.00     0.028 C 
ATOM     12  C   LIG d   1      -5.554  92.205 116.334  0.00  0.00     0.006 C 
ENDBRANCH   8  11
ENDBRANCH   7   8
ENDBRANCH   1   7
BRANCH   6  13
ATOM     13  N   LIG d   1      -3.222  95.091 119.467  0.00  0.00    -0.311 N 
ATOM     14  C   LIG d   1      -2.099  94.811 118.808  0.00  0.00     0.210 C 
ATOM     15  C   LIG d   1      -0.823  95.383 119.434  0.00  0.00     0.109 C 
ATOM     16  O   LIG d   1      -2.042  94.170 117.748  0.00  0.00    -0.276 OA
ATOM     17  H   LIG d   1      -3.180  95.644 120.300  0.00  0.00     0.149 HD
ENDBRANCH   6  13
BRANCH   5  18
ATOM     18  N   LIG d   1      -5.365  96.845 118.176  0.00  0.00     0.381 N 
ATOM     19  H   LIG d   1      -4.406  97.120 118.245  0.00  0.00    -0.090 HD
ATOM     20  H   LIG d   1      -5.937  97.629 118.437  0.00  0.00    -0.090 HD
ATOM     21  H   LIG d   1      -5.573  96.569 117.242  0.00  0.00    -0.090 HD
ENDBRANCH   5  18
BRANCH   3  22
ATOM     22  C   LIG d   1      -8.646  93.712 119.713  0.00  0.00     0.382 C 
ATOM     23  O   LIG d   1      -9.527  94.537 119.372  0.00  0.00    -0.241 OA
ATOM     24  O   LIG d   1      -8.978  92.675 120.318  0.00  0.00    -0.241 OA
ENDBRANCH   3  22
TORSDOF 7
ENDMDL
MODEL 6
REMARK VINA RESULT:      -4.6      1.681      5.078
REMARK  7 active torsions:
REMARK  status: ('A' for Active; 'I' for Inactive)
REMARK    1  A    between atoms: C_2  and  C_3 
REMARK    2  A    between atoms: C_3  and  O_6 
REMARK    3  A    between atoms: C_3  and  C_4 
REMARK    4  A    between atoms: C_7  and  O_6 
REMARK    5  A    between atoms: C_9  and  C_10 
REMARK    6  A    between atoms: N_15  and  C_14 
REMARK    7  A    between atoms: N_20  and  C_19 
REMARK       I    between atoms: C_22  and  N_20 
ROOT
ATOM      1  C   LIG d   1      -4.902  93.141 118.413  0.00  0.00     0.161 C 
ATOM      2  C   LIG d   1      -3.914  94.009 118.905  0.00  0.00     0.016 C 
ATOM      3  C   LIG d   1      -2.528  93.790 118.729  0.00  0.00     0.038 C 
ATOM      4  C   LIG d   1      -2.038  92.759 117.914  0.00  0.00     0.028 C 
ATOM      5  C   LIG d   1      -2.981  91.565 117.814  0.00  0.00    -0.047 C 
ATOM      6  C   LIG d   1      -4.390  92.070 117.427  0.00  0.00     0.091 C 
ENDROOT
BRANCH   1   7
ATOM      7  O   LIG d   1      -5.970  93.903 117.815  0.00  0.00    -0.368 OA
BRANCH   7   8
ATOM      8  C   LIG d   1      -6.849  94.598 118.734  0.00  0.00     0.119 C 
BRANCH   8   9
ATOM      9  C   LIG d   1      -8.152  93.782 118.833  0.00  0.00     0.028 C 
ATOM     10  C   LIG d   1      -8.455  93.332 120.272  0.00  0.00     0.006 C 
ENDBRANCH   8   9
BRANCH   8  11
ATOM     11  C   LIG d   1      -7.265  95.964 118.181  0.00  0.00     0.028 C 
ATOM     12  C   LIG d   1      -6.390  97.112 118.708  0.00  0.00     0.006 C 
ENDBRANCH   8  11
ENDBRANCH   7   8
ENDBRANCH   1   7
BRANCH   6  13
ATOM     13  N   LIG d   1      -5.394  90.975 117.389  0.00  0.00    -0.311 N 
ATOM     14  C   LIG d   1      -6.077  90.644 116.295  0.00  0.00     0.210 C 
ATOM     15  C   LIG d   1      -7.078  89.499 116.479  0.00  0.00     0.109 C 
ATOM     16  O   LIG d   1      -5.927  91.168 115.181  0.00  0.00    -0.276 OA
ATOM     17  H   LIG d   1      -5.557  90.476 118.242  0.00  0.00     0.149 HD
ENDBRANCH   6  13
BRANCH   5  18
ATOM     18  N   LIG d   1      -2.411  90.628 116.828  0.00  0.00     0.381 N 
ATOM     19  H   LIG d   1      -1.501  90.938 116.553  0.00  0.00    -0.090 HD
ATOM     20  H   LIG d   1      -3.000  90.616 116.014  0.00  0.00    -0.090 HD
ATOM     21  H   LIG d   1      -2.354  89.714 117.220  0.00  0.00    -0.090 HD
ENDBRANCH   5  18
BRANCH   3  22
ATOM     22  C   LIG d   1      -1.616  94.585 119.406  0.00  0.00     0.382 C 
ATOM     23  O   LIG d   1      -1.931  95.106 120.504  0.00  0.00    -0.241 OA
ATOM     24  O   LIG d   1      -0.498  94.824 118.913  0.00  0.00    -0.241 OA
ENDBRANCH   3  22
TORSDOF 7
ENDMDL
MODEL 7
REMARK VINA RESULT:      -4.5      2.484      4.479
REMARK  7 active torsions:
REMARK  status: ('A' for Active; 'I' for Inactive)
REMARK    1  A    between atoms: C_2  and  C_3 
REMARK    2  A    between atoms: C_3  and  O_6 
REMARK    3  A    between atoms: C_3  and  C_4 
REMARK    4  A    between atoms: C_7  and  O_6 
REMARK    5  A    between atoms: C_9  and  C_10 
REMARK    6  A    between atoms: N_15  and  C_14 
REMARK    7  A    between atoms: N_20  and  C_19 
REMARK       I    between atoms: C_22  and  N_20 
ROOT
ATOM      1  C   LIG d   1      -3.770  93.284 118.471  0.00  0.00     0.161 C 
ATOM      2  C   LIG d   1      -4.941  94.049 118.604  0.00  0.00     0.016 C 
ATOM      3  C   LIG d   1      -6.134  93.774 117.896  0.00  0.00     0.038 C 
ATOM      4  C   LIG d   1      -6.284  92.618 117.117  0.00  0.00     0.028 C 
ATOM      5  C   LIG d   1      -4.968  92.090 116.556  0.00  0.00    -0.047 C 
ATOM      6  C   LIG d   1      -3.949  91.954 117.710  0.00  0.00     0.091 C 
ENDROOT
BRANCH   1   7
ATOM      7  O   LIG d   1      -3.193  93.044 119.770  0.00  0.00    -0.368 OA
BRANCH   7   8
ATOM      8  C   LIG d   1      -1.998  93.800 120.086  0.00  0.00     0.119 C 
BRANCH   8   9
ATOM      9  C   LIG d   1      -2.428  95.014 120.933  0.00  0.00     0.028 C 
ATOM     10  C   LIG d   1      -2.225  96.347 120.193  0.00  0.00     0.006 C 
ENDBRANCH   8   9
BRANCH   8  11
ATOM     11  C   LIG d   1      -1.363  94.391 118.824  0.00  0.00     0.028 C 
ATOM     12  C   LIG d   1       0.030  93.811 118.530  0.00  0.00     0.006 C 
ENDBRANCH   8  11
ENDBRANCH   7   8
ENDBRANCH   1   7
BRANCH   6  13
ATOM     13  N   LIG d   1      -2.609  91.523 117.235  0.00  0.00    -0.311 N 
ATOM     14  C   LIG d   1      -1.925  90.519 117.781  0.00  0.00     0.210 C 
ATOM     15  C   LIG d   1      -0.554  90.253 117.152  0.00  0.00     0.109 C 
ATOM     16  O   LIG d   1      -2.337  89.803 118.706  0.00  0.00    -0.276 OA
ATOM     17  H   LIG d   1      -2.212  92.029 116.468  0.00  0.00     0.149 HD
ENDBRANCH   6  13
BRANCH   5  18
ATOM     18  N   LIG d   1      -5.253  90.809 115.881  0.00  0.00     0.381 N 
ATOM     19  H   LIG d   1      -6.022  90.354 116.330  0.00  0.00    -0.090 HD
ATOM     20  H   LIG d   1      -4.446  90.215 115.958  0.00  0.00    -0.090 HD
ATOM     21  H   LIG d   1      -5.467  90.970 114.921  0.00  0.00    -0.090 HD
ENDBRANCH   5  18
BRANCH   3  22
ATOM     22  C   LIG d   1      -7.180  94.684 117.934  0.00  0.00     0.382 C 
ATOM     23  O   LIG d   1      -6.945  95.901 118.127  0.00  0.00    -0.241 OA
ATOM     24  O   LIG d   1      -8.358  94.297 117.821  0.00  0.00    -0.241 OA
ENDBRANCH   3  22
TORSDOF 7
ENDMDL
MODEL 8
REMARK VINA RESULT:      -4.5      2.363      4.091
REMARK  7 active torsions:
REMARK  status: ('A' for Active; 'I' for Inactive)
REMARK    1  A    between atoms: C_2  and  C_3 
REMARK    2  A    between atoms: C_3  and  O_6 
REMARK    3  A    between atoms: C_3  and  C_4 
REMARK    4  A    between atoms: C_7  and  O_6 
REMARK    5  A    between atoms: C_9  and  C_10 
REMARK    6  A    between atoms: N_15  and  C_14 
REMARK    7  A    between atoms: N_20  and  C_19 
REMARK       I    between atoms: C_22  and  N_20 
ROOT
ATOM      1  C   LIG d   1      -3.905  93.374 118.702  0.00  0.00     0.161 C 
ATOM      2  C   LIG d   1      -5.095  94.118 118.771  0.00  0.00     0.016 C 
ATOM      3  C   LIG d   1      -6.227  93.854 117.966  0.00  0.00     0.038 C 
ATOM      4  C   LIG d   1      -6.299  92.723 117.138  0.00  0.00     0.028 C 
ATOM      5  C   LIG d   1      -4.936  92.233 116.661  0.00  0.00    -0.047 C 
ATOM      6  C   LIG d   1      -4.006  92.069 117.884  0.00  0.00     0.091 C 
ENDROOT
BRANCH   1   7
ATOM      7  O   LIG d   1      -3.425  93.096 120.032  0.00  0.00    -0.368 OA
BRANCH   7   8
ATOM      8  C   LIG d   1      -3.798  91.812 120.589  0.00  0.00     0.119 C 
BRANCH   8   9
ATOM      9  C   LIG d   1      -4.874  92.069 121.662  0.00  0.00     0.028 C 
ATOM     10  C   LIG d   1      -6.251  91.516 121.256  0.00  0.00     0.006 C 
ENDBRANCH   8   9
BRANCH   8  11
ATOM     11  C   LIG d   1      -2.627  91.167 121.336  0.00  0.00     0.028 C 
ATOM     12  C   LIG d   1      -1.263  91.728 120.903  0.00  0.00     0.006 C 
ENDBRANCH   8  11
ENDBRANCH   7   8
ENDBRANCH   1   7
BRANCH   6  13
ATOM     13  N   LIG d   1      -2.626  91.674 117.498  0.00  0.00    -0.311 N 
ATOM     14  C   LIG d   1      -2.187  90.417 117.533  0.00  0.00     0.210 C 
ATOM     15  C   LIG d   1      -0.726  90.230 117.112  0.00  0.00     0.109 C 
ATOM     16  O   LIG d   1      -2.879  89.434 117.841  0.00  0.00    -0.276 OA
ATOM     17  H   LIG d   1      -2.007  92.404 117.205  0.00  0.00     0.149 HD
ENDBRANCH   6  13
BRANCH   5  18
ATOM     18  N   LIG d   1      -5.149  90.974 115.923  0.00  0.00     0.381 N 
ATOM     19  H   LIG d   1      -5.664  90.332 116.491  0.00  0.00    -0.090 HD
ATOM     20  H   LIG d   1      -4.255  90.564 115.715  0.00  0.00    -0.090 HD
ATOM     21  H   LIG d   1      -5.645  91.153 115.078  0.00  0.00    -0.090 HD
ENDBRANCH   5  18
BRANCH   3  22
ATOM     22  C   LIG d   1      -7.287  94.747 117.955  0.00  0.00     0.382 C 
ATOM     23  O   LIG d   1      -8.460  94.326 117.818  0.00  0.00    -0.241 OA
ATOM     24  O   LIG d   1      -7.080  95.973 118.036  0.00  0.00    -0.241 OA
ENDBRANCH   3  22
TORSDOF 7
ENDMDL
MODEL 9
REMARK VINA RESULT:      -4.4      2.651      6.089
REMARK  7 active torsions:
REMARK  status: ('A' for Active; 'I' for Inactive)
REMARK    1  A    between atoms: C_2  and  C_3 
REMARK    2  A    between atoms: C_3  and  O_6 
REMARK    3  A    between atoms: C_3  and  C_4 
REMARK    4  A    between atoms: C_7  and  O_6 
REMARK    5  A    between atoms: C_9  and  C_10 
REMARK    6  A    between atoms: N_15  and  C_14 
REMARK    7  A    between atoms: N_20  and  C_19 
REMARK       I    between atoms: C_22  and  N_20 
ROOT
ATOM      1  C   LIG d   1      -4.369  93.390 118.276  0.00  0.00     0.161 C 
ATOM      2  C   LIG d   1      -4.179  94.320 119.311  0.00  0.00     0.016 C 
ATOM      3  C   LIG d   1      -5.188  95.204 119.759  0.00  0.00     0.038 C 
ATOM      4  C   LIG d   1      -6.510  95.113 119.299  0.00  0.00     0.028 C 
ATOM      5  C   LIG d   1      -6.625  94.529 117.895  0.00  0.00    -0.047 C 
ATOM      6  C   LIG d   1      -5.837  93.201 117.839  0.00  0.00     0.091 C 
ENDROOT
BRANCH   1   7
ATOM      7  O   LIG d   1      -3.788  92.124 118.644  0.00  0.00    -0.368 OA
BRANCH   7   8
ATOM      8  C   LIG d   1      -2.652  91.691 117.855  0.00  0.00     0.119 C 
BRANCH   8   9
ATOM      9  C   LIG d   1      -2.797  90.173 117.630  0.00  0.00     0.028 C 
ATOM     10  C   LIG d   1      -3.908  89.555 118.495  0.00  0.00     0.006 C 
ENDBRANCH   8   9
BRANCH   8  11
ATOM     11  C   LIG d   1      -1.340  91.863 118.627  0.00  0.00     0.028 C 
ATOM     12  C   LIG d   1      -0.389  92.873 117.966  0.00  0.00     0.006 C 
ENDBRANCH   8  11
ENDBRANCH   7   8
ENDBRANCH   1   7
BRANCH   6  13
ATOM     13  N   LIG d   1      -5.827  92.605 116.477  0.00  0.00    -0.311 N 
ATOM     14  C   LIG d   1      -6.334  91.405 116.198  0.00  0.00     0.210 C 
ATOM     15  C   LIG d   1      -6.203  90.972 114.735  0.00  0.00     0.109 C 
ATOM     16  O   LIG d   1      -6.909  90.672 117.017  0.00  0.00    -0.276 OA
ATOM     17  H   LIG d   1      -5.408  93.145 115.746  0.00  0.00     0.149 HD
ENDBRANCH   6  13
BRANCH   5  18
ATOM     18  N   LIG d   1      -8.060  94.364 117.597  0.00  0.00     0.381 N 
ATOM     19  H   LIG d   1      -8.179  94.111 116.637  0.00  0.00    -0.090 HD
ATOM     20  H   LIG d   1      -8.527  95.239 117.754  0.00  0.00    -0.090 HD
ATOM     21  H   LIG d   1      -8.451  93.660 118.185  0.00  0.00    -0.090 HD
ENDBRANCH   5  18
BRANCH   3  22
ATOM     22  C   LIG d   1      -4.867  96.219 120.648  0.00  0.00     0.382 C 
ATOM     23  O   LIG d   1      -5.756  96.711 121.384  0.00  0.00    -0.241 OA
ATOM     24  O   LIG d   1      -3.711  96.680 120.690  0.00  0.00    -0.241 OA
ENDBRANCH   3  22
TORSDOF 7
ENDMDL
