MODEL 1
REMARK VINA RESULT:      -5.8      0.000      0.000
REMARK  7 active torsions:
REMARK  status: ('A' for Active; 'I' for Inactive)
REMARK    1  A    between atoms: C_2  and  C_3 
REMARK    2  A    between atoms: C_3  and  O_6 
REMARK    3  A    between atoms: C_3  and  C_4 
REMARK    4  A    between atoms: C_7  and  O_6 
REMARK    5  A    between atoms: C_9  and  C_10 
REMARK    6  A    between atoms: N_15  and  C_14 
REMARK    7  A    between atoms: N_20  and  C_19 
REMARK       I    between atoms: C_22  and  N_20 
ROOT
ATOM      1  C   LIG d   1      -4.198  90.989 117.792  0.00  0.00     0.161 C 
ATOM      2  C   LIG d   1      -4.740  90.413 116.631  0.00  0.00     0.016 C 
ATOM      3  C   LIG d   1      -5.932  90.868 116.020  0.00  0.00     0.038 C 
ATOM      4  C   LIG d   1      -6.586  92.033 116.447  0.00  0.00     0.028 C 
ATOM      5  C   LIG d   1      -6.356  92.351 117.921  0.00  0.00    -0.047 C 
ATOM      6  C   LIG d   1      -4.837  92.330 118.208  0.00  0.00     0.091 C 
ENDROOT
BRANCH   1   7
ATOM      7  O   LIG d   1      -2.772  91.138 117.644  0.00  0.00    -0.368 OA
BRANCH   7   8
ATOM      8  C   LIG d   1      -1.955  90.147 118.314  0.00  0.00     0.119 C 
BRANCH   8   9
ATOM      9  C   LIG d   1      -1.378  89.214 117.232  0.00  0.00     0.028 C 
ATOM     10  C   LIG d   1      -0.096  89.777 116.594  0.00  0.00     0.006 C 
ENDBRANCH   8   9
BRANCH   8  11
ATOM     11  C   LIG d   1      -2.801  89.245 119.218  0.00  0.00     0.028 C 
ATOM     12  C   LIG d   1      -2.533  89.479 120.713  0.00  0.00     0.006 C 
ENDBRANCH   8  11
ENDBRANCH   7   8
ENDBRANCH   1   7
BRANCH   6  13
ATOM     13  N   LIG d   1      -4.529  92.549 119.645  0.00  0.00    -0.311 N 
ATOM     14  C   LIG d   1      -4.226  93.741 120.156  0.00  0.00     0.210 C 
ATOM     15  C   LIG d   1      -3.922  93.742 121.658  0.00  0.00     0.109 C 
ATOM     16  O   LIG d   1      -4.211  94.803 119.516  0.00  0.00    -0.276 OA
ATOM     17  H   LIG d   1      -4.548  91.747 120.243  0.00  0.00     0.149 HD
ENDBRANCH   6  13
BRANCH   5  18
ATOM     18  N   LIG d   1      -6.978  93.660 118.196  0.00  0.00     0.381 N 
ATOM     19  H   LIG d   1      -6.637  94.341 117.547  0.00  0.00    -0.090 HD
ATOM     20  H   LIG d   1      -6.723  93.953 119.123  0.00  0.00    -0.090 HD
ATOM     21  H   LIG d   1      -7.969  93.588 118.124  0.00  0.00    -0.090 HD
ENDBRANCH   5  18
BRANCH   3  22
ATOM     22  C   LIG d   1      -6.504  90.130 114.995  0.00  0.00     0.382 C 
ATOM     23  O   LIG d   1      -7.694  90.339 114.660  0.00  0.00    -0.241 OA
ATOM     24  O   LIG d   1      -5.857  89.227 114.430  0.00  0.00    -0.241 OA
ENDBRANCH   3  22
TORSDOF 7
ENDMDL
MODEL 2
REMARK VINA RESULT:      -5.7      2.440      4.887
REMARK  7 active torsions:
REMARK  status: ('A' for Active; 'I' for Inactive)
REMARK    1  A    between atoms: C_2  and  C_3 
REMARK    2  A    between atoms: C_3  and  O_6 
REMARK    3  A    between atoms: C_3  and  C_4 
REMARK    4  A    between atoms: C_7  and  O_6 
REMARK    5  A    between atoms: C_9  and  C_10 
REMARK    6  A    between atoms: N_15  and  C_14 
REMARK    7  A    between atoms: N_20  and  C_19 
REMARK       I    between atoms: C_22  and  N_20 
ROOT
ATOM      1  C   LIG d   1      -6.398  92.699 118.114  0.00  0.00     0.161 C 
ATOM      2  C   LIG d   1      -6.929  91.605 117.412  0.00  0.00     0.016 C 
ATOM      3  C   LIG d   1      -6.133  90.576 116.857  0.00  0.00     0.038 C 
ATOM      4  C   LIG d   1      -4.754  90.493 117.100  0.00  0.00     0.028 C 
ATOM      5  C   LIG d   1      -4.106  91.846 117.377  0.00  0.00    -0.047 C 
ATOM      6  C   LIG d   1      -4.906  92.569 118.484  0.00  0.00     0.091 C 
ENDROOT
BRANCH   1   7
ATOM      7  O   LIG d   1      -7.187  92.952 119.294  0.00  0.00    -0.368 OA
BRANCH   7   8
ATOM      8  C   LIG d   1      -8.355  93.789 119.113  0.00  0.00     0.119 C 
BRANCH   8   9
ATOM      9  C   LIG d   1      -7.921  95.017 118.290  0.00  0.00     0.028 C 
ATOM     10  C   LIG d   1      -7.404  96.164 119.175  0.00  0.00     0.006 C 
ENDBRANCH   8   9
BRANCH   8  11
ATOM     11  C   LIG d   1      -8.851  94.351 120.449  0.00  0.00     0.028 C 
ATOM     12  C   LIG d   1     -10.184  93.732 120.898  0.00  0.00     0.006 C 
ENDBRANCH   8  11
ENDBRANCH   7   8
ENDBRANCH   1   7
BRANCH   6  13
ATOM     13  N   LIG d   1      -4.389  93.935 118.757  0.00  0.00    -0.311 N 
ATOM     14  C   LIG d   1      -3.502  94.205 119.713  0.00  0.00     0.210 C 
ATOM     15  C   LIG d   1      -3.117  95.683 119.839  0.00  0.00     0.109 C 
ATOM     16  O   LIG d   1      -2.972  93.357 120.447  0.00  0.00    -0.276 OA
ATOM     17  H   LIG d   1      -4.742  94.679 118.188  0.00  0.00     0.149 HD
ENDBRANCH   6  13
BRANCH   5  18
ATOM     18  N   LIG d   1      -2.700  91.598 117.747  0.00  0.00     0.381 N 
ATOM     19  H   LIG d   1      -2.191  92.459 117.739  0.00  0.00    -0.090 HD
ATOM     20  H   LIG d   1      -2.288  90.982 117.069  0.00  0.00    -0.090 HD
ATOM     21  H   LIG d   1      -2.653  91.186 118.653  0.00  0.00    -0.090 HD
ENDBRANCH   5  18
BRANCH   3  22
ATOM     22  C   LIG d   1      -6.712  89.637 116.017  0.00  0.00     0.382 C 
ATOM     23  O   LIG d   1      -6.177  89.368 114.915  0.00  0.00    -0.241 OA
ATOM     24  O   LIG d   1      -7.786  89.088 116.328  0.00  0.00    -0.241 OA
ENDBRANCH   3  22
TORSDOF 7
ENDMDL
MODEL 3
REMARK VINA RESULT:      -5.5      2.434      4.046
REMARK  7 active torsions:
REMARK  status: ('A' for Active; 'I' for Inactive)
REMARK    1  A    between atoms: C_2  and  C_3 
REMARK    2  A    between atoms: C_3  and  O_6 
REMARK    3  A    between atoms: C_3  and  C_4 
REMARK    4  A    between atoms: C_7  and  O_6 
REMARK    5  A    between atoms: C_9  and  C_10 
REMARK    6  A    between atoms: N_15  and  C_14 
REMARK    7  A    between atoms: N_20  and  C_19 
REMARK       I    between atoms: C_22  and  N_20 
ROOT
ATOM      1  C   LIG d   1      -4.519  92.186 118.451  0.00  0.00     0.161 C 
ATOM      2  C   LIG d   1      -5.775  92.806 118.561  0.00  0.00     0.016 C 
ATOM      3  C   LIG d   1      -6.869  92.503 117.719  0.00  0.00     0.038 C 
ATOM      4  C   LIG d   1      -6.827  91.444 116.800  0.00  0.00     0.028 C 
ATOM      5  C   LIG d   1      -5.419  91.126 116.307  0.00  0.00    -0.047 C 
ATOM      6  C   LIG d   1      -4.488  90.950 117.528  0.00  0.00     0.091 C 
ENDROOT
BRANCH   1   7
ATOM      7  O   LIG d   1      -4.026  91.845 119.762  0.00  0.00    -0.368 OA
BRANCH   7   8
ATOM      8  C   LIG d   1      -2.920  92.642 120.253  0.00  0.00     0.119 C 
BRANCH   8   9
ATOM      9  C   LIG d   1      -2.430  93.523 119.088  0.00  0.00     0.028 C 
ATOM     10  C   LIG d   1      -0.960  93.253 118.726  0.00  0.00     0.006 C 
ENDBRANCH   8   9
BRANCH   8  11
ATOM     11  C   LIG d   1      -1.723  91.764 120.628  0.00  0.00     0.028 C 
ATOM     12  C   LIG d   1      -2.141  90.427 121.262  0.00  0.00     0.006 C 
ENDBRANCH   8  11
ENDBRANCH   7   8
ENDBRANCH   1   7
BRANCH   6  13
ATOM     13  N   LIG d   1      -3.074  90.719 117.134  0.00  0.00    -0.311 N 
ATOM     14  C   LIG d   1      -2.357  89.677 117.551  0.00  0.00     0.210 C 
ATOM     15  C   LIG d   1      -0.912  89.640 117.041  0.00  0.00     0.109 C 
ATOM     16  O   LIG d   1      -2.789  88.763 118.269  0.00  0.00    -0.276 OA
ATOM     17  H   LIG d   1      -2.653  91.396 116.528  0.00  0.00     0.149 HD
ENDBRANCH   6  13
BRANCH   5  18
ATOM     18  N   LIG d   1      -5.504  89.917 115.466  0.00  0.00     0.381 N 
ATOM     19  H   LIG d   1      -6.224  90.032 114.780  0.00  0.00    -0.090 HD
ATOM     20  H   LIG d   1      -5.743  89.133 116.046  0.00  0.00    -0.090 HD
ATOM     21  H   LIG d   1      -4.630  89.753 115.016  0.00  0.00    -0.090 HD
ENDBRANCH   5  18
BRANCH   3  22
ATOM     22  C   LIG d   1      -8.010  93.291 117.763  0.00  0.00     0.382 C 
ATOM     23  O   LIG d   1      -8.475  93.780 116.706  0.00  0.00    -0.241 OA
ATOM     24  O   LIG d   1      -8.553  93.555 118.852  0.00  0.00    -0.241 OA
ENDBRANCH   3  22
TORSDOF 7
ENDMDL
MODEL 4
REMARK VINA RESULT:      -5.4      1.723      4.965
REMARK  7 active torsions:
REMARK  status: ('A' for Active; 'I' for Inactive)
REMARK    1  A    between atoms: C_2  and  C_3 
REMARK    2  A    between atoms: C_3  and  O_6 
REMARK    3  A    between atoms: C_3  and  C_4 
REMARK    4  A    between atoms: C_7  and  O_6 
REMARK    5  A    between atoms: C_9  and  C_10 
REMARK    6  A    between atoms: N_15  and  C_14 
REMARK    7  A    between atoms: N_20  and  C_19 
REMARK       I    between atoms: C_22  and  N_20 
ROOT
ATOM      1  C   LIG d   1      -4.008  92.644 118.137  0.00  0.00     0.161 C 
ATOM      2  C   LIG d   1      -3.952  93.599 119.165  0.00  0.00     0.016 C 
ATOM      3  C   LIG d   1      -5.101  94.157 119.772  0.00  0.00     0.038 C 
ATOM      4  C   LIG d   1      -6.392  93.682 119.493  0.00  0.00     0.028 C 
ATOM      5  C   LIG d   1      -6.526  93.077 118.100  0.00  0.00    -0.047 C 
ATOM      6  C   LIG d   1      -5.404  92.033 117.896  0.00  0.00     0.091 C 
ENDROOT
BRANCH   1   7
ATOM      7  O   LIG d   1      -3.042  91.603 118.383  0.00  0.00    -0.368 OA
BRANCH   7   8
ATOM      8  C   LIG d   1      -3.449  90.559 119.301  0.00  0.00     0.119 C 
BRANCH   8   9
ATOM      9  C   LIG d   1      -2.627  90.732 120.593  0.00  0.00     0.028 C 
ATOM     10  C   LIG d   1      -1.764  89.499 120.909  0.00  0.00     0.006 C 
ENDBRANCH   8   9
BRANCH   8  11
ATOM     11  C   LIG d   1      -3.079  89.172 118.768  0.00  0.00     0.028 C 
ATOM     12  C   LIG d   1      -2.689  89.190 117.281  0.00  0.00     0.006 C 
ENDBRANCH   8  11
ENDBRANCH   7   8
ENDBRANCH   1   7
BRANCH   6  13
ATOM     13  N   LIG d   1      -5.412  91.453 116.528  0.00  0.00    -0.311 N 
ATOM     14  C   LIG d   1      -6.115  90.372 116.194  0.00  0.00     0.210 C 
ATOM     15  C   LIG d   1      -5.965  89.929 114.735  0.00  0.00     0.109 C 
ATOM     16  O   LIG d   1      -6.873  89.757 116.959  0.00  0.00    -0.276 OA
ATOM     17  H   LIG d   1      -4.848  91.908 115.836  0.00  0.00     0.149 HD
ENDBRANCH   6  13
BRANCH   5  18
ATOM     18  N   LIG d   1      -7.879  92.500 117.993  0.00  0.00     0.381 N 
ATOM     19  H   LIG d   1      -8.460  93.098 117.440  0.00  0.00    -0.090 HD
ATOM     20  H   LIG d   1      -8.279  92.436 118.913  0.00  0.00    -0.090 HD
ATOM     21  H   LIG d   1      -7.833  91.595 117.580  0.00  0.00    -0.090 HD
ENDBRANCH   5  18
BRANCH   3  22
ATOM     22  C   LIG d   1      -4.967  95.229 120.641  0.00  0.00     0.382 C 
ATOM     23  O   LIG d   1      -3.837  95.534 121.091  0.00  0.00    -0.241 OA
ATOM     24  O   LIG d   1      -5.969  95.868 121.014  0.00  0.00    -0.241 OA
ENDBRANCH   3  22
TORSDOF 7
ENDMDL
MODEL 5
REMARK VINA RESULT:      -5.4      2.081      4.510
REMARK  7 active torsions:
REMARK  status: ('A' for Active; 'I' for Inactive)
REMARK    1  A    between atoms: C_2  and  C_3 
REMARK    2  A    between atoms: C_3  and  O_6 
REMARK    3  A    between atoms: C_3  and  C_4 
REMARK    4  A    between atoms: C_7  and  O_6 
REMARK    5  A    between atoms: C_9  and  C_10 
REMARK    6  A    between atoms: N_15  and  C_14 
REMARK    7  A    between atoms: N_20  and  C_19 
REMARK       I    between atoms: C_22  and  N_20 
ROOT
ATOM      1  C   LIG d   1      -5.481  91.951 118.314  0.00  0.00     0.161 C 
ATOM      2  C   LIG d   1      -6.351  91.929 117.211  0.00  0.00     0.016 C 
ATOM      3  C   LIG d   1      -6.154  91.104 116.080  0.00  0.00     0.038 C 
ATOM      4  C   LIG d   1      -5.147  90.128 116.041  0.00  0.00     0.028 C 
ATOM      5  C   LIG d   1      -3.944  90.463 116.916  0.00  0.00    -0.047 C 
ATOM      6  C   LIG d   1      -4.440  90.813 118.338  0.00  0.00     0.091 C 
ENDROOT
BRANCH   1   7
ATOM      7  O   LIG d   1      -6.243  91.958 119.537  0.00  0.00    -0.368 OA
BRANCH   7   8
ATOM      8  C   LIG d   1      -6.345  93.234 120.217  0.00  0.00     0.119 C 
BRANCH   8   9
ATOM      9  C   LIG d   1      -7.725  93.830 119.879  0.00  0.00     0.028 C 
ATOM     10  C   LIG d   1      -7.632  94.995 118.879  0.00  0.00     0.006 C 
ENDBRANCH   8   9
BRANCH   8  11
ATOM     11  C   LIG d   1      -5.325  94.238 119.672  0.00  0.00     0.028 C 
ATOM     12  C   LIG d   1      -4.156  94.484 120.640  0.00  0.00     0.006 C 
ENDBRANCH   8  11
ENDBRANCH   7   8
ENDBRANCH   1   7
BRANCH   6  13
ATOM     13  N   LIG d   1      -3.333  91.234 119.236  0.00  0.00    -0.311 N 
ATOM     14  C   LIG d   1      -2.649  90.388 120.004  0.00  0.00     0.210 C 
ATOM     15  C   LIG d   1      -1.562  91.034 120.869  0.00  0.00     0.109 C 
ATOM     16  O   LIG d   1      -2.817  89.160 120.026  0.00  0.00    -0.276 OA
ATOM     17  H   LIG d   1      -3.109  92.210 119.257  0.00  0.00     0.149 HD
ENDBRANCH   6  13
BRANCH   5  18
ATOM     18  N   LIG d   1      -3.036  89.301 116.889  0.00  0.00     0.381 N 
ATOM     19  H   LIG d   1      -3.441  88.568 116.343  0.00  0.00    -0.090 HD
ATOM     20  H   LIG d   1      -2.911  88.964 117.828  0.00  0.00    -0.090 HD
ATOM     21  H   LIG d   1      -2.156  89.565 116.504  0.00  0.00    -0.090 HD
ENDBRANCH   5  18
BRANCH   3  22
ATOM     22  C   LIG d   1      -6.945  91.280 114.955  0.00  0.00     0.382 C 
ATOM     23  O   LIG d   1      -7.518  90.294 114.431  0.00  0.00    -0.241 OA
ATOM     24  O   LIG d   1      -7.056  92.404 114.430  0.00  0.00    -0.241 OA
ENDBRANCH   3  22
TORSDOF 7
ENDMDL
MODEL 6
REMARK VINA RESULT:      -4.9      2.317      4.346
REMARK  7 active torsions:
REMARK  status: ('A' for Active; 'I' for Inactive)
REMARK    1  A    between atoms: C_2  and  C_3 
REMARK    2  A    between atoms: C_3  and  O_6 
REMARK    3  A    between atoms: C_3  and  C_4 
REMARK    4  A    between atoms: C_7  and  O_6 
REMARK    5  A    between atoms: C_9  and  C_10 
REMARK    6  A    between atoms: N_15  and  C_14 
REMARK    7  A    between atoms: N_20  and  C_19 
REMARK       I    between atoms: C_22  and  N_20 
ROOT
ATOM      1  C   LIG d   1      -4.115  92.453 117.784  0.00  0.00     0.161 C 
ATOM      2  C   LIG d   1      -5.129  91.740 117.124  0.00  0.00     0.016 C 
ATOM      3  C   LIG d   1      -5.007  90.383 116.746  0.00  0.00     0.038 C 
ATOM      4  C   LIG d   1      -3.912  89.599 117.138  0.00  0.00     0.028 C 
ATOM      5  C   LIG d   1      -2.639  90.409 117.367  0.00  0.00    -0.047 C 
ATOM      6  C   LIG d   1      -2.957  91.584 118.319  0.00  0.00     0.091 C 
ENDROOT
BRANCH   1   7
ATOM      7  O   LIG d   1      -4.684  93.240 118.848  0.00  0.00    -0.368 OA
BRANCH   7   8
ATOM      8  C   LIG d   1      -6.026  92.881 119.260  0.00  0.00     0.119 C 
BRANCH   8   9
ATOM      9  C   LIG d   1      -6.832  94.187 119.401  0.00  0.00     0.028 C 
ATOM     10  C   LIG d   1      -8.316  94.002 119.046  0.00  0.00     0.006 C 
ENDBRANCH   8   9
BRANCH   8  11
ATOM     11  C   LIG d   1      -6.031  92.249 120.654  0.00  0.00     0.028 C 
ATOM     12  C   LIG d   1      -4.911  92.790 121.558  0.00  0.00     0.006 C 
ENDBRANCH   8  11
ENDBRANCH   7   8
ENDBRANCH   1   7
BRANCH   6  13
ATOM     13  N   LIG d   1      -1.786  92.476 118.529  0.00  0.00    -0.311 N 
ATOM     14  C   LIG d   1      -1.202  92.652 119.713  0.00  0.00     0.210 C 
ATOM     15  C   LIG d   1      -0.022  93.629 119.713  0.00  0.00     0.109 C 
ATOM     16  O   LIG d   1      -1.528  92.067 120.756  0.00  0.00    -0.276 OA
ATOM     17  H   LIG d   1      -1.436  92.965 117.729  0.00  0.00     0.149 HD
ENDBRANCH   6  13
BRANCH   5  18
ATOM     18  N   LIG d   1      -1.617  89.490 117.903  0.00  0.00     0.381 N 
ATOM     19  H   LIG d   1      -2.056  88.779 118.453  0.00  0.00    -0.090 HD
ATOM     20  H   LIG d   1      -0.994  90.008 118.497  0.00  0.00    -0.090 HD
ATOM     21  H   LIG d   1      -1.107  89.074 117.156  0.00  0.00    -0.090 HD
ENDBRANCH   5  18
BRANCH   3  22
ATOM     22  C   LIG d   1      -5.970  89.807 115.931  0.00  0.00     0.382 C 
ATOM     23  O   LIG d   1      -5.677  89.460 114.762  0.00  0.00    -0.241 OA
ATOM     24  O   LIG d   1      -7.140  89.671 116.336  0.00  0.00    -0.241 OA
ENDBRANCH   3  22
TORSDOF 7
ENDMDL
MODEL 7
REMARK VINA RESULT:      -4.8      1.565      2.197
REMARK  7 active torsions:
REMARK  status: ('A' for Active; 'I' for Inactive)
REMARK    1  A    between atoms: C_2  and  C_3 
REMARK    2  A    between atoms: C_3  and  O_6 
REMARK    3  A    between atoms: C_3  and  C_4 
REMARK    4  A    between atoms: C_7  and  O_6 
REMARK    5  A    between atoms: C_9  and  C_10 
REMARK    6  A    between atoms: N_15  and  C_14 
REMARK    7  A    between atoms: N_20  and  C_19 
REMARK       I    between atoms: C_22  and  N_20 
ROOT
ATOM      1  C   LIG d   1      -4.326  91.690 118.002  0.00  0.00     0.161 C 
ATOM      2  C   LIG d   1      -4.737  90.719 117.074  0.00  0.00     0.016 C 
ATOM      3  C   LIG d   1      -5.966  90.779 116.377  0.00  0.00     0.038 C 
ATOM      4  C   LIG d   1      -6.806  91.900 116.450  0.00  0.00     0.028 C 
ATOM      5  C   LIG d   1      -6.673  92.672 117.759  0.00  0.00    -0.047 C 
ATOM      6  C   LIG d   1      -5.179  92.977 118.012  0.00  0.00     0.091 C 
ENDROOT
BRANCH   1   7
ATOM      7  O   LIG d   1      -2.937  92.011 117.791  0.00  0.00    -0.368 OA
BRANCH   7   8
ATOM      8  C   LIG d   1      -2.025  91.621 118.847  0.00  0.00     0.119 C 
BRANCH   8   9
ATOM      9  C   LIG d   1      -2.832  90.811 119.880  0.00  0.00     0.028 C 
ATOM     10  C   LIG d   1      -2.323  89.366 120.020  0.00  0.00     0.006 C 
ENDBRANCH   8   9
BRANCH   8  11
ATOM     11  C   LIG d   1      -1.500  92.841 119.610  0.00  0.00     0.028 C 
ATOM     12  C   LIG d   1      -1.342  94.080 118.714  0.00  0.00     0.006 C 
ENDBRANCH   8  11
ENDBRANCH   7   8
ENDBRANCH   1   7
BRANCH   6  13
ATOM     13  N   LIG d   1      -4.951  93.657 119.314  0.00  0.00    -0.311 N 
ATOM     14  C   LIG d   1      -5.420  93.197 120.473  0.00  0.00     0.210 C 
ATOM     15  C   LIG d   1      -5.088  94.062 121.693  0.00  0.00     0.109 C 
ATOM     16  O   LIG d   1      -6.051  92.138 120.610  0.00  0.00    -0.276 OA
ATOM     17  H   LIG d   1      -4.422  94.506 119.298  0.00  0.00     0.149 HD
ENDBRANCH   6  13
BRANCH   5  18
ATOM     18  N   LIG d   1      -7.499  93.888 117.644  0.00  0.00     0.381 N 
ATOM     19  H   LIG d   1      -7.274  94.522 118.385  0.00  0.00    -0.090 HD
ATOM     20  H   LIG d   1      -8.467  93.633 117.731  0.00  0.00    -0.090 HD
ATOM     21  H   LIG d   1      -7.341  94.326 116.763  0.00  0.00    -0.090 HD
ENDBRANCH   5  18
BRANCH   3  22
ATOM     22  C   LIG d   1      -6.384  89.690 115.627  0.00  0.00     0.382 C 
ATOM     23  O   LIG d   1      -7.354  88.995 116.017  0.00  0.00    -0.241 OA
ATOM     24  O   LIG d   1      -5.777  89.367 114.589  0.00  0.00    -0.241 OA
ENDBRANCH   3  22
TORSDOF 7
ENDMDL
MODEL 8
REMARK VINA RESULT:      -4.7      2.164      4.901
REMARK  7 active torsions:
REMARK  status: ('A' for Active; 'I' for Inactive)
REMARK    1  A    between atoms: C_2  and  C_3 
REMARK    2  A    between atoms: C_3  and  O_6 
REMARK    3  A    between atoms: C_3  and  C_4 
REMARK    4  A    between atoms: C_7  and  O_6 
REMARK    5  A    between atoms: C_9  and  C_10 
REMARK    6  A    between atoms: N_15  and  C_14 
REMARK    7  A    between atoms: N_20  and  C_19 
REMARK       I    between atoms: C_22  and  N_20 
ROOT
ATOM      1  C   LIG d   1      -4.025  90.752 118.067  0.00  0.00     0.161 C 
ATOM      2  C   LIG d   1      -2.899  90.064 117.586  0.00  0.00     0.016 C 
ATOM      3  C   LIG d   1      -1.679  89.976 118.296  0.00  0.00     0.038 C 
ATOM      4  C   LIG d   1      -1.551  90.446 119.612  0.00  0.00     0.028 C 
ATOM      5  C   LIG d   1      -2.504  91.590 119.942  0.00  0.00    -0.047 C 
ATOM      6  C   LIG d   1      -3.941  91.176 119.549  0.00  0.00     0.091 C 
ENDROOT
BRANCH   1   7
ATOM      7  O   LIG d   1      -5.212  89.967 117.838  0.00  0.00    -0.368 OA
BRANCH   7   8
ATOM      8  C   LIG d   1      -6.111  90.456 116.813  0.00  0.00     0.119 C 
BRANCH   8   9
ATOM      9  C   LIG d   1      -5.706  89.787 115.485  0.00  0.00     0.028 C 
ATOM     10  C   LIG d   1      -6.825  89.849 114.431  0.00  0.00     0.006 C 
ENDBRANCH   8   9
BRANCH   8  11
ATOM     11  C   LIG d   1      -5.929  91.959 116.582  0.00  0.00     0.028 C 
ATOM     12  C   LIG d   1      -7.131  92.786 117.065  0.00  0.00     0.006 C 
ENDBRANCH   8  11
ENDBRANCH   7   8
ENDBRANCH   1   7
BRANCH   6  13
ATOM     13  N   LIG d   1      -4.924  92.270 119.760  0.00  0.00    -0.311 N 
ATOM     14  C   LIG d   1      -5.871  92.234 120.696  0.00  0.00     0.210 C 
ATOM     15  C   LIG d   1      -6.793  93.457 120.730  0.00  0.00     0.109 C 
ATOM     16  O   LIG d   1      -6.015  91.320 121.521  0.00  0.00    -0.276 OA
ATOM     17  H   LIG d   1      -4.859  93.065 119.154  0.00  0.00     0.149 HD
ENDBRANCH   6  13
BRANCH   5  18
ATOM     18  N   LIG d   1      -2.361  91.889 121.379  0.00  0.00     0.381 N 
ATOM     19  H   LIG d   1      -2.926  92.679 121.619  0.00  0.00    -0.090 HD
ATOM     20  H   LIG d   1      -1.401  92.118 121.570  0.00  0.00    -0.090 HD
ATOM     21  H   LIG d   1      -2.636  91.099 121.920  0.00  0.00    -0.090 HD
ENDBRANCH   5  18
BRANCH   3  22
ATOM     22  C   LIG d   1      -0.559  89.448 117.674  0.00  0.00     0.382 C 
ATOM     23  O   LIG d   1      -0.581  89.204 116.443  0.00  0.00    -0.241 OA
ATOM     24  O   LIG d   1       0.460  89.171 118.335  0.00  0.00    -0.241 OA
ENDBRANCH   3  22
TORSDOF 7
ENDMDL
MODEL 9
REMARK VINA RESULT:      -4.7      2.546      5.338
REMARK  7 active torsions:
REMARK  status: ('A' for Active; 'I' for Inactive)
REMARK    1  A    between atoms: C_2  and  C_3 
REMARK    2  A    between atoms: C_3  and  O_6 
REMARK    3  A    between atoms: C_3  and  C_4 
REMARK    4  A    between atoms: C_7  and  O_6 
REMARK    5  A    between atoms: C_9  and  C_10 
REMARK    6  A    between atoms: N_15  and  C_14 
REMARK    7  A    between atoms: N_20  and  C_19 
REMARK       I    between atoms: C_22  and  N_20 
ROOT
ATOM      1  C   LIG d   1      -1.743  92.513 118.014  0.00  0.00     0.161 C 
ATOM      2  C   LIG d   1      -0.748  93.085 118.824  0.00  0.00     0.016 C 
ATOM      3  C   LIG d   1      -1.028  93.963 119.897  0.00  0.00     0.038 C 
ATOM      4  C   LIG d   1      -2.339  94.210 120.330  0.00  0.00     0.028 C 
ATOM      5  C   LIG d   1      -3.381  94.054 119.227  0.00  0.00    -0.047 C 
ATOM      6  C   LIG d   1      -3.183  92.683 118.541  0.00  0.00     0.091 C 
ENDROOT
BRANCH   1   7
ATOM      7  O   LIG d   1      -1.452  91.118 117.794  0.00  0.00    -0.368 OA
BRANCH   7   8
ATOM      8  C   LIG d   1      -0.739  90.441 118.858  0.00  0.00     0.119 C 
BRANCH   8   9
ATOM      9  C   LIG d   1       0.235  89.443 118.200  0.00  0.00     0.028 C 
ATOM     10  C   LIG d   1       0.216  89.530 116.665  0.00  0.00     0.006 C 
ENDBRANCH   8   9
BRANCH   8  11
ATOM     11  C   LIG d   1      -1.684  89.585 119.706  0.00  0.00     0.028 C 
ATOM     12  C   LIG d   1      -2.930  89.128 118.931  0.00  0.00     0.006 C 
ENDBRANCH   8  11
ENDBRANCH   7   8
ENDBRANCH   1   7
BRANCH   6  13
ATOM     13  N   LIG d   1      -4.108  92.484 117.394  0.00  0.00    -0.311 N 
ATOM     14  C   LIG d   1      -5.267  91.836 117.491  0.00  0.00     0.210 C 
ATOM     15  C   LIG d   1      -6.059  91.727 116.184  0.00  0.00     0.109 C 
ATOM     16  O   LIG d   1      -5.731  91.368 118.542  0.00  0.00    -0.276 OA
ATOM     17  H   LIG d   1      -3.825  92.859 116.510  0.00  0.00     0.149 HD
ENDBRANCH   6  13
BRANCH   5  18
ATOM     18  N   LIG d   1      -4.711  94.204 119.846  0.00  0.00     0.381 N 
ATOM     19  H   LIG d   1      -5.013  93.326 120.218  0.00  0.00    -0.090 HD
ATOM     20  H   LIG d   1      -5.368  94.490 119.141  0.00  0.00    -0.090 HD
ATOM     21  H   LIG d   1      -4.675  94.885 120.572  0.00  0.00    -0.090 HD
ENDBRANCH   5  18
BRANCH   3  22
ATOM     22  C   LIG d   1       0.010  94.635 120.523  0.00  0.00     0.382 C 
ATOM     23  O   LIG d   1       1.192  94.239 120.378  0.00  0.00    -0.241 OA
ATOM     24  O   LIG d   1      -0.224  95.606 121.268  0.00  0.00    -0.241 OA
ENDBRANCH   3  22
TORSDOF 7
ENDMDL
