MODEL 1
REMARK VINA RESULT:      -5.4      0.000      0.000
REMARK  7 active torsions:
REMARK  status: ('A' for Active; 'I' for Inactive)
REMARK    1  A    between atoms: C_2  and  C_3 
REMARK    2  A    between atoms: C_3  and  O_6 
REMARK    3  A    between atoms: C_3  and  C_4 
REMARK    4  A    between atoms: C_7  and  O_6 
REMARK    5  A    between atoms: C_9  and  C_10 
REMARK    6  A    between atoms: N_15  and  C_14 
REMARK    7  A    between atoms: N_20  and  C_19 
REMARK       I    between atoms: C_22  and  N_20 
ROOT
ATOM      1  C   LIG d   1      -5.144  91.275 119.153  0.00  0.00     0.161 C 
ATOM      2  C   LIG d   1      -5.516  90.363 118.151  0.00  0.00     0.016 C 
ATOM      3  C   LIG d   1      -6.389  90.689 117.088  0.00  0.00     0.038 C 
ATOM      4  C   LIG d   1      -6.833  92.001 116.869  0.00  0.00     0.028 C 
ATOM      5  C   LIG d   1      -6.890  92.842 118.140  0.00  0.00    -0.047 C 
ATOM      6  C   LIG d   1      -5.530  92.741 118.869  0.00  0.00     0.091 C 
ENDROOT
BRANCH   1   7
ATOM      7  O   LIG d   1      -3.729  91.169 119.408  0.00  0.00    -0.368 OA
BRANCH   7   8
ATOM      8  C   LIG d   1      -2.905  90.780 118.282  0.00  0.00     0.119 C 
BRANCH   8   9
ATOM      9  C   LIG d   1      -1.864  89.768 118.798  0.00  0.00     0.028 C 
ATOM     10  C   LIG d   1      -2.503  88.442 119.240  0.00  0.00     0.006 C 
ENDBRANCH   8   9
BRANCH   8  11
ATOM     11  C   LIG d   1      -2.092  91.964 117.751  0.00  0.00     0.028 C 
ATOM     12  C   LIG d   1      -1.801  93.019 118.830  0.00  0.00     0.006 C 
ENDBRANCH   8  11
ENDBRANCH   7   8
ENDBRANCH   1   7
BRANCH   6  13
ATOM     13  N   LIG d   1      -5.527  93.466 120.166  0.00  0.00    -0.311 N 
ATOM     14  C   LIG d   1      -5.078  94.712 120.308  0.00  0.00     0.210 C 
ATOM     15  C   LIG d   1      -5.147  95.265 121.735  0.00  0.00     0.109 C 
ATOM     16  O   LIG d   1      -4.660  95.424 119.382  0.00  0.00    -0.276 OA
ATOM     17  H   LIG d   1      -5.878  92.975 120.964  0.00  0.00     0.149 HD
ENDBRANCH   6  13
BRANCH   5  18
ATOM     18  N   LIG d   1      -7.235  94.221 117.748  0.00  0.00     0.381 N 
ATOM     19  H   LIG d   1      -6.420  94.690 117.406  0.00  0.00    -0.090 HD
ATOM     20  H   LIG d   1      -7.567  94.716 118.557  0.00  0.00    -0.090 HD
ATOM     21  H   LIG d   1      -7.940  94.209 117.045  0.00  0.00    -0.090 HD
ENDBRANCH   5  18
BRANCH   3  22
ATOM     22  C   LIG d   1      -6.859  89.687 116.253  0.00  0.00     0.382 C 
ATOM     23  O   LIG d   1      -8.087  89.592 116.016  0.00  0.00    -0.241 OA
ATOM     24  O   LIG d   1      -6.075  88.849 115.768  0.00  0.00    -0.241 OA
ENDBRANCH   3  22
TORSDOF 7
ENDMDL
MODEL 2
REMARK VINA RESULT:      -5.3      2.163      4.491
REMARK  7 active torsions:
REMARK  status: ('A' for Active; 'I' for Inactive)
REMARK    1  A    between atoms: C_2  and  C_3 
REMARK    2  A    between atoms: C_3  and  O_6 
REMARK    3  A    between atoms: C_3  and  C_4 
REMARK    4  A    between atoms: C_7  and  O_6 
REMARK    5  A    between atoms: C_9  and  C_10 
REMARK    6  A    between atoms: N_15  and  C_14 
REMARK    7  A    between atoms: N_20  and  C_19 
REMARK       I    between atoms: C_22  and  N_20 
ROOT
ATOM      1  C   LIG d   1      -6.511  92.498 118.099  0.00  0.00     0.161 C 
ATOM      2  C   LIG d   1      -7.044  91.403 117.399  0.00  0.00     0.016 C 
ATOM      3  C   LIG d   1      -6.298  90.244 117.084  0.00  0.00     0.038 C 
ATOM      4  C   LIG d   1      -5.003  90.037 117.583  0.00  0.00     0.028 C 
ATOM      5  C   LIG d   1      -4.250  91.332 117.868  0.00  0.00    -0.047 C 
ATOM      6  C   LIG d   1      -5.134  92.244 118.748  0.00  0.00     0.091 C 
ENDROOT
BRANCH   1   7
ATOM      7  O   LIG d   1      -7.456  92.951 119.090  0.00  0.00    -0.368 OA
BRANCH   7   8
ATOM      8  C   LIG d   1      -8.392  93.969 118.659  0.00  0.00     0.119 C 
BRANCH   8   9
ATOM      9  C   LIG d   1      -7.573  95.216 118.269  0.00  0.00     0.028 C 
ATOM     10  C   LIG d   1      -7.352  96.168 119.457  0.00  0.00     0.006 C 
ENDBRANCH   8   9
BRANCH   8  11
ATOM     11  C   LIG d   1      -9.294  94.421 119.812  0.00  0.00     0.028 C 
ATOM     12  C   LIG d   1      -9.585  93.295 120.816  0.00  0.00     0.006 C 
ENDBRANCH   8  11
ENDBRANCH   7   8
ENDBRANCH   1   7
BRANCH   6  13
ATOM     13  N   LIG d   1      -4.507  93.567 119.003  0.00  0.00    -0.311 N 
ATOM     14  C   LIG d   1      -4.307  94.059 120.225  0.00  0.00     0.210 C 
ATOM     15  C   LIG d   1      -3.663  95.449 120.264  0.00  0.00     0.109 C 
ATOM     16  O   LIG d   1      -4.572  93.464 121.280  0.00  0.00    -0.276 OA
ATOM     17  H   LIG d   1      -4.232  94.103 118.204  0.00  0.00     0.149 HD
ENDBRANCH   6  13
BRANCH   5  18
ATOM     18  N   LIG d   1      -2.972  90.972 118.510  0.00  0.00     0.381 N 
ATOM     19  H   LIG d   1      -3.022  90.038 118.865  0.00  0.00    -0.090 HD
ATOM     20  H   LIG d   1      -2.809  91.594 119.282  0.00  0.00    -0.090 HD
ATOM     21  H   LIG d   1      -2.227  91.045 117.853  0.00  0.00    -0.090 HD
ENDBRANCH   5  18
BRANCH   3  22
ATOM     22  C   LIG d   1      -6.834  89.294 116.228  0.00  0.00     0.382 C 
ATOM     23  O   LIG d   1      -7.750  88.535 116.627  0.00  0.00    -0.241 OA
ATOM     24  O   LIG d   1      -6.382  89.156 115.076  0.00  0.00    -0.241 OA
ENDBRANCH   3  22
TORSDOF 7
ENDMDL
MODEL 3
REMARK VINA RESULT:      -4.9      1.588      4.913
REMARK  7 active torsions:
REMARK  status: ('A' for Active; 'I' for Inactive)
REMARK    1  A    between atoms: C_2  and  C_3 
REMARK    2  A    between atoms: C_3  and  O_6 
REMARK    3  A    between atoms: C_3  and  C_4 
REMARK    4  A    between atoms: C_7  and  O_6 
REMARK    5  A    between atoms: C_9  and  C_10 
REMARK    6  A    between atoms: N_15  and  C_14 
REMARK    7  A    between atoms: N_20  and  C_19 
REMARK       I    between atoms: C_22  and  N_20 
ROOT
ATOM      1  C   LIG d   1      -4.471  91.529 118.279  0.00  0.00     0.161 C 
ATOM      2  C   LIG d   1      -4.101  92.452 119.271  0.00  0.00     0.016 C 
ATOM      3  C   LIG d   1      -4.925  93.525 119.682  0.00  0.00     0.038 C 
ATOM      4  C   LIG d   1      -6.247  93.659 119.231  0.00  0.00     0.028 C 
ATOM      5  C   LIG d   1      -6.483  93.046 117.855  0.00  0.00    -0.047 C 
ATOM      6  C   LIG d   1      -5.953  91.594 117.855  0.00  0.00     0.091 C 
ENDROOT
BRANCH   1   7
ATOM      7  O   LIG d   1      -4.129  90.194 118.701  0.00  0.00    -0.368 OA
BRANCH   7   8
ATOM      8  C   LIG d   1      -2.720  89.937 118.921  0.00  0.00     0.119 C 
BRANCH   8   9
ATOM      9  C   LIG d   1      -2.247  88.975 117.813  0.00  0.00     0.028 C 
ATOM     10  C   LIG d   1      -0.912  89.413 117.187  0.00  0.00     0.006 C 
ENDBRANCH   8   9
BRANCH   8  11
ATOM     11  C   LIG d   1      -2.489  89.186 120.235  0.00  0.00     0.028 C 
ATOM     12  C   LIG d   1      -2.292  87.675 120.032  0.00  0.00     0.006 C 
ENDBRANCH   8  11
ENDBRANCH   7   8
ENDBRANCH   1   7
BRANCH   6  13
ATOM     13  N   LIG d   1      -6.068  90.949 116.521  0.00  0.00    -0.311 N 
ATOM     14  C   LIG d   1      -6.830  89.882 116.286  0.00  0.00     0.210 C 
ATOM     15  C   LIG d   1      -6.790  89.362 114.846  0.00  0.00     0.109 C 
ATOM     16  O   LIG d   1      -7.561  89.336 117.127  0.00  0.00    -0.276 OA
ATOM     17  H   LIG d   1      -5.533  91.346 115.774  0.00  0.00     0.149 HD
ENDBRANCH   6  13
BRANCH   5  18
ATOM     18  N   LIG d   1      -7.927  93.135 117.569  0.00  0.00     0.381 N 
ATOM     19  H   LIG d   1      -8.080  93.728 116.778  0.00  0.00    -0.090 HD
ATOM     20  H   LIG d   1      -8.391  93.542 118.362  0.00  0.00    -0.090 HD
ATOM     21  H   LIG d   1      -8.295  92.227 117.389  0.00  0.00    -0.090 HD
ENDBRANCH   5  18
BRANCH   3  22
ATOM     22  C   LIG d   1      -4.414  94.501 120.524  0.00  0.00     0.382 C 
ATOM     23  O   LIG d   1      -3.261  94.375 121.001  0.00  0.00    -0.241 OA
ATOM     24  O   LIG d   1      -5.108  95.483 120.847  0.00  0.00    -0.241 OA
ENDBRANCH   3  22
TORSDOF 7
ENDMDL
MODEL 4
REMARK VINA RESULT:      -4.8      1.946      5.034
REMARK  7 active torsions:
REMARK  status: ('A' for Active; 'I' for Inactive)
REMARK    1  A    between atoms: C_2  and  C_3 
REMARK    2  A    between atoms: C_3  and  O_6 
REMARK    3  A    between atoms: C_3  and  C_4 
REMARK    4  A    between atoms: C_7  and  O_6 
REMARK    5  A    between atoms: C_9  and  C_10 
REMARK    6  A    between atoms: N_15  and  C_14 
REMARK    7  A    between atoms: N_20  and  C_19 
REMARK       I    between atoms: C_22  and  N_20 
ROOT
ATOM      1  C   LIG d   1      -3.698  90.860 118.034  0.00  0.00     0.161 C 
ATOM      2  C   LIG d   1      -3.130  91.518 119.137  0.00  0.00     0.016 C 
ATOM      3  C   LIG d   1      -3.880  92.289 120.055  0.00  0.00     0.038 C 
ATOM      4  C   LIG d   1      -5.282  92.330 120.016  0.00  0.00     0.028 C 
ATOM      5  C   LIG d   1      -5.857  92.094 118.624  0.00  0.00    -0.047 C 
ATOM      6  C   LIG d   1      -5.240  90.802 118.039  0.00  0.00     0.091 C 
ENDROOT
BRANCH   1   7
ATOM      7  O   LIG d   1      -3.147  89.533 117.920  0.00  0.00    -0.368 OA
BRANCH   7   8
ATOM      8  C   LIG d   1      -1.992  89.249 118.746  0.00  0.00     0.119 C 
BRANCH   8   9
ATOM      9  C   LIG d   1      -0.861  88.772 117.814  0.00  0.00     0.028 C 
ATOM     10  C   LIG d   1      -0.276  89.916 116.969  0.00  0.00     0.006 C 
ENDBRANCH   8   9
BRANCH   8  11
ATOM     11  C   LIG d   1      -2.259  88.076 119.693  0.00  0.00     0.028 C 
ATOM     12  C   LIG d   1      -2.097  88.455 121.173  0.00  0.00     0.006 C 
ENDBRANCH   8  11
ENDBRANCH   7   8
ENDBRANCH   1   7
BRANCH   6  13
ATOM     13  N   LIG d   1      -5.685  90.542 116.645  0.00  0.00    -0.311 N 
ATOM     14  C   LIG d   1      -6.753  89.807 116.342  0.00  0.00     0.210 C 
ATOM     15  C   LIG d   1      -7.024  89.648 114.843  0.00  0.00     0.109 C 
ATOM     16  O   LIG d   1      -7.520  89.298 117.173  0.00  0.00    -0.276 OA
ATOM     17  H   LIG d   1      -5.137  90.944 115.909  0.00  0.00     0.149 HD
ENDBRANCH   6  13
BRANCH   5  18
ATOM     18  N   LIG d   1      -7.324  92.026 118.753  0.00  0.00     0.381 N 
ATOM     19  H   LIG d   1      -7.569  91.521 119.582  0.00  0.00    -0.090 HD
ATOM     20  H   LIG d   1      -7.698  91.533 117.962  0.00  0.00    -0.090 HD
ATOM     21  H   LIG d   1      -7.706  92.946 118.792  0.00  0.00    -0.090 HD
ENDBRANCH   5  18
BRANCH   3  22
ATOM     22  C   LIG d   1      -3.224  93.062 121.001  0.00  0.00     0.382 C 
ATOM     23  O   LIG d   1      -2.140  92.665 121.493  0.00  0.00    -0.241 OA
ATOM     24  O   LIG d   1      -3.725  94.130 121.401  0.00  0.00    -0.241 OA
ENDBRANCH   3  22
TORSDOF 7
ENDMDL
MODEL 5
REMARK VINA RESULT:      -4.8      2.534      4.507
REMARK  7 active torsions:
REMARK  status: ('A' for Active; 'I' for Inactive)
REMARK    1  A    between atoms: C_2  and  C_3 
REMARK    2  A    between atoms: C_3  and  O_6 
REMARK    3  A    between atoms: C_3  and  C_4 
REMARK    4  A    between atoms: C_7  and  O_6 
REMARK    5  A    between atoms: C_9  and  C_10 
REMARK    6  A    between atoms: N_15  and  C_14 
REMARK    7  A    between atoms: N_20  and  C_19 
REMARK       I    between atoms: C_22  and  N_20 
ROOT
ATOM      1  C   LIG d   1      -4.420  92.293 118.936  0.00  0.00     0.161 C 
ATOM      2  C   LIG d   1      -5.540  93.136 119.023  0.00  0.00     0.016 C 
ATOM      3  C   LIG d   1      -6.704  92.967 118.239  0.00  0.00     0.038 C 
ATOM      4  C   LIG d   1      -6.887  91.845 117.416  0.00  0.00     0.028 C 
ATOM      5  C   LIG d   1      -5.580  91.240 116.917  0.00  0.00    -0.047 C 
ATOM      6  C   LIG d   1      -4.645  90.999 118.125  0.00  0.00     0.091 C 
ENDROOT
BRANCH   1   7
ATOM      7  O   LIG d   1      -3.941  91.977 120.258  0.00  0.00    -0.368 OA
BRANCH   7   8
ATOM      8  C   LIG d   1      -2.692  92.599 120.649  0.00  0.00     0.119 C 
BRANCH   8   9
ATOM      9  C   LIG d   1      -2.210  93.456 119.462  0.00  0.00     0.028 C 
ATOM     10  C   LIG d   1      -2.134  94.952 119.811  0.00  0.00     0.006 C 
ENDBRANCH   8   9
BRANCH   8  11
ATOM     11  C   LIG d   1      -1.593  91.554 120.866  0.00  0.00     0.028 C 
ATOM     12  C   LIG d   1      -0.410  91.723 119.900  0.00  0.00     0.006 C 
ENDBRANCH   8  11
ENDBRANCH   7   8
ENDBRANCH   1   7
BRANCH   6  13
ATOM     13  N   LIG d   1      -3.312  90.486 117.716  0.00  0.00    -0.311 N 
ATOM     14  C   LIG d   1      -2.812  89.325 118.136  0.00  0.00     0.210 C 
ATOM     15  C   LIG d   1      -1.412  88.995 117.610  0.00  0.00     0.109 C 
ATOM     16  O   LIG d   1      -3.409  88.523 118.869  0.00  0.00    -0.276 OA
ATOM     17  H   LIG d   1      -2.772  91.060 117.097  0.00  0.00     0.149 HD
ENDBRANCH   6  13
BRANCH   5  18
ATOM     18  N   LIG d   1      -5.912  90.001 116.188  0.00  0.00     0.381 N 
ATOM     19  H   LIG d   1      -6.898  89.836 116.233  0.00  0.00    -0.090 HD
ATOM     20  H   LIG d   1      -5.442  89.229 116.627  0.00  0.00    -0.090 HD
ATOM     21  H   LIG d   1      -5.624  90.078 115.237  0.00  0.00    -0.090 HD
ENDBRANCH   5  18
BRANCH   3  22
ATOM     22  C   LIG d   1      -7.684  93.948 118.243  0.00  0.00     0.382 C 
ATOM     23  O   LIG d   1      -7.362  95.155 118.134  0.00  0.00    -0.241 OA
ATOM     24  O   LIG d   1      -8.882  93.644 118.399  0.00  0.00    -0.241 OA
ENDBRANCH   3  22
TORSDOF 7
ENDMDL
MODEL 6
REMARK VINA RESULT:      -4.8      2.115      3.620
REMARK  7 active torsions:
REMARK  status: ('A' for Active; 'I' for Inactive)
REMARK    1  A    between atoms: C_2  and  C_3 
REMARK    2  A    between atoms: C_3  and  O_6 
REMARK    3  A    between atoms: C_3  and  C_4 
REMARK    4  A    between atoms: C_7  and  O_6 
REMARK    5  A    between atoms: C_9  and  C_10 
REMARK    6  A    between atoms: N_15  and  C_14 
REMARK    7  A    between atoms: N_20  and  C_19 
REMARK       I    between atoms: C_22  and  N_20 
ROOT
ATOM      1  C   LIG d   1      -5.176  91.583 120.054  0.00  0.00     0.161 C 
ATOM      2  C   LIG d   1      -4.165  90.670 119.711  0.00  0.00     0.016 C 
ATOM      3  C   LIG d   1      -4.128  89.977 118.479  0.00  0.00     0.038 C 
ATOM      4  C   LIG d   1      -5.023  90.266 117.439  0.00  0.00     0.028 C 
ATOM      5  C   LIG d   1      -6.361  90.812 117.925  0.00  0.00    -0.047 C 
ATOM      6  C   LIG d   1      -6.100  91.993 118.888  0.00  0.00     0.091 C 
ENDROOT
BRANCH   1   7
ATOM      7  O   LIG d   1      -4.594  92.751 120.666  0.00  0.00    -0.368 OA
BRANCH   7   8
ATOM      8  C   LIG d   1      -4.223  93.824 119.767  0.00  0.00     0.119 C 
BRANCH   8   9
ATOM      9  C   LIG d   1      -2.691  93.971 119.828  0.00  0.00     0.028 C 
ATOM     10  C   LIG d   1      -2.000  93.460 118.552  0.00  0.00     0.006 C 
ENDBRANCH   8   9
BRANCH   8  11
ATOM     11  C   LIG d   1      -4.779  95.169 120.245  0.00  0.00     0.028 C 
ATOM     12  C   LIG d   1      -4.801  96.233 119.136  0.00  0.00     0.006 C 
ENDBRANCH   8  11
ENDBRANCH   7   8
ENDBRANCH   1   7
BRANCH   6  13
ATOM     13  N   LIG d   1      -7.354  92.533 119.476  0.00  0.00    -0.311 N 
ATOM     14  C   LIG d   1      -7.968  93.622 119.020  0.00  0.00     0.210 C 
ATOM     15  C   LIG d   1      -9.237  94.018 119.783  0.00  0.00     0.109 C 
ATOM     16  O   LIG d   1      -7.601  94.281 118.035  0.00  0.00    -0.276 OA
ATOM     17  H   LIG d   1      -7.738  92.042 120.260  0.00  0.00     0.149 HD
ENDBRANCH   6  13
BRANCH   5  18
ATOM     18  N   LIG d   1      -7.144  91.198 116.736  0.00  0.00     0.381 N 
ATOM     19  H   LIG d   1      -6.527  91.398 115.975  0.00  0.00    -0.090 HD
ATOM     20  H   LIG d   1      -7.666  92.031 116.947  0.00  0.00    -0.090 HD
ATOM     21  H   LIG d   1      -7.766  90.462 116.484  0.00  0.00    -0.090 HD
ENDBRANCH   5  18
BRANCH   3  22
ATOM     22  C   LIG d   1      -3.210  88.955 118.293  0.00  0.00     0.382 C 
ATOM     23  O   LIG d   1      -2.975  88.146 119.224  0.00  0.00    -0.241 OA
ATOM     24  O   LIG d   1      -2.580  88.857 117.223  0.00  0.00    -0.241 OA
ENDBRANCH   3  22
TORSDOF 7
ENDMDL
MODEL 7
REMARK VINA RESULT:      -4.8      1.640      2.294
REMARK  7 active torsions:
REMARK  status: ('A' for Active; 'I' for Inactive)
REMARK    1  A    between atoms: C_2  and  C_3 
REMARK    2  A    between atoms: C_3  and  O_6 
REMARK    3  A    between atoms: C_3  and  C_4 
REMARK    4  A    between atoms: C_7  and  O_6 
REMARK    5  A    between atoms: C_9  and  C_10 
REMARK    6  A    between atoms: N_15  and  C_14 
REMARK    7  A    between atoms: N_20  and  C_19 
REMARK       I    between atoms: C_22  and  N_20 
ROOT
ATOM      1  C   LIG d   1      -5.532  92.678 119.971  0.00  0.00     0.161 C 
ATOM      2  C   LIG d   1      -5.562  91.535 119.154  0.00  0.00     0.016 C 
ATOM      3  C   LIG d   1      -6.351  91.434 117.986  0.00  0.00     0.038 C 
ATOM      4  C   LIG d   1      -7.054  92.532 117.468  0.00  0.00     0.028 C 
ATOM      5  C   LIG d   1      -7.455  93.550 118.531  0.00  0.00    -0.047 C 
ATOM      6  C   LIG d   1      -6.207  93.925 119.362  0.00  0.00     0.091 C 
ENDROOT
BRANCH   1   7
ATOM      7  O   LIG d   1      -4.173  92.976 120.345  0.00  0.00    -0.368 OA
BRANCH   7   8
ATOM      8  C   LIG d   1      -3.373  93.662 119.351  0.00  0.00     0.119 C 
BRANCH   8   9
ATOM      9  C   LIG d   1      -2.129  92.795 119.078  0.00  0.00     0.028 C 
ATOM     10  C   LIG d   1      -2.220  92.044 117.739  0.00  0.00     0.006 C 
ENDBRANCH   8   9
BRANCH   8  11
ATOM     11  C   LIG d   1      -2.832  94.989 119.890  0.00  0.00     0.028 C 
ATOM     12  C   LIG d   1      -2.731  96.075 118.808  0.00  0.00     0.006 C 
ENDBRANCH   8  11
ENDBRANCH   7   8
ENDBRANCH   1   7
BRANCH   6  13
ATOM     13  N   LIG d   1      -6.527  94.853 120.478  0.00  0.00    -0.311 N 
ATOM     14  C   LIG d   1      -6.434  96.178 120.379  0.00  0.00     0.210 C 
ATOM     15  C   LIG d   1      -6.792  96.948 121.655  0.00  0.00     0.109 C 
ATOM     16  O   LIG d   1      -6.120  96.790 119.347  0.00  0.00    -0.276 OA
ATOM     17  H   LIG d   1      -6.819  94.442 121.343  0.00  0.00     0.149 HD
ENDBRANCH   6  13
BRANCH   5  18
ATOM     18  N   LIG d   1      -8.056  94.704 117.838  0.00  0.00     0.381 N 
ATOM     19  H   LIG d   1      -8.345  95.389 118.508  0.00  0.00    -0.090 HD
ATOM     20  H   LIG d   1      -8.868  94.394 117.334  0.00  0.00    -0.090 HD
ATOM     21  H   LIG d   1      -7.397  95.104 117.206  0.00  0.00    -0.090 HD
ENDBRANCH   5  18
BRANCH   3  22
ATOM     22  C   LIG d   1      -6.474  90.211 117.343  0.00  0.00     0.382 C 
ATOM     23  O   LIG d   1      -5.448  89.590 116.975  0.00  0.00    -0.241 OA
ATOM     24  O   LIG d   1      -7.600  89.742 117.088  0.00  0.00    -0.241 OA
ENDBRANCH   3  22
TORSDOF 7
ENDMDL
MODEL 8
REMARK VINA RESULT:      -4.6      1.491      2.019
REMARK  7 active torsions:
REMARK  status: ('A' for Active; 'I' for Inactive)
REMARK    1  A    between atoms: C_2  and  C_3 
REMARK    2  A    between atoms: C_3  and  O_6 
REMARK    3  A    between atoms: C_3  and  C_4 
REMARK    4  A    between atoms: C_7  and  O_6 
REMARK    5  A    between atoms: C_9  and  C_10 
REMARK    6  A    between atoms: N_15  and  C_14 
REMARK    7  A    between atoms: N_20  and  C_19 
REMARK       I    between atoms: C_22  and  N_20 
ROOT
ATOM      1  C   LIG d   1      -4.637  91.111 118.286  0.00  0.00     0.161 C 
ATOM      2  C   LIG d   1      -5.152  90.154 117.396  0.00  0.00     0.016 C 
ATOM      3  C   LIG d   1      -6.361  90.325 116.684  0.00  0.00     0.038 C 
ATOM      4  C   LIG d   1      -7.066  91.538 116.700  0.00  0.00     0.028 C 
ATOM      5  C   LIG d   1      -6.852  92.347 117.975  0.00  0.00    -0.047 C 
ATOM      6  C   LIG d   1      -5.334  92.487 118.231  0.00  0.00     0.091 C 
ENDROOT
BRANCH   1   7
ATOM      7  O   LIG d   1      -3.218  91.259 118.077  0.00  0.00    -0.368 OA
BRANCH   7   8
ATOM      8  C   LIG d   1      -2.369  90.912 119.198  0.00  0.00     0.119 C 
BRANCH   8   9
ATOM      9  C   LIG d   1      -1.113  90.221 118.631  0.00  0.00     0.028 C 
ATOM     10  C   LIG d   1      -0.829  90.625 117.174  0.00  0.00     0.006 C 
ENDBRANCH   8   9
BRANCH   8  11
ATOM     11  C   LIG d   1      -3.034  89.867 120.099  0.00  0.00     0.028 C 
ATOM     12  C   LIG d   1      -2.504  88.446 119.855  0.00  0.00     0.006 C 
ENDBRANCH   8  11
ENDBRANCH   7   8
ENDBRANCH   1   7
BRANCH   6  13
ATOM     13  N   LIG d   1      -5.037  93.192 119.505  0.00  0.00    -0.311 N 
ATOM     14  C   LIG d   1      -5.422  92.744 120.699  0.00  0.00     0.210 C 
ATOM     15  C   LIG d   1      -5.029  93.634 121.882  0.00  0.00     0.109 C 
ATOM     16  O   LIG d   1      -6.024  91.677 120.893  0.00  0.00    -0.276 OA
ATOM     17  H   LIG d   1      -4.525  94.050 119.443  0.00  0.00     0.149 HD
ENDBRANCH   6  13
BRANCH   5  18
ATOM     18  N   LIG d   1      -7.530  93.644 117.800  0.00  0.00     0.381 N 
ATOM     19  H   LIG d   1      -7.638  93.841 116.825  0.00  0.00    -0.090 HD
ATOM     20  H   LIG d   1      -6.962  94.366 118.206  0.00  0.00    -0.090 HD
ATOM     21  H   LIG d   1      -8.422  93.625 118.243  0.00  0.00    -0.090 HD
ENDBRANCH   5  18
BRANCH   3  22
ATOM     22  C   LIG d   1      -6.899  89.261 115.977  0.00  0.00     0.382 C 
ATOM     23  O   LIG d   1      -7.717  88.489 116.532  0.00  0.00    -0.241 OA
ATOM     24  O   LIG d   1      -6.543  89.037 114.804  0.00  0.00    -0.241 OA
ENDBRANCH   3  22
TORSDOF 7
ENDMDL
MODEL 9
REMARK VINA RESULT:      -4.1      2.539      5.597
REMARK  7 active torsions:
REMARK  status: ('A' for Active; 'I' for Inactive)
REMARK    1  A    between atoms: C_2  and  C_3 
REMARK    2  A    between atoms: C_3  and  O_6 
REMARK    3  A    between atoms: C_3  and  C_4 
REMARK    4  A    between atoms: C_7  and  O_6 
REMARK    5  A    between atoms: C_9  and  C_10 
REMARK    6  A    between atoms: N_15  and  C_14 
REMARK    7  A    between atoms: N_20  and  C_19 
REMARK       I    between atoms: C_22  and  N_20 
ROOT
ATOM      1  C   LIG d   1      -1.949  91.798 117.884  0.00  0.00     0.161 C 
ATOM      2  C   LIG d   1      -0.934  92.313 118.707  0.00  0.00     0.016 C 
ATOM      3  C   LIG d   1      -1.186  93.069 119.874  0.00  0.00     0.038 C 
ATOM      4  C   LIG d   1      -2.483  93.235 120.384  0.00  0.00     0.028 C 
ATOM      5  C   LIG d   1      -3.568  93.162 119.315  0.00  0.00    -0.047 C 
ATOM      6  C   LIG d   1      -3.369  91.874 118.485  0.00  0.00     0.091 C 
ENDROOT
BRANCH   1   7
ATOM      7  O   LIG d   1      -1.635  90.442 117.511  0.00  0.00    -0.368 OA
BRANCH   7   8
ATOM      8  C   LIG d   1      -0.463  89.864 118.136  0.00  0.00     0.119 C 
BRANCH   8   9
ATOM      9  C   LIG d   1       0.547  89.542 117.018  0.00  0.00     0.028 C 
ATOM     10  C   LIG d   1       1.850  90.347 117.154  0.00  0.00     0.006 C 
ENDBRANCH   8   9
BRANCH   8  11
ATOM     11  C   LIG d   1      -0.787  88.517 118.790  0.00  0.00     0.028 C 
ATOM     12  C   LIG d   1      -1.854  88.631 119.891  0.00  0.00     0.006 C 
ENDBRANCH   8  11
ENDBRANCH   7   8
ENDBRANCH   1   7
BRANCH   6  13
ATOM     13  N   LIG d   1      -4.338  91.767 117.363  0.00  0.00    -0.311 N 
ATOM     14  C   LIG d   1      -5.516  91.155 117.468  0.00  0.00     0.210 C 
ATOM     15  C   LIG d   1      -6.355  91.141 116.186  0.00  0.00     0.109 C 
ATOM     16  O   LIG d   1      -5.960  90.650 118.510  0.00  0.00    -0.276 OA
ATOM     17  H   LIG d   1      -4.072  92.177 116.489  0.00  0.00     0.149 HD
ENDBRANCH   6  13
BRANCH   5  18
ATOM     18  N   LIG d   1      -4.873  93.212 120.001  0.00  0.00     0.381 N 
ATOM     19  H   LIG d   1      -5.596  93.411 119.339  0.00  0.00    -0.090 HD
ATOM     20  H   LIG d   1      -4.855  93.952 120.681  0.00  0.00    -0.090 HD
ATOM     21  H   LIG d   1      -5.055  92.342 120.451  0.00  0.00    -0.090 HD
ENDBRANCH   5  18
BRANCH   3  22
ATOM     22  C   LIG d   1      -0.137  93.703 120.523  0.00  0.00     0.382 C 
ATOM     23  O   LIG d   1       1.040  93.309 120.344  0.00  0.00    -0.241 OA
ATOM     24  O   LIG d   1      -0.358  94.636 121.318  0.00  0.00    -0.241 OA
ENDBRANCH   3  22
TORSDOF 7
ENDMDL
