MODEL 1
REMARK VINA RESULT:      -5.2      0.000      0.000
REMARK  7 active torsions:
REMARK  status: ('A' for Active; 'I' for Inactive)
REMARK    1  A    between atoms: C_2  and  C_3 
REMARK    2  A    between atoms: C_3  and  O_6 
REMARK    3  A    between atoms: C_3  and  C_4 
REMARK    4  A    between atoms: C_7  and  O_6 
REMARK    5  A    between atoms: C_9  and  C_10 
REMARK    6  A    between atoms: N_15  and  C_14 
REMARK    7  A    between atoms: N_20  and  C_19 
REMARK       I    between atoms: C_22  and  N_20 
ROOT
ATOM      1  C   LIG d   1      -3.838  90.773 117.794  0.00  0.00     0.161 C 
ATOM      2  C   LIG d   1      -4.531  90.052 116.808  0.00  0.00     0.016 C 
ATOM      3  C   LIG d   1      -5.796  90.436 116.308  0.00  0.00     0.038 C 
ATOM      4  C   LIG d   1      -6.391  91.658 116.654  0.00  0.00     0.028 C 
ATOM      5  C   LIG d   1      -5.963  92.173 118.024  0.00  0.00    -0.047 C 
ATOM      6  C   LIG d   1      -4.420  92.169 118.103  0.00  0.00     0.091 C 
ENDROOT
BRANCH   1   7
ATOM      7  O   LIG d   1      -2.446  90.879 117.435  0.00  0.00    -0.368 OA
BRANCH   7   8
ATOM      8  C   LIG d   1      -1.521  90.104 118.236  0.00  0.00     0.119 C 
BRANCH   8   9
ATOM      9  C   LIG d   1      -0.364  91.038 118.642  0.00  0.00     0.028 C 
ATOM     10  C   LIG d   1      -0.012  92.048 117.537  0.00  0.00     0.006 C 
ENDBRANCH   8   9
BRANCH   8  11
ATOM     11  C   LIG d   1      -0.871  88.987 117.413  0.00  0.00     0.028 C 
ATOM     12  C   LIG d   1      -1.676  87.679 117.443  0.00  0.00     0.006 C 
ENDBRANCH   8  11
ENDBRANCH   7   8
ENDBRANCH   1   7
BRANCH   6  13
ATOM     13  N   LIG d   1      -3.919  92.578 119.441  0.00  0.00    -0.311 N 
ATOM     14  C   LIG d   1      -2.996  93.521 119.621  0.00  0.00     0.210 C 
ATOM     15  C   LIG d   1      -2.607  93.775 121.081  0.00  0.00     0.109 C 
ATOM     16  O   LIG d   1      -2.484  94.193 118.713  0.00  0.00    -0.276 OA
ATOM     17  H   LIG d   1      -4.303  92.106 120.236  0.00  0.00     0.149 HD
ENDBRANCH   6  13
BRANCH   5  18
ATOM     18  N   LIG d   1      -6.548  93.516 118.198  0.00  0.00     0.381 N 
ATOM     19  H   LIG d   1      -6.930  93.834 117.330  0.00  0.00    -0.090 HD
ATOM     20  H   LIG d   1      -5.821  94.153 118.475  0.00  0.00    -0.090 HD
ATOM     21  H   LIG d   1      -7.260  93.491 118.894  0.00  0.00    -0.090 HD
ENDBRANCH   5  18
BRANCH   3  22
ATOM     22  C   LIG d   1      -6.499  89.572 115.481  0.00  0.00     0.382 C 
ATOM     23  O   LIG d   1      -7.644  89.181 115.812  0.00  0.00    -0.241 OA
ATOM     24  O   LIG d   1      -5.985  89.145 114.430  0.00  0.00    -0.241 OA
ENDBRANCH   3  22
TORSDOF 7
ENDMDL
MODEL 2
REMARK VINA RESULT:      -5.2      2.691      6.410
REMARK  7 active torsions:
REMARK  status: ('A' for Active; 'I' for Inactive)
REMARK    1  A    between atoms: C_2  and  C_3 
REMARK    2  A    between atoms: C_3  and  O_6 
REMARK    3  A    between atoms: C_3  and  C_4 
REMARK    4  A    between atoms: C_7  and  O_6 
REMARK    5  A    between atoms: C_9  and  C_10 
REMARK    6  A    between atoms: N_15  and  C_14 
REMARK    7  A    between atoms: N_20  and  C_19 
REMARK       I    between atoms: C_22  and  N_20 
ROOT
ATOM      1  C   LIG d   1      -5.831  91.800 118.219  0.00  0.00     0.161 C 
ATOM      2  C   LIG d   1      -4.559  92.201 118.659  0.00  0.00     0.016 C 
ATOM      3  C   LIG d   1      -3.354  91.666 118.148  0.00  0.00     0.038 C 
ATOM      4  C   LIG d   1      -3.337  90.797 117.047  0.00  0.00     0.028 C 
ATOM      5  C   LIG d   1      -4.616  89.979 116.902  0.00  0.00    -0.047 C 
ATOM      6  C   LIG d   1      -5.830  90.935 116.941  0.00  0.00     0.091 C 
ENDROOT
BRANCH   1   7
ATOM      7  O   LIG d   1      -6.673  92.956 118.040  0.00  0.00    -0.368 OA
BRANCH   7   8
ATOM      8  C   LIG d   1      -6.595  93.968 119.074  0.00  0.00     0.119 C 
BRANCH   8   9
ATOM      9  C   LIG d   1      -7.532  93.534 120.218  0.00  0.00     0.028 C 
ATOM     10  C   LIG d   1      -6.764  93.158 121.496  0.00  0.00     0.006 C 
ENDBRANCH   8   9
BRANCH   8  11
ATOM     11  C   LIG d   1      -7.147  95.310 118.584  0.00  0.00     0.028 C 
ATOM     12  C   LIG d   1      -8.313  95.824 119.443  0.00  0.00     0.006 C 
ENDBRANCH   8  11
ENDBRANCH   7   8
ENDBRANCH   1   7
BRANCH   6  13
ATOM     13  N   LIG d   1      -7.125  90.208 116.890  0.00  0.00    -0.311 N 
ATOM     14  C   LIG d   1      -7.736  89.879 115.753  0.00  0.00     0.210 C 
ATOM     15  C   LIG d   1      -9.073  89.150 115.924  0.00  0.00     0.109 C 
ATOM     16  O   LIG d   1      -7.283  90.093 114.618  0.00  0.00    -0.276 OA
ATOM     17  H   LIG d   1      -7.549  89.967 117.764  0.00  0.00     0.149 HD
ENDBRANCH   6  13
BRANCH   5  18
ATOM     18  N   LIG d   1      -4.518  89.220 115.640  0.00  0.00     0.381 N 
ATOM     19  H   LIG d   1      -3.583  88.887 115.517  0.00  0.00    -0.090 HD
ATOM     20  H   LIG d   1      -4.738  89.833 114.875  0.00  0.00    -0.090 HD
ATOM     21  H   LIG d   1      -5.153  88.453 115.654  0.00  0.00    -0.090 HD
ENDBRANCH   5  18
BRANCH   3  22
ATOM     22  C   LIG d   1      -2.150  91.970 118.766  0.00  0.00     0.382 C 
ATOM     23  O   LIG d   1      -1.490  92.970 118.396  0.00  0.00    -0.241 OA
ATOM     24  O   LIG d   1      -1.695  91.231 119.660  0.00  0.00    -0.241 OA
ENDBRANCH   3  22
TORSDOF 7
ENDMDL
MODEL 3
REMARK VINA RESULT:      -5.1      2.387      4.936
REMARK  7 active torsions:
REMARK  status: ('A' for Active; 'I' for Inactive)
REMARK    1  A    between atoms: C_2  and  C_3 
REMARK    2  A    between atoms: C_3  and  O_6 
REMARK    3  A    between atoms: C_3  and  C_4 
REMARK    4  A    between atoms: C_7  and  O_6 
REMARK    5  A    between atoms: C_9  and  C_10 
REMARK    6  A    between atoms: N_15  and  C_14 
REMARK    7  A    between atoms: N_20  and  C_19 
REMARK       I    between atoms: C_22  and  N_20 
ROOT
ATOM      1  C   LIG d   1      -5.941  92.581 118.127  0.00  0.00     0.161 C 
ATOM      2  C   LIG d   1      -6.482  91.528 117.371  0.00  0.00     0.016 C 
ATOM      3  C   LIG d   1      -5.697  90.509 116.783  0.00  0.00     0.038 C 
ATOM      4  C   LIG d   1      -4.323  90.389 117.041  0.00  0.00     0.028 C 
ATOM      5  C   LIG d   1      -3.654  91.716 117.385  0.00  0.00    -0.047 C 
ATOM      6  C   LIG d   1      -4.457  92.406 118.511  0.00  0.00     0.091 C 
ENDROOT
BRANCH   1   7
ATOM      7  O   LIG d   1      -6.742  92.797 119.305  0.00  0.00    -0.368 OA
BRANCH   7   8
ATOM      8  C   LIG d   1      -6.852  94.169 119.758  0.00  0.00     0.119 C 
BRANCH   8   9
ATOM      9  C   LIG d   1      -7.990  94.225 120.796  0.00  0.00     0.028 C 
ATOM     10  C   LIG d   1      -8.275  92.852 121.428  0.00  0.00     0.006 C 
ENDBRANCH   8   9
BRANCH   8  11
ATOM     11  C   LIG d   1      -7.293  95.097 118.623  0.00  0.00     0.028 C 
ATOM     12  C   LIG d   1      -8.609  95.830 118.929  0.00  0.00     0.006 C 
ENDBRANCH   8  11
ENDBRANCH   7   8
ENDBRANCH   1   7
BRANCH   6  13
ATOM     13  N   LIG d   1      -3.919  93.749 118.851  0.00  0.00    -0.311 N 
ATOM     14  C   LIG d   1      -3.056  93.964 119.843  0.00  0.00     0.210 C 
ATOM     15  C   LIG d   1      -2.643  95.426 120.035  0.00  0.00     0.109 C 
ATOM     16  O   LIG d   1      -2.569  93.078 120.561  0.00  0.00    -0.276 OA
ATOM     17  H   LIG d   1      -4.237  94.521 118.298  0.00  0.00     0.149 HD
ENDBRANCH   6  13
BRANCH   5  18
ATOM     18  N   LIG d   1      -2.258  91.426 117.764  0.00  0.00     0.381 N 
ATOM     19  H   LIG d   1      -1.671  92.195 117.510  0.00  0.00    -0.090 HD
ATOM     20  H   LIG d   1      -1.948  90.612 117.263  0.00  0.00    -0.090 HD
ATOM     21  H   LIG d   1      -2.198  91.263 118.746  0.00  0.00    -0.090 HD
ENDBRANCH   5  18
BRANCH   3  22
ATOM     22  C   LIG d   1      -6.280  89.618 115.895  0.00  0.00     0.382 C 
ATOM     23  O   LIG d   1      -7.423  89.157 116.130  0.00  0.00    -0.241 OA
ATOM     24  O   LIG d   1      -5.660  89.235 114.885  0.00  0.00    -0.241 OA
ENDBRANCH   3  22
TORSDOF 7
ENDMDL
MODEL 4
REMARK VINA RESULT:      -5.0      2.185      4.450
REMARK  7 active torsions:
REMARK  status: ('A' for Active; 'I' for Inactive)
REMARK    1  A    between atoms: C_2  and  C_3 
REMARK    2  A    between atoms: C_3  and  O_6 
REMARK    3  A    between atoms: C_3  and  C_4 
REMARK    4  A    between atoms: C_7  and  O_6 
REMARK    5  A    between atoms: C_9  and  C_10 
REMARK    6  A    between atoms: N_15  and  C_14 
REMARK    7  A    between atoms: N_20  and  C_19 
REMARK       I    between atoms: C_22  and  N_20 
ROOT
ATOM      1  C   LIG d   1      -5.473  92.254 117.815  0.00  0.00     0.161 C 
ATOM      2  C   LIG d   1      -6.559  91.580 117.232  0.00  0.00     0.016 C 
ATOM      3  C   LIG d   1      -6.428  90.370 116.513  0.00  0.00     0.038 C 
ATOM      4  C   LIG d   1      -5.215  89.668 116.457  0.00  0.00     0.028 C 
ATOM      5  C   LIG d   1      -3.990  90.564 116.602  0.00  0.00    -0.047 C 
ATOM      6  C   LIG d   1      -4.159  91.446 117.859  0.00  0.00     0.091 C 
ENDROOT
BRANCH   1   7
ATOM      7  O   LIG d   1      -5.830  92.704 119.137  0.00  0.00    -0.368 OA
BRANCH   7   8
ATOM      8  C   LIG d   1      -5.830  94.138 119.343  0.00  0.00     0.119 C 
BRANCH   8   9
ATOM      9  C   LIG d   1      -4.863  94.439 120.505  0.00  0.00     0.028 C 
ATOM     10  C   LIG d   1      -3.771  95.449 120.113  0.00  0.00     0.006 C 
ENDBRANCH   8   9
BRANCH   8  11
ATOM     11  C   LIG d   1      -7.200  94.632 119.818  0.00  0.00     0.028 C 
ATOM     12  C   LIG d   1      -7.846  95.628 118.842  0.00  0.00     0.006 C 
ENDBRANCH   8  11
ENDBRANCH   7   8
ENDBRANCH   1   7
BRANCH   6  13
ATOM     13  N   LIG d   1      -3.042  92.413 118.028  0.00  0.00    -0.311 N 
ATOM     14  C   LIG d   1      -1.974  92.173 118.786  0.00  0.00     0.210 C 
ATOM     15  C   LIG d   1      -0.950  93.311 118.838  0.00  0.00     0.109 C 
ATOM     16  O   LIG d   1      -1.762  91.114 119.395  0.00  0.00    -0.276 OA
ATOM     17  H   LIG d   1      -3.118  93.286 117.544  0.00  0.00     0.149 HD
ENDBRANCH   6  13
BRANCH   5  18
ATOM     18  N   LIG d   1      -2.803  89.689 116.664  0.00  0.00     0.381 N 
ATOM     19  H   LIG d   1      -2.371  89.640 115.764  0.00  0.00    -0.090 HD
ATOM     20  H   LIG d   1      -3.095  88.764 116.925  0.00  0.00    -0.090 HD
ATOM     21  H   LIG d   1      -2.155  90.042 117.333  0.00  0.00    -0.090 HD
ENDBRANCH   5  18
BRANCH   3  22
ATOM     22  C   LIG d   1      -7.512  89.870 115.806  0.00  0.00     0.382 C 
ATOM     23  O   LIG d   1      -7.974  90.511 114.832  0.00  0.00    -0.241 OA
ATOM     24  O   LIG d   1      -8.060  88.808 116.158  0.00  0.00    -0.241 OA
ENDBRANCH   3  22
TORSDOF 7
ENDMDL
MODEL 5
REMARK VINA RESULT:      -4.7      1.552      4.697
REMARK  7 active torsions:
REMARK  status: ('A' for Active; 'I' for Inactive)
REMARK    1  A    between atoms: C_2  and  C_3 
REMARK    2  A    between atoms: C_3  and  O_6 
REMARK    3  A    between atoms: C_3  and  C_4 
REMARK    4  A    between atoms: C_7  and  O_6 
REMARK    5  A    between atoms: C_9  and  C_10 
REMARK    6  A    between atoms: N_15  and  C_14 
REMARK    7  A    between atoms: N_20  and  C_19 
REMARK       I    between atoms: C_22  and  N_20 
ROOT
ATOM      1  C   LIG d   1      -3.506  91.759 117.594  0.00  0.00     0.161 C 
ATOM      2  C   LIG d   1      -2.806  92.227 118.718  0.00  0.00     0.016 C 
ATOM      3  C   LIG d   1      -3.441  92.722 119.880  0.00  0.00     0.038 C 
ATOM      4  C   LIG d   1      -4.830  92.642 120.057  0.00  0.00     0.028 C 
ATOM      5  C   LIG d   1      -5.609  92.643 118.746  0.00  0.00    -0.047 C 
ATOM      6  C   LIG d   1      -5.020  91.560 117.812  0.00  0.00     0.091 C 
ENDROOT
BRANCH   1   7
ATOM      7  O   LIG d   1      -2.904  90.539 117.117  0.00  0.00    -0.368 OA
BRANCH   7   8
ATOM      8  C   LIG d   1      -1.888  89.954 117.967  0.00  0.00     0.119 C 
BRANCH   8   9
ATOM      9  C   LIG d   1      -0.622  89.759 117.110  0.00  0.00     0.028 C 
ATOM     10  C   LIG d   1       0.370  90.926 117.255  0.00  0.00     0.006 C 
ENDBRANCH   8   9
BRANCH   8  11
ATOM     11  C   LIG d   1      -2.287  88.548 118.426  0.00  0.00     0.028 C 
ATOM     12  C   LIG d   1      -2.120  87.492 117.323  0.00  0.00     0.006 C 
ENDBRANCH   8  11
ENDBRANCH   7   8
ENDBRANCH   1   7
BRANCH   6  13
ATOM     13  N   LIG d   1      -5.670  91.551 116.476  0.00  0.00    -0.311 N 
ATOM     14  C   LIG d   1      -6.028  90.435 115.843  0.00  0.00     0.210 C 
ATOM     15  C   LIG d   1      -6.665  90.649 114.466  0.00  0.00     0.109 C 
ATOM     16  O   LIG d   1      -5.909  89.290 116.305  0.00  0.00    -0.276 OA
ATOM     17  H   LIG d   1      -5.833  92.438 116.042  0.00  0.00     0.149 HD
ENDBRANCH   6  13
BRANCH   5  18
ATOM     18  N   LIG d   1      -7.029  92.416 119.071  0.00  0.00     0.381 N 
ATOM     19  H   LIG d   1      -7.504  92.042 118.274  0.00  0.00    -0.090 HD
ATOM     20  H   LIG d   1      -7.453  93.296 119.307  0.00  0.00    -0.090 HD
ATOM     21  H   LIG d   1      -7.107  91.785 119.839  0.00  0.00    -0.090 HD
ENDBRANCH   5  18
BRANCH   3  22
ATOM     22  C   LIG d   1      -2.686  93.342 120.865  0.00  0.00     0.382 C 
ATOM     23  O   LIG d   1      -1.991  92.653 121.650  0.00  0.00    -0.241 OA
ATOM     24  O   LIG d   1      -2.726  94.579 121.006  0.00  0.00    -0.241 OA
ENDBRANCH   3  22
TORSDOF 7
ENDMDL
MODEL 6
REMARK VINA RESULT:      -4.6      2.319      4.466
REMARK  7 active torsions:
REMARK  status: ('A' for Active; 'I' for Inactive)
REMARK    1  A    between atoms: C_2  and  C_3 
REMARK    2  A    between atoms: C_3  and  O_6 
REMARK    3  A    between atoms: C_3  and  C_4 
REMARK    4  A    between atoms: C_7  and  O_6 
REMARK    5  A    between atoms: C_9  and  C_10 
REMARK    6  A    between atoms: N_15  and  C_14 
REMARK    7  A    between atoms: N_20  and  C_19 
REMARK       I    between atoms: C_22  and  N_20 
ROOT
ATOM      1  C   LIG d   1      -4.395  92.364 119.812  0.00  0.00     0.161 C 
ATOM      2  C   LIG d   1      -3.578  91.424 119.162  0.00  0.00     0.016 C 
ATOM      3  C   LIG d   1      -3.833  90.941 117.858  0.00  0.00     0.038 C 
ATOM      4  C   LIG d   1      -4.845  91.482 117.052  0.00  0.00     0.028 C 
ATOM      5  C   LIG d   1      -6.004  92.071 117.848  0.00  0.00    -0.047 C 
ATOM      6  C   LIG d   1      -5.440  93.048 118.906  0.00  0.00     0.091 C 
ENDROOT
BRANCH   1   7
ATOM      7  O   LIG d   1      -3.576  93.353 120.467  0.00  0.00    -0.368 OA
BRANCH   7   8
ATOM      8  C   LIG d   1      -3.300  94.556 119.709  0.00  0.00     0.119 C 
BRANCH   8   9
ATOM      9  C   LIG d   1      -1.798  94.552 119.365  0.00  0.00     0.028 C 
ATOM     10  C   LIG d   1      -1.536  94.244 117.881  0.00  0.00     0.006 C 
ENDBRANCH   8   9
BRANCH   8  11
ATOM     11  C   LIG d   1      -3.518  95.812 120.557  0.00  0.00     0.028 C 
ATOM     12  C   LIG d   1      -3.952  97.027 119.722  0.00  0.00     0.006 C 
ENDBRANCH   8  11
ENDBRANCH   7   8
ENDBRANCH   1   7
BRANCH   6  13
ATOM     13  N   LIG d   1      -6.501  93.606 119.785  0.00  0.00    -0.311 N 
ATOM     14  C   LIG d   1      -7.118  94.761 119.546  0.00  0.00     0.210 C 
ATOM     15  C   LIG d   1      -8.167  95.162 120.589  0.00  0.00     0.109 C 
ATOM     16  O   LIG d   1      -6.921  95.476 118.552  0.00  0.00    -0.276 OA
ATOM     17  H   LIG d   1      -6.746  93.074 120.597  0.00  0.00     0.149 HD
ENDBRANCH   6  13
BRANCH   5  18
ATOM     18  N   LIG d   1      -6.918  92.721 116.890  0.00  0.00     0.381 N 
ATOM     19  H   LIG d   1      -7.391  93.482 117.336  0.00  0.00    -0.090 HD
ATOM     20  H   LIG d   1      -7.607  92.052 116.593  0.00  0.00    -0.090 HD
ATOM     21  H   LIG d   1      -6.407  93.055 116.103  0.00  0.00    -0.090 HD
ENDBRANCH   5  18
BRANCH   3  22
ATOM     22  C   LIG d   1      -3.094  89.876 117.363  0.00  0.00     0.382 C 
ATOM     23  O   LIG d   1      -1.859  90.000 117.183  0.00  0.00    -0.241 OA
ATOM     24  O   LIG d   1      -3.655  88.808 117.053  0.00  0.00    -0.241 OA
ENDBRANCH   3  22
TORSDOF 7
ENDMDL
MODEL 7
REMARK VINA RESULT:      -4.6      1.774      2.579
REMARK  7 active torsions:
REMARK  status: ('A' for Active; 'I' for Inactive)
REMARK    1  A    between atoms: C_2  and  C_3 
REMARK    2  A    between atoms: C_3  and  O_6 
REMARK    3  A    between atoms: C_3  and  C_4 
REMARK    4  A    between atoms: C_7  and  O_6 
REMARK    5  A    between atoms: C_9  and  C_10 
REMARK    6  A    between atoms: N_15  and  C_14 
REMARK    7  A    between atoms: N_20  and  C_19 
REMARK       I    between atoms: C_22  and  N_20 
ROOT
ATOM      1  C   LIG d   1      -2.466  90.037 117.718  0.00  0.00     0.161 C 
ATOM      2  C   LIG d   1      -3.638  89.673 117.035  0.00  0.00     0.016 C 
ATOM      3  C   LIG d   1      -4.759  90.524 116.904  0.00  0.00     0.038 C 
ATOM      4  C   LIG d   1      -4.726  91.863 117.321  0.00  0.00     0.028 C 
ATOM      5  C   LIG d   1      -3.748  92.118 118.463  0.00  0.00    -0.047 C 
ATOM      6  C   LIG d   1      -2.369  91.534 118.083  0.00  0.00     0.091 C 
ENDROOT
BRANCH   1   7
ATOM      7  O   LIG d   1      -1.310  89.632 116.957  0.00  0.00    -0.368 OA
BRANCH   7   8
ATOM      8  C   LIG d   1      -0.653  88.418 117.396  0.00  0.00     0.119 C 
BRANCH   8   9
ATOM      9  C   LIG d   1      -1.087  88.156 118.851  0.00  0.00     0.028 C 
ATOM     10  C   LIG d   1       0.079  88.287 119.844  0.00  0.00     0.006 C 
ENDBRANCH   8   9
BRANCH   8  11
ATOM     11  C   LIG d   1       0.867  88.597 117.452  0.00  0.00     0.028 C 
ATOM     12  C   LIG d   1       1.608  87.729 116.422  0.00  0.00     0.006 C 
ENDBRANCH   8  11
ENDBRANCH   7   8
ENDBRANCH   1   7
BRANCH   6  13
ATOM     13  N   LIG d   1      -1.375  91.665 119.180  0.00  0.00    -0.311 N 
ATOM     14  C   LIG d   1      -0.120  92.069 118.989  0.00  0.00     0.210 C 
ATOM     15  C   LIG d   1       0.744  92.116 120.252  0.00  0.00     0.109 C 
ATOM     16  O   LIG d   1       0.350  92.423 117.897  0.00  0.00    -0.276 OA
ATOM     17  H   LIG d   1      -1.681  91.428 120.103  0.00  0.00     0.149 HD
ENDBRANCH   6  13
BRANCH   5  18
ATOM     18  N   LIG d   1      -3.714  93.573 118.704  0.00  0.00     0.381 N 
ATOM     19  H   LIG d   1      -4.153  94.052 117.944  0.00  0.00    -0.090 HD
ATOM     20  H   LIG d   1      -2.756  93.871 118.753  0.00  0.00    -0.090 HD
ATOM     21  H   LIG d   1      -4.181  93.788 119.557  0.00  0.00    -0.090 HD
ENDBRANCH   5  18
BRANCH   3  22
ATOM     22  C   LIG d   1      -5.944  90.024 116.386  0.00  0.00     0.382 C 
ATOM     23  O   LIG d   1      -5.974  88.875 115.885  0.00  0.00    -0.241 OA
ATOM     24  O   LIG d   1      -6.974  90.726 116.374  0.00  0.00    -0.241 OA
ENDBRANCH   3  22
TORSDOF 7
ENDMDL
MODEL 8
REMARK VINA RESULT:      -4.5      2.988      6.187
REMARK  7 active torsions:
REMARK  status: ('A' for Active; 'I' for Inactive)
REMARK    1  A    between atoms: C_2  and  C_3 
REMARK    2  A    between atoms: C_3  and  O_6 
REMARK    3  A    between atoms: C_3  and  C_4 
REMARK    4  A    between atoms: C_7  and  O_6 
REMARK    5  A    between atoms: C_9  and  C_10 
REMARK    6  A    between atoms: N_15  and  C_14 
REMARK    7  A    between atoms: N_20  and  C_19 
REMARK       I    between atoms: C_22  and  N_20 
ROOT
ATOM      1  C   LIG d   1       0.222  90.757 117.106  0.00  0.00     0.161 C 
ATOM      2  C   LIG d   1       1.607  90.922 117.270  0.00  0.00     0.016 C 
ATOM      3  C   LIG d   1       2.182  91.976 118.017  0.00  0.00     0.038 C 
ATOM      4  C   LIG d   1       1.401  92.854 118.782  0.00  0.00     0.028 C 
ATOM      5  C   LIG d   1      -0.014  93.033 118.242  0.00  0.00    -0.047 C 
ATOM      6  C   LIG d   1      -0.648  91.640 118.024  0.00  0.00     0.091 C 
ENDROOT
BRANCH   1   7
ATOM      7  O   LIG d   1      -0.127  89.368 117.270  0.00  0.00    -0.368 OA
BRANCH   7   8
ATOM      8  C   LIG d   1      -0.246  88.897 118.635  0.00  0.00     0.119 C 
BRANCH   8   9
ATOM      9  C   LIG d   1       0.747  87.732 118.811  0.00  0.00     0.028 C 
ATOM     10  C   LIG d   1       1.192  87.132 117.467  0.00  0.00     0.006 C 
ENDBRANCH   8   9
BRANCH   8  11
ATOM     11  C   LIG d   1      -1.629  88.295 118.898  0.00  0.00     0.028 C 
ATOM     12  C   LIG d   1      -2.436  88.070 117.610  0.00  0.00     0.006 C 
ENDBRANCH   8  11
ENDBRANCH   7   8
ENDBRANCH   1   7
BRANCH   6  13
ATOM     13  N   LIG d   1      -2.003  91.722 117.418  0.00  0.00    -0.311 N 
ATOM     14  C   LIG d   1      -3.128  91.679 118.129  0.00  0.00     0.210 C 
ATOM     15  C   LIG d   1      -4.417  91.759 117.305  0.00  0.00     0.109 C 
ATOM     16  O   LIG d   1      -3.181  91.614 119.367  0.00  0.00    -0.276 OA
ATOM     17  H   LIG d   1      -2.052  91.808 116.422  0.00  0.00     0.149 HD
ENDBRANCH   6  13
BRANCH   5  18
ATOM     18  N   LIG d   1      -0.759  93.862 119.209  0.00  0.00     0.381 N 
ATOM     19  H   LIG d   1      -1.742  93.742 119.071  0.00  0.00    -0.090 HD
ATOM     20  H   LIG d   1      -0.534  94.829 119.049  0.00  0.00    -0.090 HD
ATOM     21  H   LIG d   1      -0.512  93.606 120.139  0.00  0.00    -0.090 HD
ENDBRANCH   5  18
BRANCH   3  22
ATOM     22  C   LIG d   1       3.552  92.182 117.972  0.00  0.00     0.382 C 
ATOM     23  O   LIG d   1       4.193  92.376 119.034  0.00  0.00    -0.241 OA
ATOM     24  O   LIG d   1       4.150  92.222 116.880  0.00  0.00    -0.241 OA
ENDBRANCH   3  22
TORSDOF 7
ENDMDL
MODEL 9
REMARK VINA RESULT:      -4.5      2.305      4.242
REMARK  7 active torsions:
REMARK  status: ('A' for Active; 'I' for Inactive)
REMARK    1  A    between atoms: C_2  and  C_3 
REMARK    2  A    between atoms: C_3  and  O_6 
REMARK    3  A    between atoms: C_3  and  C_4 
REMARK    4  A    between atoms: C_7  and  O_6 
REMARK    5  A    between atoms: C_9  and  C_10 
REMARK    6  A    between atoms: N_15  and  C_14 
REMARK    7  A    between atoms: N_20  and  C_19 
REMARK       I    between atoms: C_22  and  N_20 
ROOT
ATOM      1  C   LIG d   1      -3.154  92.019 118.164  0.00  0.00     0.161 C 
ATOM      2  C   LIG d   1      -4.362  92.235 117.479  0.00  0.00     0.016 C 
ATOM      3  C   LIG d   1      -5.011  91.239 116.713  0.00  0.00     0.038 C 
ATOM      4  C   LIG d   1      -4.571  89.907 116.704  0.00  0.00     0.028 C 
ATOM      5  C   LIG d   1      -3.077  89.760 116.971  0.00  0.00    -0.047 C 
ATOM      6  C   LIG d   1      -2.718  90.542 118.256  0.00  0.00     0.091 C 
ENDROOT
BRANCH   1   7
ATOM      7  O   LIG d   1      -3.228  92.603 119.479  0.00  0.00    -0.368 OA
BRANCH   7   8
ATOM      8  C   LIG d   1      -2.404  93.773 119.704  0.00  0.00     0.119 C 
BRANCH   8   9
ATOM      9  C   LIG d   1      -3.349  94.981 119.861  0.00  0.00     0.028 C 
ATOM     10  C   LIG d   1      -4.721  94.582 120.431  0.00  0.00     0.006 C 
ENDBRANCH   8   9
BRANCH   8  11
ATOM     11  C   LIG d   1      -1.541  94.091 118.480  0.00  0.00     0.028 C 
ATOM     12  C   LIG d   1      -0.035  94.006 118.775  0.00  0.00     0.006 C 
ENDBRANCH   8  11
ENDBRANCH   7   8
ENDBRANCH   1   7
BRANCH   6  13
ATOM     13  N   LIG d   1      -1.260  90.521 118.544  0.00  0.00    -0.311 N 
ATOM     14  C   LIG d   1      -0.687  89.636 119.358  0.00  0.00     0.210 C 
ATOM     15  C   LIG d   1       0.826  89.804 119.532  0.00  0.00     0.109 C 
ATOM     16  O   LIG d   1      -1.282  88.709 119.928  0.00  0.00    -0.276 OA
ATOM     17  H   LIG d   1      -0.697  91.219 118.099  0.00  0.00     0.149 HD
ENDBRANCH   6  13
BRANCH   5  18
ATOM     18  N   LIG d   1      -2.781  88.319 117.070  0.00  0.00     0.381 N 
ATOM     19  H   LIG d   1      -2.065  88.074 116.416  0.00  0.00    -0.090 HD
ATOM     20  H   LIG d   1      -3.610  87.800 116.839  0.00  0.00    -0.090 HD
ATOM     21  H   LIG d   1      -2.487  88.093 117.995  0.00  0.00    -0.090 HD
ENDBRANCH   5  18
BRANCH   3  22
ATOM     22  C   LIG d   1      -6.090  91.582 115.913  0.00  0.00     0.382 C 
ATOM     23  O   LIG d   1      -6.141  91.184 114.724  0.00  0.00    -0.241 OA
ATOM     24  O   LIG d   1      -6.992  92.320 116.352  0.00  0.00    -0.241 OA
ENDBRANCH   3  22
TORSDOF 7
ENDMDL
