MODEL 1
REMARK VINA RESULT:      -5.6      0.000      0.000
REMARK  7 active torsions:
REMARK  status: ('A' for Active; 'I' for Inactive)
REMARK    1  A    between atoms: C_2  and  C_3 
REMARK    2  A    between atoms: C_3  and  O_6 
REMARK    3  A    between atoms: C_3  and  C_4 
REMARK    4  A    between atoms: C_7  and  O_6 
REMARK    5  A    between atoms: C_9  and  C_10 
REMARK    6  A    between atoms: N_15  and  C_14 
REMARK    7  A    between atoms: N_20  and  C_19 
REMARK       I    between atoms: C_22  and  N_20 
ROOT
ATOM      1  C   LIG d   1      -6.011  91.910 118.920  0.00  0.00     0.161 C 
ATOM      2  C   LIG d   1      -5.174  91.163 118.075  0.00  0.00     0.016 C 
ATOM      3  C   LIG d   1      -5.474  90.898 116.719  0.00  0.00     0.038 C 
ATOM      4  C   LIG d   1      -6.566  91.494 116.071  0.00  0.00     0.028 C 
ATOM      5  C   LIG d   1      -7.712  91.846 117.014  0.00  0.00    -0.047 C 
ATOM      6  C   LIG d   1      -7.151  92.662 118.202  0.00  0.00     0.091 C 
ENDROOT
BRANCH   1   7
ATOM      7  O   LIG d   1      -5.222  92.828 119.703  0.00  0.00    -0.368 OA
BRANCH   7   8
ATOM      8  C   LIG d   1      -3.810  92.522 119.811  0.00  0.00     0.119 C 
BRANCH   8   9
ATOM      9  C   LIG d   1      -3.556  92.004 121.240  0.00  0.00     0.028 C 
ATOM     10  C   LIG d   1      -2.950  90.591 121.253  0.00  0.00     0.006 C 
ENDBRANCH   8   9
BRANCH   8  11
ATOM     11  C   LIG d   1      -2.954  93.785 119.679  0.00  0.00     0.028 C 
ATOM     12  C   LIG d   1      -1.819  93.632 118.655  0.00  0.00     0.006 C 
ENDBRANCH   8  11
ENDBRANCH   7   8
ENDBRANCH   1   7
BRANCH   6  13
ATOM     13  N   LIG d   1      -8.192  92.976 119.215  0.00  0.00    -0.311 N 
ATOM     14  C   LIG d   1      -8.858  94.129 119.249  0.00  0.00     0.210 C 
ATOM     15  C   LIG d   1      -9.874  94.255 120.389  0.00  0.00     0.109 C 
ATOM     16  O   LIG d   1      -8.727  95.046 118.425  0.00  0.00    -0.276 OA
ATOM     17  H   LIG d   1      -8.385  92.274 119.903  0.00  0.00     0.149 HD
ENDBRANCH   6  13
BRANCH   5  18
ATOM     18  N   LIG d   1      -8.722  92.583 116.232  0.00  0.00     0.381 N 
ATOM     19  H   LIG d   1      -9.612  92.522 116.685  0.00  0.00    -0.090 HD
ATOM     20  H   LIG d   1      -8.802  92.161 115.324  0.00  0.00    -0.090 HD
ATOM     21  H   LIG d   1      -8.453  93.538 116.141  0.00  0.00    -0.090 HD
ENDBRANCH   5  18
BRANCH   3  22
ATOM     22  C   LIG d   1      -4.699  89.996 116.007  0.00  0.00     0.382 C 
ATOM     23  O   LIG d   1      -5.178  89.409 115.007  0.00  0.00    -0.241 OA
ATOM     24  O   LIG d   1      -3.540  89.728 116.379  0.00  0.00    -0.241 OA
ENDBRANCH   3  22
TORSDOF 7
ENDMDL
MODEL 2
REMARK VINA RESULT:      -5.6      2.533      4.589
REMARK  7 active torsions:
REMARK  status: ('A' for Active; 'I' for Inactive)
REMARK    1  A    between atoms: C_2  and  C_3 
REMARK    2  A    between atoms: C_3  and  O_6 
REMARK    3  A    between atoms: C_3  and  C_4 
REMARK    4  A    between atoms: C_7  and  O_6 
REMARK    5  A    between atoms: C_9  and  C_10 
REMARK    6  A    between atoms: N_15  and  C_14 
REMARK    7  A    between atoms: N_20  and  C_19 
REMARK       I    between atoms: C_22  and  N_20 
ROOT
ATOM      1  C   LIG d   1      -6.201  92.115 118.121  0.00  0.00     0.161 C 
ATOM      2  C   LIG d   1      -7.291  91.659 117.362  0.00  0.00     0.016 C 
ATOM      3  C   LIG d   1      -7.174  90.696 116.333  0.00  0.00     0.038 C 
ATOM      4  C   LIG d   1      -5.975  90.009 116.094  0.00  0.00     0.028 C 
ATOM      5  C   LIG d   1      -4.734  90.798 116.497  0.00  0.00    -0.047 C 
ATOM      6  C   LIG d   1      -4.905  91.295 117.950  0.00  0.00     0.091 C 
ENDROOT
BRANCH   1   7
ATOM      7  O   LIG d   1      -6.570  92.184 119.513  0.00  0.00    -0.368 OA
BRANCH   7   8
ATOM      8  C   LIG d   1      -6.739  93.513 120.063  0.00  0.00     0.119 C 
BRANCH   8   9
ATOM      9  C   LIG d   1      -6.198  93.490 121.505  0.00  0.00     0.028 C 
ATOM     10  C   LIG d   1      -5.351  92.239 121.794  0.00  0.00     0.006 C 
ENDBRANCH   8   9
BRANCH   8  11
ATOM     11  C   LIG d   1      -8.221  93.879 120.191  0.00  0.00     0.028 C 
ATOM     12  C   LIG d   1      -8.732  94.720 119.010  0.00  0.00     0.006 C 
ENDBRANCH   8  11
ENDBRANCH   7   8
ENDBRANCH   1   7
BRANCH   6  13
ATOM     13  N   LIG d   1      -3.772  92.148 118.395  0.00  0.00    -0.311 N 
ATOM     14  C   LIG d   1      -2.746  91.689 119.110  0.00  0.00     0.210 C 
ATOM     15  C   LIG d   1      -1.695  92.740 119.481  0.00  0.00     0.109 C 
ATOM     16  O   LIG d   1      -2.591  90.505 119.445  0.00  0.00    -0.276 OA
ATOM     17  H   LIG d   1      -3.802  93.115 118.140  0.00  0.00     0.149 HD
ENDBRANCH   6  13
BRANCH   5  18
ATOM     18  N   LIG d   1      -3.567  89.912 116.322  0.00  0.00     0.381 N 
ATOM     19  H   LIG d   1      -3.787  89.186 115.671  0.00  0.00    -0.090 HD
ATOM     20  H   LIG d   1      -3.347  89.487 117.206  0.00  0.00    -0.090 HD
ATOM     21  H   LIG d   1      -2.786  90.437 115.994  0.00  0.00    -0.090 HD
ENDBRANCH   5  18
BRANCH   3  22
ATOM     22  C   LIG d   1      -8.256  90.442 115.503  0.00  0.00     0.382 C 
ATOM     23  O   LIG d   1      -8.763  89.295 115.468  0.00  0.00    -0.241 OA
ATOM     24  O   LIG d   1      -8.703  91.333 114.757  0.00  0.00    -0.241 OA
ENDBRANCH   3  22
TORSDOF 7
ENDMDL
MODEL 3
REMARK VINA RESULT:      -5.5      2.479      4.636
REMARK  7 active torsions:
REMARK  status: ('A' for Active; 'I' for Inactive)
REMARK    1  A    between atoms: C_2  and  C_3 
REMARK    2  A    between atoms: C_3  and  O_6 
REMARK    3  A    between atoms: C_3  and  C_4 
REMARK    4  A    between atoms: C_7  and  O_6 
REMARK    5  A    between atoms: C_9  and  C_10 
REMARK    6  A    between atoms: N_15  and  C_14 
REMARK    7  A    between atoms: N_20  and  C_19 
REMARK       I    between atoms: C_22  and  N_20 
ROOT
ATOM      1  C   LIG d   1      -6.124  92.229 118.325  0.00  0.00     0.161 C 
ATOM      2  C   LIG d   1      -7.083  91.728 117.429  0.00  0.00     0.016 C 
ATOM      3  C   LIG d   1      -6.783  90.794 116.411  0.00  0.00     0.038 C 
ATOM      4  C   LIG d   1      -5.525  90.179 116.316  0.00  0.00     0.028 C 
ATOM      5  C   LIG d   1      -4.392  91.028 116.881  0.00  0.00    -0.047 C 
ATOM      6  C   LIG d   1      -4.772  91.487 118.308  0.00  0.00     0.091 C 
ENDROOT
BRANCH   1   7
ATOM      7  O   LIG d   1      -6.668  92.249 119.660  0.00  0.00    -0.368 OA
BRANCH   7   8
ATOM      8  C   LIG d   1      -7.052  93.549 120.172  0.00  0.00     0.119 C 
BRANCH   8   9
ATOM      9  C   LIG d   1      -8.565  93.713 119.928  0.00  0.00     0.028 C 
ATOM     10  C   LIG d   1      -8.874  94.734 118.820  0.00  0.00     0.006 C 
ENDBRANCH   8   9
BRANCH   8  11
ATOM     11  C   LIG d   1      -6.389  94.679 119.379  0.00  0.00     0.028 C 
ATOM     12  C   LIG d   1      -5.296  95.406 120.179  0.00  0.00     0.006 C 
ENDBRANCH   8  11
ENDBRANCH   7   8
ENDBRANCH   1   7
BRANCH   6  13
ATOM     13  N   LIG d   1      -3.754  92.392 118.902  0.00  0.00    -0.311 N 
ATOM     14  C   LIG d   1      -2.766  91.968 119.688  0.00  0.00     0.210 C 
ATOM     15  C   LIG d   1      -1.839  93.070 120.211  0.00  0.00     0.109 C 
ATOM     16  O   LIG d   1      -2.550  90.782 119.976  0.00  0.00    -0.276 OA
ATOM     17  H   LIG d   1      -3.836  93.368 118.695  0.00  0.00     0.149 HD
ENDBRANCH   6  13
BRANCH   5  18
ATOM     18  N   LIG d   1      -3.163  90.213 116.844  0.00  0.00     0.381 N 
ATOM     19  H   LIG d   1      -2.909  90.025 115.895  0.00  0.00    -0.090 HD
ATOM     20  H   LIG d   1      -3.340  89.336 117.303  0.00  0.00    -0.090 HD
ATOM     21  H   LIG d   1      -2.421  90.693 117.305  0.00  0.00    -0.090 HD
ENDBRANCH   5  18
BRANCH   3  22
ATOM     22  C   LIG d   1      -7.736  90.495 115.449  0.00  0.00     0.382 C 
ATOM     23  O   LIG d   1      -8.462  89.480 115.579  0.00  0.00    -0.241 OA
ATOM     24  O   LIG d   1      -7.849  91.204 114.430  0.00  0.00    -0.241 OA
ENDBRANCH   3  22
TORSDOF 7
ENDMDL
MODEL 4
REMARK VINA RESULT:      -5.4      2.587      4.870
REMARK  7 active torsions:
REMARK  status: ('A' for Active; 'I' for Inactive)
REMARK    1  A    between atoms: C_2  and  C_3 
REMARK    2  A    between atoms: C_3  and  O_6 
REMARK    3  A    between atoms: C_3  and  C_4 
REMARK    4  A    between atoms: C_7  and  O_6 
REMARK    5  A    between atoms: C_9  and  C_10 
REMARK    6  A    between atoms: N_15  and  C_14 
REMARK    7  A    between atoms: N_20  and  C_19 
REMARK       I    between atoms: C_22  and  N_20 
ROOT
ATOM      1  C   LIG d   1      -5.156  91.766 119.142  0.00  0.00     0.161 C 
ATOM      2  C   LIG d   1      -4.003  91.795 119.944  0.00  0.00     0.016 C 
ATOM      3  C   LIG d   1      -2.783  91.184 119.576  0.00  0.00     0.038 C 
ATOM      4  C   LIG d   1      -2.587  90.627 118.303  0.00  0.00     0.028 C 
ATOM      5  C   LIG d   1      -3.875  90.130 117.655  0.00  0.00    -0.047 C 
ATOM      6  C   LIG d   1      -4.929  91.260 117.702  0.00  0.00     0.091 C 
ENDROOT
BRANCH   1   7
ATOM      7  O   LIG d   1      -5.772  93.069 119.123  0.00  0.00    -0.368 OA
BRANCH   7   8
ATOM      8  C   LIG d   1      -7.143  93.133 119.587  0.00  0.00     0.119 C 
BRANCH   8   9
ATOM      9  C   LIG d   1      -8.001  93.665 118.423  0.00  0.00     0.028 C 
ATOM     10  C   LIG d   1      -8.869  94.866 118.834  0.00  0.00     0.006 C 
ENDBRANCH   8   9
BRANCH   8  11
ATOM     11  C   LIG d   1      -7.304  94.160 120.712  0.00  0.00     0.028 C 
ATOM     12  C   LIG d   1      -5.960  94.727 121.198  0.00  0.00     0.006 C 
ENDBRANCH   8  11
ENDBRANCH   7   8
ENDBRANCH   1   7
BRANCH   6  13
ATOM     13  N   LIG d   1      -6.245  90.829 117.164  0.00  0.00    -0.311 N 
ATOM     14  C   LIG d   1      -6.610  91.001 115.894  0.00  0.00     0.210 C 
ATOM     15  C   LIG d   1      -8.018  90.502 115.553  0.00  0.00     0.109 C 
ATOM     16  O   LIG d   1      -5.889  91.489 115.011  0.00  0.00    -0.276 OA
ATOM     17  H   LIG d   1      -6.881  90.396 117.805  0.00  0.00     0.149 HD
ENDBRANCH   6  13
BRANCH   5  18
ATOM     18  N   LIG d   1      -3.546  89.703 116.282  0.00  0.00     0.381 N 
ATOM     19  H   LIG d   1      -3.857  90.394 115.628  0.00  0.00    -0.090 HD
ATOM     20  H   LIG d   1      -4.027  88.844 116.085  0.00  0.00    -0.090 HD
ATOM     21  H   LIG d   1      -2.563  89.570 116.192  0.00  0.00    -0.090 HD
ENDBRANCH   5  18
BRANCH   3  22
ATOM     22  C   LIG d   1      -1.755  91.090 120.501  0.00  0.00     0.382 C 
ATOM     23  O   LIG d   1      -1.912  90.414 121.547  0.00  0.00    -0.241 OA
ATOM     24  O   LIG d   1      -0.688  91.709 120.325  0.00  0.00    -0.241 OA
ENDBRANCH   3  22
TORSDOF 7
ENDMDL
MODEL 5
REMARK VINA RESULT:      -5.3      2.361      5.753
REMARK  7 active torsions:
REMARK  status: ('A' for Active; 'I' for Inactive)
REMARK    1  A    between atoms: C_2  and  C_3 
REMARK    2  A    between atoms: C_3  and  O_6 
REMARK    3  A    between atoms: C_3  and  C_4 
REMARK    4  A    between atoms: C_7  and  O_6 
REMARK    5  A    between atoms: C_9  and  C_10 
REMARK    6  A    between atoms: N_15  and  C_14 
REMARK    7  A    between atoms: N_20  and  C_19 
REMARK       I    between atoms: C_22  and  N_20 
ROOT
ATOM      1  C   LIG d   1      -6.481  91.871 118.928  0.00  0.00     0.161 C 
ATOM      2  C   LIG d   1      -7.642  92.647 118.778  0.00  0.00     0.016 C 
ATOM      3  C   LIG d   1      -7.673  94.048 118.967  0.00  0.00     0.038 C 
ATOM      4  C   LIG d   1      -6.503  94.794 119.173  0.00  0.00     0.028 C 
ATOM      5  C   LIG d   1      -5.383  93.995 119.832  0.00  0.00    -0.047 C 
ATOM      6  C   LIG d   1      -5.173  92.682 119.043  0.00  0.00     0.091 C 
ENDROOT
BRANCH   1   7
ATOM      7  O   LIG d   1      -6.386  90.919 117.850  0.00  0.00    -0.368 OA
BRANCH   7   8
ATOM      8  C   LIG d   1      -6.247  91.474 116.519  0.00  0.00     0.119 C 
BRANCH   8   9
ATOM      9  C   LIG d   1      -7.637  91.439 115.855  0.00  0.00     0.028 C 
ATOM     10  C   LIG d   1      -8.198  90.012 115.742  0.00  0.00     0.006 C 
ENDBRANCH   8   9
BRANCH   8  11
ATOM     11  C   LIG d   1      -5.355  90.594 115.638  0.00  0.00     0.028 C 
ATOM     12  C   LIG d   1      -4.180  89.975 116.411  0.00  0.00     0.006 C 
ENDBRANCH   8  11
ENDBRANCH   7   8
ENDBRANCH   1   7
BRANCH   6  13
ATOM     13  N   LIG d   1      -4.152  91.802 119.670  0.00  0.00    -0.311 N 
ATOM     14  C   LIG d   1      -2.864  91.818 119.333  0.00  0.00     0.210 C 
ATOM     15  C   LIG d   1      -1.985  90.816 120.088  0.00  0.00     0.109 C 
ATOM     16  O   LIG d   1      -2.359  92.590 118.503  0.00  0.00    -0.276 OA
ATOM     17  H   LIG d   1      -4.469  91.166 120.375  0.00  0.00     0.149 HD
ENDBRANCH   6  13
BRANCH   5  18
ATOM     18  N   LIG d   1      -4.182  94.851 119.861  0.00  0.00     0.381 N 
ATOM     19  H   LIG d   1      -3.969  95.103 120.805  0.00  0.00    -0.090 HD
ATOM     20  H   LIG d   1      -4.370  95.692 119.344  0.00  0.00    -0.090 HD
ATOM     21  H   LIG d   1      -3.410  94.369 119.456  0.00  0.00    -0.090 HD
ENDBRANCH   5  18
BRANCH   3  22
ATOM     22  C   LIG d   1      -8.890  94.711 118.990  0.00  0.00     0.382 C 
ATOM     23  O   LIG d   1      -9.946  94.076 119.225  0.00  0.00    -0.241 OA
ATOM     24  O   LIG d   1      -8.950  95.929 118.736  0.00  0.00    -0.241 OA
ENDBRANCH   3  22
TORSDOF 7
ENDMDL
MODEL 6
REMARK VINA RESULT:      -5.0      2.867      5.235
REMARK  7 active torsions:
REMARK  status: ('A' for Active; 'I' for Inactive)
REMARK    1  A    between atoms: C_2  and  C_3 
REMARK    2  A    between atoms: C_3  and  O_6 
REMARK    3  A    between atoms: C_3  and  C_4 
REMARK    4  A    between atoms: C_7  and  O_6 
REMARK    5  A    between atoms: C_9  and  C_10 
REMARK    6  A    between atoms: N_15  and  C_14 
REMARK    7  A    between atoms: N_20  and  C_19 
REMARK       I    between atoms: C_22  and  N_20 
ROOT
ATOM      1  C   LIG d   1      -3.569  91.296 117.628  0.00  0.00     0.161 C 
ATOM      2  C   LIG d   1      -2.427  90.624 117.160  0.00  0.00     0.016 C 
ATOM      3  C   LIG d   1      -1.215  90.553 117.884  0.00  0.00     0.038 C 
ATOM      4  C   LIG d   1      -1.109  91.024 119.202  0.00  0.00     0.028 C 
ATOM      5  C   LIG d   1      -2.082  92.154 119.521  0.00  0.00    -0.047 C 
ATOM      6  C   LIG d   1      -3.508  91.720 119.110  0.00  0.00     0.091 C 
ENDROOT
BRANCH   1   7
ATOM      7  O   LIG d   1      -4.742  90.494 117.385  0.00  0.00    -0.368 OA
BRANCH   7   8
ATOM      8  C   LIG d   1      -5.688  91.025 116.424  0.00  0.00     0.119 C 
BRANCH   8   9
ATOM      9  C   LIG d   1      -7.063  91.088 117.117  0.00  0.00     0.028 C 
ATOM     10  C   LIG d   1      -7.505  92.531 117.414  0.00  0.00     0.006 C 
ENDBRANCH   8   9
BRANCH   8  11
ATOM     11  C   LIG d   1      -5.874  90.071 115.240  0.00  0.00     0.028 C 
ATOM     12  C   LIG d   1      -7.200  90.295 114.497  0.00  0.00     0.006 C 
ENDBRANCH   8  11
ENDBRANCH   7   8
ENDBRANCH   1   7
BRANCH   6  13
ATOM     13  N   LIG d   1      -4.509  92.800 119.311  0.00  0.00    -0.311 N 
ATOM     14  C   LIG d   1      -5.240  92.926 120.417  0.00  0.00     0.210 C 
ATOM     15  C   LIG d   1      -6.227  94.097 120.410  0.00  0.00     0.109 C 
ATOM     16  O   LIG d   1      -5.142  92.198 121.416  0.00  0.00    -0.276 OA
ATOM     17  H   LIG d   1      -4.630  93.454 118.562  0.00  0.00     0.149 HD
ENDBRANCH   6  13
BRANCH   5  18
ATOM     18  N   LIG d   1      -1.960  92.454 120.960  0.00  0.00     0.381 N 
ATOM     19  H   LIG d   1      -2.093  91.618 121.492  0.00  0.00    -0.090 HD
ATOM     20  H   LIG d   1      -2.677  93.109 121.217  0.00  0.00    -0.090 HD
ATOM     21  H   LIG d   1      -1.062  92.840 121.153  0.00  0.00    -0.090 HD
ENDBRANCH   5  18
BRANCH   3  22
ATOM     22  C   LIG d   1      -0.079  90.041 117.275  0.00  0.00     0.382 C 
ATOM     23  O   LIG d   1       1.047  90.525 117.541  0.00  0.00    -0.241 OA
ATOM     24  O   LIG d   1      -0.172  89.131 116.429  0.00  0.00    -0.241 OA
ENDBRANCH   3  22
TORSDOF 7
ENDMDL
MODEL 7
REMARK VINA RESULT:      -5.0      2.438      5.931
REMARK  7 active torsions:
REMARK  status: ('A' for Active; 'I' for Inactive)
REMARK    1  A    between atoms: C_2  and  C_3 
REMARK    2  A    between atoms: C_3  and  O_6 
REMARK    3  A    between atoms: C_3  and  C_4 
REMARK    4  A    between atoms: C_7  and  O_6 
REMARK    5  A    between atoms: C_9  and  C_10 
REMARK    6  A    between atoms: N_15  and  C_14 
REMARK    7  A    between atoms: N_20  and  C_19 
REMARK       I    between atoms: C_22  and  N_20 
ROOT
ATOM      1  C   LIG d   1      -6.771  92.592 119.103  0.00  0.00     0.161 C 
ATOM      2  C   LIG d   1      -8.085  93.062 119.261  0.00  0.00     0.016 C 
ATOM      3  C   LIG d   1      -8.435  94.113 120.139  0.00  0.00     0.038 C 
ATOM      4  C   LIG d   1      -7.465  94.871 120.812  0.00  0.00     0.028 C 
ATOM      5  C   LIG d   1      -6.171  94.107 121.071  0.00  0.00    -0.047 C 
ATOM      6  C   LIG d   1      -5.684  93.480 119.745  0.00  0.00     0.091 C 
ENDROOT
BRANCH   1   7
ATOM      7  O   LIG d   1      -6.489  92.388 117.704  0.00  0.00    -0.368 OA
BRANCH   7   8
ATOM      8  C   LIG d   1      -6.338  91.011 117.278  0.00  0.00     0.119 C 
BRANCH   8   9
ATOM      9  C   LIG d   1      -5.067  90.932 116.411  0.00  0.00     0.028 C 
ATOM     10  C   LIG d   1      -3.881  90.306 117.163  0.00  0.00     0.006 C 
ENDBRANCH   8   9
BRANCH   8  11
ATOM     11  C   LIG d   1      -7.485  90.584 116.358  0.00  0.00     0.028 C 
ATOM     12  C   LIG d   1      -8.023  91.740 115.500  0.00  0.00     0.006 C 
ENDBRANCH   8  11
ENDBRANCH   7   8
ENDBRANCH   1   7
BRANCH   6  13
ATOM     13  N   LIG d   1      -4.469  92.644 119.926  0.00  0.00    -0.311 N 
ATOM     14  C   LIG d   1      -3.229  93.119 119.814  0.00  0.00     0.210 C 
ATOM     15  C   LIG d   1      -2.119  92.083 120.019  0.00  0.00     0.109 C 
ATOM     16  O   LIG d   1      -2.944  94.306 119.597  0.00  0.00    -0.276 OA
ATOM     17  H   LIG d   1      -4.609  91.675 120.135  0.00  0.00     0.149 HD
ENDBRANCH   6  13
BRANCH   5  18
ATOM     18  N   LIG d   1      -5.202  95.055 121.652  0.00  0.00     0.381 N 
ATOM     19  H   LIG d   1      -5.198  95.904 121.122  0.00  0.00    -0.090 HD
ATOM     20  H   LIG d   1      -4.284  94.651 121.607  0.00  0.00    -0.090 HD
ATOM     21  H   LIG d   1      -5.441  95.249 122.600  0.00  0.00    -0.090 HD
ENDBRANCH   5  18
BRANCH   3  22
ATOM     22  C   LIG d   1      -9.772  94.389 120.383  0.00  0.00     0.382 C 
ATOM     23  O   LIG d   1     -10.096  95.446 120.976  0.00  0.00    -0.241 OA
ATOM     24  O   LIG d   1     -10.655  93.574 120.056  0.00  0.00    -0.241 OA
ENDBRANCH   3  22
TORSDOF 7
ENDMDL
MODEL 8
REMARK VINA RESULT:      -4.9      2.097      4.878
REMARK  7 active torsions:
REMARK  status: ('A' for Active; 'I' for Inactive)
REMARK    1  A    between atoms: C_2  and  C_3 
REMARK    2  A    between atoms: C_3  and  O_6 
REMARK    3  A    between atoms: C_3  and  C_4 
REMARK    4  A    between atoms: C_7  and  O_6 
REMARK    5  A    between atoms: C_9  and  C_10 
REMARK    6  A    between atoms: N_15  and  C_14 
REMARK    7  A    between atoms: N_20  and  C_19 
REMARK       I    between atoms: C_22  and  N_20 
ROOT
ATOM      1  C   LIG d   1      -6.868  92.171 119.135  0.00  0.00     0.161 C 
ATOM      2  C   LIG d   1      -5.878  92.424 120.098  0.00  0.00     0.016 C 
ATOM      3  C   LIG d   1      -4.507  92.143 119.898  0.00  0.00     0.038 C 
ATOM      4  C   LIG d   1      -4.009  91.726 118.655  0.00  0.00     0.028 C 
ATOM      5  C   LIG d   1      -5.036  90.977 117.812  0.00  0.00    -0.047 C 
ATOM      6  C   LIG d   1      -6.330  91.820 117.732  0.00  0.00     0.091 C 
ENDROOT
BRANCH   1   7
ATOM      7  O   LIG d   1      -7.774  93.289 119.058  0.00  0.00    -0.368 OA
BRANCH   7   8
ATOM      8  C   LIG d   1      -7.485  94.405 119.937  0.00  0.00     0.119 C 
BRANCH   8   9
ATOM      9  C   LIG d   1      -8.774  94.726 120.717  0.00  0.00     0.028 C 
ATOM     10  C   LIG d   1      -9.897  93.713 120.437  0.00  0.00     0.006 C 
ENDBRANCH   8   9
BRANCH   8  11
ATOM     11  C   LIG d   1      -7.165  95.673 119.141  0.00  0.00     0.028 C 
ATOM     12  C   LIG d   1      -8.370  96.619 119.019  0.00  0.00     0.006 C 
ENDBRANCH   8  11
ENDBRANCH   7   8
ENDBRANCH   1   7
BRANCH   6  13
ATOM     13  N   LIG d   1      -7.416  91.122 116.995  0.00  0.00    -0.311 N 
ATOM     14  C   LIG d   1      -7.609  91.247 115.683  0.00  0.00     0.210 C 
ATOM     15  C   LIG d   1      -8.798  90.457 115.127  0.00  0.00     0.109 C 
ATOM     16  O   LIG d   1      -6.890  91.911 114.922  0.00  0.00    -0.276 OA
ATOM     17  H   LIG d   1      -8.028  90.538 117.530  0.00  0.00     0.149 HD
ENDBRANCH   6  13
BRANCH   5  18
ATOM     18  N   LIG d   1      -4.429  90.723 116.492  0.00  0.00     0.381 N 
ATOM     19  H   LIG d   1      -5.038  90.149 115.944  0.00  0.00    -0.090 HD
ATOM     20  H   LIG d   1      -3.563  90.230 116.622  0.00  0.00    -0.090 HD
ATOM     21  H   LIG d   1      -4.261  91.585 116.022  0.00  0.00    -0.090 HD
ENDBRANCH   5  18
BRANCH   3  22
ATOM     22  C   LIG d   1      -3.623  92.241 120.962  0.00  0.00     0.382 C 
ATOM     23  O   LIG d   1      -3.135  93.354 121.272  0.00  0.00    -0.241 OA
ATOM     24  O   LIG d   1      -3.273  91.222 121.588  0.00  0.00    -0.241 OA
ENDBRANCH   3  22
TORSDOF 7
ENDMDL
MODEL 9
REMARK VINA RESULT:      -4.9      2.179      4.700
REMARK  7 active torsions:
REMARK  status: ('A' for Active; 'I' for Inactive)
REMARK    1  A    between atoms: C_2  and  C_3 
REMARK    2  A    between atoms: C_3  and  O_6 
REMARK    3  A    between atoms: C_3  and  C_4 
REMARK    4  A    between atoms: C_7  and  O_6 
REMARK    5  A    between atoms: C_9  and  C_10 
REMARK    6  A    between atoms: N_15  and  C_14 
REMARK    7  A    between atoms: N_20  and  C_19 
REMARK       I    between atoms: C_22  and  N_20 
ROOT
ATOM      1  C   LIG d   1      -4.917  91.682 118.210  0.00  0.00     0.161 C 
ATOM      2  C   LIG d   1      -3.691  91.071 118.520  0.00  0.00     0.016 C 
ATOM      3  C   LIG d   1      -2.981  91.315 119.718  0.00  0.00     0.038 C 
ATOM      4  C   LIG d   1      -3.528  92.076 120.762  0.00  0.00     0.028 C 
ATOM      5  C   LIG d   1      -4.536  93.118 120.288  0.00  0.00    -0.047 C 
ATOM      6  C   LIG d   1      -5.583  92.429 119.384  0.00  0.00     0.091 C 
ENDROOT
BRANCH   1   7
ATOM      7  O   LIG d   1      -5.823  90.705 117.658  0.00  0.00    -0.368 OA
BRANCH   7   8
ATOM      8  C   LIG d   1      -6.632  91.146 116.540  0.00  0.00     0.119 C 
BRANCH   8   9
ATOM      9  C   LIG d   1      -7.876  90.238 116.482  0.00  0.00     0.028 C 
ATOM     10  C   LIG d   1      -8.669  90.413 115.176  0.00  0.00     0.006 C 
ENDBRANCH   8   9
BRANCH   8  11
ATOM     11  C   LIG d   1      -5.908  90.928 115.208  0.00  0.00     0.028 C 
ATOM     12  C   LIG d   1      -5.088  89.629 115.182  0.00  0.00     0.006 C 
ENDBRANCH   8  11
ENDBRANCH   7   8
ENDBRANCH   1   7
BRANCH   6  13
ATOM     13  N   LIG d   1      -6.558  93.392 118.809  0.00  0.00    -0.311 N 
ATOM     14  C   LIG d   1      -7.671  93.770 119.436  0.00  0.00     0.210 C 
ATOM     15  C   LIG d   1      -8.547  94.757 118.657  0.00  0.00     0.109 C 
ATOM     16  O   LIG d   1      -8.000  93.407 120.575  0.00  0.00    -0.276 OA
ATOM     17  H   LIG d   1      -6.354  93.761 117.901  0.00  0.00     0.149 HD
ENDBRANCH   6  13
BRANCH   5  18
ATOM     18  N   LIG d   1      -5.128  93.743 121.486  0.00  0.00     0.381 N 
ATOM     19  H   LIG d   1      -4.492  94.415 121.867  0.00  0.00    -0.090 HD
ATOM     20  H   LIG d   1      -5.287  93.032 122.178  0.00  0.00    -0.090 HD
ATOM     21  H   LIG d   1      -5.988  94.185 121.250  0.00  0.00    -0.090 HD
ENDBRANCH   5  18
BRANCH   3  22
ATOM     22  C   LIG d   1      -1.692  90.827 119.865  0.00  0.00     0.382 C 
ATOM     23  O   LIG d   1      -0.973  90.640 118.853  0.00  0.00    -0.241 OA
ATOM     24  O   LIG d   1      -1.253  90.529 120.992  0.00  0.00    -0.241 OA
ENDBRANCH   3  22
TORSDOF 7
ENDMDL
