MODEL 1
REMARK VINA RESULT:      -5.2      0.000      0.000
REMARK  7 active torsions:
REMARK  status: ('A' for Active; 'I' for Inactive)
REMARK    1  A    between atoms: C_2  and  C_3 
REMARK    2  A    between atoms: C_3  and  O_6 
REMARK    3  A    between atoms: C_3  and  C_4 
REMARK    4  A    between atoms: C_7  and  O_6 
REMARK    5  A    between atoms: C_9  and  C_10 
REMARK    6  A    between atoms: N_15  and  C_14 
REMARK    7  A    between atoms: N_20  and  C_19 
REMARK       I    between atoms: C_22  and  N_20 
ROOT
ATOM      1  C   LIG d   1      -3.077  90.717 117.801  0.00  0.00     0.161 C 
ATOM      2  C   LIG d   1      -3.882  89.938 116.953  0.00  0.00     0.016 C 
ATOM      3  C   LIG d   1      -5.118  90.383 116.430  0.00  0.00     0.038 C 
ATOM      4  C   LIG d   1      -5.564  91.702 116.600  0.00  0.00     0.028 C 
ATOM      5  C   LIG d   1      -5.030  92.363 117.866  0.00  0.00    -0.047 C 
ATOM      6  C   LIG d   1      -3.493  92.199 117.908  0.00  0.00     0.091 C 
ENDROOT
BRANCH   1   7
ATOM      7  O   LIG d   1      -1.697  90.612 117.397  0.00  0.00    -0.368 OA
BRANCH   7   8
ATOM      8  C   LIG d   1      -0.844  89.806 118.247  0.00  0.00     0.119 C 
BRANCH   8   9
ATOM      9  C   LIG d   1       0.487  90.564 118.419  0.00  0.00     0.028 C 
ATOM     10  C   LIG d   1       0.656  91.694 117.390  0.00  0.00     0.006 C 
ENDBRANCH   8   9
BRANCH   8  11
ATOM     11  C   LIG d   1      -0.472  88.483 117.570  0.00  0.00     0.028 C 
ATOM     12  C   LIG d   1      -1.404  87.327 117.969  0.00  0.00     0.006 C 
ENDBRANCH   8  11
ENDBRANCH   7   8
ENDBRANCH   1   7
BRANCH   6  13
ATOM     13  N   LIG d   1      -2.898  92.744 119.156  0.00  0.00    -0.311 N 
ATOM     14  C   LIG d   1      -2.020  93.745 119.173  0.00  0.00     0.210 C 
ATOM     15  C   LIG d   1      -1.516  94.140 120.565  0.00  0.00     0.109 C 
ATOM     16  O   LIG d   1      -1.633  94.364 118.170  0.00  0.00    -0.276 OA
ATOM     17  H   LIG d   1      -3.180  92.321 120.018  0.00  0.00     0.149 HD
ENDBRANCH   6  13
BRANCH   5  18
ATOM     18  N   LIG d   1      -5.459  93.774 117.847  0.00  0.00     0.381 N 
ATOM     19  H   LIG d   1      -5.696  94.044 116.913  0.00  0.00    -0.090 HD
ATOM     20  H   LIG d   1      -4.697  94.350 118.158  0.00  0.00    -0.090 HD
ATOM     21  H   LIG d   1      -6.246  93.899 118.446  0.00  0.00    -0.090 HD
ENDBRANCH   5  18
BRANCH   3  22
ATOM     22  C   LIG d   1      -5.942  89.490 115.761  0.00  0.00     0.382 C 
ATOM     23  O   LIG d   1      -6.926  88.982 116.350  0.00  0.00    -0.241 OA
ATOM     24  O   LIG d   1      -5.687  89.153 114.589  0.00  0.00    -0.241 OA
ENDBRANCH   3  22
TORSDOF 7
ENDMDL
MODEL 2
REMARK VINA RESULT:      -4.9      2.518      4.633
REMARK  7 active torsions:
REMARK  status: ('A' for Active; 'I' for Inactive)
REMARK    1  A    between atoms: C_2  and  C_3 
REMARK    2  A    between atoms: C_3  and  O_6 
REMARK    3  A    between atoms: C_3  and  C_4 
REMARK    4  A    between atoms: C_7  and  O_6 
REMARK    5  A    between atoms: C_9  and  C_10 
REMARK    6  A    between atoms: N_15  and  C_14 
REMARK    7  A    between atoms: N_20  and  C_19 
REMARK       I    between atoms: C_22  and  N_20 
ROOT
ATOM      1  C   LIG d   1      -4.365  92.632 118.146  0.00  0.00     0.161 C 
ATOM      2  C   LIG d   1      -5.320  92.511 117.123  0.00  0.00     0.016 C 
ATOM      3  C   LIG d   1      -5.426  91.376 116.288  0.00  0.00     0.038 C 
ATOM      4  C   LIG d   1      -4.677  90.212 116.519  0.00  0.00     0.028 C 
ATOM      5  C   LIG d   1      -3.350  90.476 117.223  0.00  0.00    -0.047 C 
ATOM      6  C   LIG d   1      -3.613  91.328 118.486  0.00  0.00     0.091 C 
ENDROOT
BRANCH   1   7
ATOM      7  O   LIG d   1      -4.982  93.176 119.329  0.00  0.00    -0.368 OA
BRANCH   7   8
ATOM      8  C   LIG d   1      -4.855  94.608 119.513  0.00  0.00     0.119 C 
BRANCH   8   9
ATOM      9  C   LIG d   1      -3.838  94.840 120.648  0.00  0.00     0.028 C 
ATOM     10  C   LIG d   1      -2.457  95.263 120.120  0.00  0.00     0.006 C 
ENDBRANCH   8   9
BRANCH   8  11
ATOM     11  C   LIG d   1      -6.166  95.224 120.011  0.00  0.00     0.028 C 
ATOM     12  C   LIG d   1      -7.275  95.207 118.947  0.00  0.00     0.006 C 
ENDBRANCH   8  11
ENDBRANCH   7   8
ENDBRANCH   1   7
BRANCH   6  13
ATOM     13  N   LIG d   1      -2.357  91.703 119.187  0.00  0.00    -0.311 N 
ATOM     14  C   LIG d   1      -2.159  91.507 120.490  0.00  0.00     0.210 C 
ATOM     15  C   LIG d   1      -0.802  91.984 121.016  0.00  0.00     0.109 C 
ATOM     16  O   LIG d   1      -2.966  90.954 121.253  0.00  0.00    -0.276 OA
ATOM     17  H   LIG d   1      -1.637  92.129 118.638  0.00  0.00     0.149 HD
ENDBRANCH   6  13
BRANCH   5  18
ATOM     18  N   LIG d   1      -2.738  89.169 117.524  0.00  0.00     0.381 N 
ATOM     19  H   LIG d   1      -1.928  89.034 116.953  0.00  0.00    -0.090 HD
ATOM     20  H   LIG d   1      -3.399  88.443 117.310  0.00  0.00    -0.090 HD
ATOM     21  H   LIG d   1      -2.485  89.124 118.487  0.00  0.00    -0.090 HD
ENDBRANCH   5  18
BRANCH   3  22
ATOM     22  C   LIG d   1      -6.262  91.412 115.182  0.00  0.00     0.382 C 
ATOM     23  O   LIG d   1      -6.429  92.487 114.557  0.00  0.00    -0.241 OA
ATOM     24  O   LIG d   1      -6.886  90.394 114.828  0.00  0.00    -0.241 OA
ENDBRANCH   3  22
TORSDOF 7
ENDMDL
MODEL 3
REMARK VINA RESULT:      -4.7      2.444      5.688
REMARK  7 active torsions:
REMARK  status: ('A' for Active; 'I' for Inactive)
REMARK    1  A    between atoms: C_2  and  C_3 
REMARK    2  A    between atoms: C_3  and  O_6 
REMARK    3  A    between atoms: C_3  and  C_4 
REMARK    4  A    between atoms: C_7  and  O_6 
REMARK    5  A    between atoms: C_9  and  C_10 
REMARK    6  A    between atoms: N_15  and  C_14 
REMARK    7  A    between atoms: N_20  and  C_19 
REMARK       I    between atoms: C_22  and  N_20 
ROOT
ATOM      1  C   LIG d   1       0.145  90.414 117.260  0.00  0.00     0.161 C 
ATOM      2  C   LIG d   1       1.392  91.018 117.492  0.00  0.00     0.016 C 
ATOM      3  C   LIG d   1       1.540  92.340 117.971  0.00  0.00     0.038 C 
ATOM      4  C   LIG d   1       0.441  93.102 118.395  0.00  0.00     0.028 C 
ATOM      5  C   LIG d   1      -0.864  92.719 117.705  0.00  0.00    -0.047 C 
ATOM      6  C   LIG d   1      -1.064  91.191 117.822  0.00  0.00     0.091 C 
ENDROOT
BRANCH   1   7
ATOM      7  O   LIG d   1       0.154  89.065 117.766  0.00  0.00    -0.368 OA
BRANCH   7   8
ATOM      8  C   LIG d   1      -0.068  88.017 116.791  0.00  0.00     0.119 C 
BRANCH   8   9
ATOM      9  C   LIG d   1      -1.311  87.223 117.238  0.00  0.00     0.028 C 
ATOM     10  C   LIG d   1      -1.682  87.493 118.706  0.00  0.00     0.006 C 
ENDBRANCH   8   9
BRANCH   8  11
ATOM     11  C   LIG d   1       1.081  87.004 116.790  0.00  0.00     0.028 C 
ATOM     12  C   LIG d   1       0.902  85.900 115.735  0.00  0.00     0.006 C 
ENDBRANCH   8  11
ENDBRANCH   7   8
ENDBRANCH   1   7
BRANCH   6  13
ATOM     13  N   LIG d   1      -2.275  90.720 117.101  0.00  0.00    -0.311 N 
ATOM     14  C   LIG d   1      -3.470  90.599 117.676  0.00  0.00     0.210 C 
ATOM     15  C   LIG d   1      -4.580  90.078 116.758  0.00  0.00     0.109 C 
ATOM     16  O   LIG d   1      -3.723  90.904 118.852  0.00  0.00    -0.276 OA
ATOM     17  H   LIG d   1      -2.166  90.481 116.135  0.00  0.00     0.149 HD
ENDBRANCH   6  13
BRANCH   5  18
ATOM     18  N   LIG d   1      -1.947  93.494 118.340  0.00  0.00     0.381 N 
ATOM     19  H   LIG d   1      -1.579  94.345 118.716  0.00  0.00    -0.090 HD
ATOM     20  H   LIG d   1      -2.332  92.955 119.095  0.00  0.00    -0.090 HD
ATOM     21  H   LIG d   1      -2.657  93.697 117.671  0.00  0.00    -0.090 HD
ENDBRANCH   5  18
BRANCH   3  22
ATOM     22  C   LIG d   1       2.796  92.927 117.990  0.00  0.00     0.382 C 
ATOM     23  O   LIG d   1       3.128  93.665 118.949  0.00  0.00    -0.241 OA
ATOM     24  O   LIG d   1       3.584  92.765 117.040  0.00  0.00    -0.241 OA
ENDBRANCH   3  22
TORSDOF 7
ENDMDL
MODEL 4
REMARK VINA RESULT:      -4.7      2.431      5.657
REMARK  7 active torsions:
REMARK  status: ('A' for Active; 'I' for Inactive)
REMARK    1  A    between atoms: C_2  and  C_3 
REMARK    2  A    between atoms: C_3  and  O_6 
REMARK    3  A    between atoms: C_3  and  C_4 
REMARK    4  A    between atoms: C_7  and  O_6 
REMARK    5  A    between atoms: C_9  and  C_10 
REMARK    6  A    between atoms: N_15  and  C_14 
REMARK    7  A    between atoms: N_20  and  C_19 
REMARK       I    between atoms: C_22  and  N_20 
ROOT
ATOM      1  C   LIG d   1       0.177  90.618 116.991  0.00  0.00     0.161 C 
ATOM      2  C   LIG d   1       1.409  91.226 117.284  0.00  0.00     0.016 C 
ATOM      3  C   LIG d   1       1.528  92.434 118.010  0.00  0.00     0.038 C 
ATOM      4  C   LIG d   1       0.423  93.040 118.627  0.00  0.00     0.028 C 
ATOM      5  C   LIG d   1      -0.900  92.735 117.933  0.00  0.00    -0.047 C 
ATOM      6  C   LIG d   1      -1.031  91.206 117.751  0.00  0.00     0.091 C 
ENDROOT
BRANCH   1   7
ATOM      7  O   LIG d   1       0.268  89.198 117.217  0.00  0.00    -0.368 OA
BRANCH   7   8
ATOM      8  C   LIG d   1       0.076  88.755 118.583  0.00  0.00     0.119 C 
BRANCH   8   9
ATOM      9  C   LIG d   1       1.341  87.980 119.000  0.00  0.00     0.028 C 
ATOM     10  C   LIG d   1       1.064  86.966 120.122  0.00  0.00     0.006 C 
ENDBRANCH   8   9
BRANCH   8  11
ATOM     11  C   LIG d   1      -1.071  87.746 118.686  0.00  0.00     0.028 C 
ATOM     12  C   LIG d   1      -1.544  87.238 117.315  0.00  0.00     0.006 C 
ENDBRANCH   8  11
ENDBRANCH   7   8
ENDBRANCH   1   7
BRANCH   6  13
ATOM     13  N   LIG d   1      -2.259  90.827 117.005  0.00  0.00    -0.311 N 
ATOM     14  C   LIG d   1      -3.424  90.566 117.595  0.00  0.00     0.210 C 
ATOM     15  C   LIG d   1      -4.558  90.175 116.642  0.00  0.00     0.109 C 
ATOM     16  O   LIG d   1      -3.635  90.654 118.814  0.00  0.00    -0.276 OA
ATOM     17  H   LIG d   1      -2.186  90.763 116.008  0.00  0.00     0.149 HD
ENDBRANCH   6  13
BRANCH   5  18
ATOM     18  N   LIG d   1      -1.979  93.313 118.757  0.00  0.00     0.381 N 
ATOM     19  H   LIG d   1      -2.143  94.262 118.484  0.00  0.00    -0.090 HD
ATOM     20  H   LIG d   1      -1.691  93.308 119.720  0.00  0.00    -0.090 HD
ATOM     21  H   LIG d   1      -2.813  92.780 118.650  0.00  0.00    -0.090 HD
ENDBRANCH   5  18
BRANCH   3  22
ATOM     22  C   LIG d   1       2.758  93.069 118.091  0.00  0.00     0.382 C 
ATOM     23  O   LIG d   1       3.451  93.227 117.058  0.00  0.00    -0.241 OA
ATOM     24  O   LIG d   1       3.203  93.446 119.192  0.00  0.00    -0.241 OA
ENDBRANCH   3  22
TORSDOF 7
ENDMDL
MODEL 5
REMARK VINA RESULT:      -4.6      2.153      4.282
REMARK  7 active torsions:
REMARK  status: ('A' for Active; 'I' for Inactive)
REMARK    1  A    between atoms: C_2  and  C_3 
REMARK    2  A    between atoms: C_3  and  O_6 
REMARK    3  A    between atoms: C_3  and  C_4 
REMARK    4  A    between atoms: C_7  and  O_6 
REMARK    5  A    between atoms: C_9  and  C_10 
REMARK    6  A    between atoms: N_15  and  C_14 
REMARK    7  A    between atoms: N_20  and  C_19 
REMARK       I    between atoms: C_22  and  N_20 
ROOT
ATOM      1  C   LIG d   1      -3.498  92.624 117.854  0.00  0.00     0.161 C 
ATOM      2  C   LIG d   1      -4.717  92.579 117.158  0.00  0.00     0.016 C 
ATOM      3  C   LIG d   1      -5.243  91.399 116.584  0.00  0.00     0.038 C 
ATOM      4  C   LIG d   1      -4.654  90.144 116.799  0.00  0.00     0.028 C 
ATOM      5  C   LIG d   1      -3.155  90.217 117.069  0.00  0.00    -0.047 C 
ATOM      6  C   LIG d   1      -2.897  91.244 118.194  0.00  0.00     0.091 C 
ENDROOT
BRANCH   1   7
ATOM      7  O   LIG d   1      -3.647  93.414 119.050  0.00  0.00    -0.368 OA
BRANCH   7   8
ATOM      8  C   LIG d   1      -4.366  92.789 120.142  0.00  0.00     0.119 C 
BRANCH   8   9
ATOM      9  C   LIG d   1      -5.541  93.714 120.513  0.00  0.00     0.028 C 
ATOM     10  C   LIG d   1      -5.419  95.105 119.868  0.00  0.00     0.006 C 
ENDBRANCH   8   9
BRANCH   8  11
ATOM     11  C   LIG d   1      -3.501  92.707 121.404  0.00  0.00     0.028 C 
ATOM     12  C   LIG d   1      -2.265  93.618 121.339  0.00  0.00     0.006 C 
ENDBRANCH   8  11
ENDBRANCH   7   8
ENDBRANCH   1   7
BRANCH   6  13
ATOM     13  N   LIG d   1      -1.448  91.439 118.463  0.00  0.00    -0.311 N 
ATOM     14  C   LIG d   1      -0.788  90.796 119.425  0.00  0.00     0.210 C 
ATOM     15  C   LIG d   1       0.696  91.159 119.544  0.00  0.00     0.109 C 
ATOM     16  O   LIG d   1      -1.283  89.937 120.169  0.00  0.00    -0.276 OA
ATOM     17  H   LIG d   1      -0.961  92.096 117.885  0.00  0.00     0.149 HD
ENDBRANCH   6  13
BRANCH   5  18
ATOM     18  N   LIG d   1      -2.697  88.857 117.411  0.00  0.00     0.381 N 
ATOM     19  H   LIG d   1      -3.122  88.192 116.796  0.00  0.00    -0.090 HD
ATOM     20  H   LIG d   1      -2.982  88.645 118.351  0.00  0.00    -0.090 HD
ATOM     21  H   LIG d   1      -1.705  88.802 117.337  0.00  0.00    -0.090 HD
ENDBRANCH   5  18
BRANCH   3  22
ATOM     22  C   LIG d   1      -6.349  91.473 115.751  0.00  0.00     0.382 C 
ATOM     23  O   LIG d   1      -7.321  90.700 115.929  0.00  0.00    -0.241 OA
ATOM     24  O   LIG d   1      -6.368  92.273 114.797  0.00  0.00    -0.241 OA
ENDBRANCH   3  22
TORSDOF 7
ENDMDL
MODEL 6
REMARK VINA RESULT:      -4.4      2.428      5.538
REMARK  7 active torsions:
REMARK  status: ('A' for Active; 'I' for Inactive)
REMARK    1  A    between atoms: C_2  and  C_3 
REMARK    2  A    between atoms: C_3  and  O_6 
REMARK    3  A    between atoms: C_3  and  C_4 
REMARK    4  A    between atoms: C_7  and  O_6 
REMARK    5  A    between atoms: C_9  and  C_10 
REMARK    6  A    between atoms: N_15  and  C_14 
REMARK    7  A    between atoms: N_20  and  C_19 
REMARK       I    between atoms: C_22  and  N_20 
ROOT
ATOM      1  C   LIG d   1      -0.861  91.757 117.486  0.00  0.00     0.161 C 
ATOM      2  C   LIG d   1       0.507  91.922 117.756  0.00  0.00     0.016 C 
ATOM      3  C   LIG d   1       1.055  93.102 118.308  0.00  0.00     0.038 C 
ATOM      4  C   LIG d   1       0.245  94.149 118.772  0.00  0.00     0.028 C 
ATOM      5  C   LIG d   1      -1.100  94.236 118.058  0.00  0.00    -0.047 C 
ATOM      6  C   LIG d   1      -1.775  92.846 118.088  0.00  0.00     0.091 C 
ENDROOT
BRANCH   1   7
ATOM      7  O   LIG d   1      -1.290  90.450 117.916  0.00  0.00    -0.368 OA
BRANCH   7   8
ATOM      8  C   LIG d   1      -0.655  89.931 119.110  0.00  0.00     0.119 C 
BRANCH   8   9
ATOM      9  C   LIG d   1      -0.364  88.437 118.868  0.00  0.00     0.028 C 
ATOM     10  C   LIG d   1      -1.649  87.598 118.768  0.00  0.00     0.006 C 
ENDBRANCH   8   9
BRANCH   8  11
ATOM     11  C   LIG d   1      -1.607  89.970 120.309  0.00  0.00     0.028 C 
ATOM     12  C   LIG d   1      -1.236  91.058 121.329  0.00  0.00     0.006 C 
ENDBRANCH   8  11
ENDBRANCH   7   8
ENDBRANCH   1   7
BRANCH   6  13
ATOM     13  N   LIG d   1      -3.057  92.822 117.338  0.00  0.00    -0.311 N 
ATOM     14  C   LIG d   1      -4.200  92.372 117.854  0.00  0.00     0.210 C 
ATOM     15  C   LIG d   1      -5.401  92.417 116.904  0.00  0.00     0.109 C 
ATOM     16  O   LIG d   1      -4.340  91.970 119.019  0.00  0.00    -0.276 OA
ATOM     17  H   LIG d   1      -3.041  93.159 116.395  0.00  0.00     0.149 HD
ENDBRANCH   6  13
BRANCH   5  18
ATOM     18  N   LIG d   1      -1.896  95.279 118.732  0.00  0.00     0.381 N 
ATOM     19  H   LIG d   1      -1.471  96.174 118.590  0.00  0.00    -0.090 HD
ATOM     20  H   LIG d   1      -1.911  95.090 119.718  0.00  0.00    -0.090 HD
ATOM     21  H   LIG d   1      -2.825  95.285 118.373  0.00  0.00    -0.090 HD
ENDBRANCH   5  18
BRANCH   3  22
ATOM     22  C   LIG d   1       2.432  93.260 118.364  0.00  0.00     0.382 C 
ATOM     23  O   LIG d   1       3.131  93.030 117.348  0.00  0.00    -0.241 OA
ATOM     24  O   LIG d   1       2.987  93.588 119.430  0.00  0.00    -0.241 OA
ENDBRANCH   3  22
TORSDOF 7
ENDMDL
MODEL 7
REMARK VINA RESULT:      -4.3      2.624      5.790
REMARK  7 active torsions:
REMARK  status: ('A' for Active; 'I' for Inactive)
REMARK    1  A    between atoms: C_2  and  C_3 
REMARK    2  A    between atoms: C_3  and  O_6 
REMARK    3  A    between atoms: C_3  and  C_4 
REMARK    4  A    between atoms: C_7  and  O_6 
REMARK    5  A    between atoms: C_9  and  C_10 
REMARK    6  A    between atoms: N_15  and  C_14 
REMARK    7  A    between atoms: N_20  and  C_19 
REMARK       I    between atoms: C_22  and  N_20 
ROOT
ATOM      1  C   LIG d   1      -0.344  90.453 118.735  0.00  0.00     0.161 C 
ATOM      2  C   LIG d   1       0.854  90.971 119.255  0.00  0.00     0.016 C 
ATOM      3  C   LIG d   1       1.212  92.336 119.171  0.00  0.00     0.038 C 
ATOM      4  C   LIG d   1       0.322  93.309 118.692  0.00  0.00     0.028 C 
ATOM      5  C   LIG d   1      -0.694  92.761 117.695  0.00  0.00    -0.047 C 
ATOM      6  C   LIG d   1      -1.377  91.516 118.307  0.00  0.00     0.091 C 
ENDROOT
BRANCH   1   7
ATOM      7  O   LIG d   1      -0.930  89.536 119.680  0.00  0.00    -0.368 OA
BRANCH   7   8
ATOM      8  C   LIG d   1      -0.634  88.133 119.474  0.00  0.00     0.119 C 
BRANCH   8   9
ATOM      9  C   LIG d   1      -1.820  87.517 118.707  0.00  0.00     0.028 C 
ATOM     10  C   LIG d   1      -1.486  87.242 117.231  0.00  0.00     0.006 C 
ENDBRANCH   8   9
BRANCH   8  11
ATOM     11  C   LIG d   1      -0.574  87.375 120.803  0.00  0.00     0.028 C 
ATOM     12  C   LIG d   1       0.754  86.628 121.004  0.00  0.00     0.006 C 
ENDBRANCH   8  11
ENDBRANCH   7   8
ENDBRANCH   1   7
BRANCH   6  13
ATOM     13  N   LIG d   1      -2.325  90.868 117.364  0.00  0.00    -0.311 N 
ATOM     14  C   LIG d   1      -3.625  90.725 117.615  0.00  0.00     0.210 C 
ATOM     15  C   LIG d   1      -4.421  90.011 116.518  0.00  0.00     0.109 C 
ATOM     16  O   LIG d   1      -4.202  91.150 118.628  0.00  0.00    -0.276 OA
ATOM     17  H   LIG d   1      -1.948  90.522 116.504  0.00  0.00     0.149 HD
ENDBRANCH   6  13
BRANCH   5  18
ATOM     18  N   LIG d   1      -1.643  93.846 117.383  0.00  0.00     0.381 N 
ATOM     19  H   LIG d   1      -2.531  93.459 117.135  0.00  0.00    -0.090 HD
ATOM     20  H   LIG d   1      -1.294  94.367 116.598  0.00  0.00    -0.090 HD
ATOM     21  H   LIG d   1      -1.744  94.448 118.171  0.00  0.00    -0.090 HD
ENDBRANCH   5  18
BRANCH   3  22
ATOM     22  C   LIG d   1       2.490  92.735 119.533  0.00  0.00     0.382 C 
ATOM     23  O   LIG d   1       3.099  93.589 118.845  0.00  0.00    -0.241 OA
ATOM     24  O   LIG d   1       3.059  92.218 120.514  0.00  0.00    -0.241 OA
ENDBRANCH   3  22
TORSDOF 7
ENDMDL
MODEL 8
REMARK VINA RESULT:      -4.2      2.458      5.263
REMARK  7 active torsions:
REMARK  status: ('A' for Active; 'I' for Inactive)
REMARK    1  A    between atoms: C_2  and  C_3 
REMARK    2  A    between atoms: C_3  and  O_6 
REMARK    3  A    between atoms: C_3  and  C_4 
REMARK    4  A    between atoms: C_7  and  O_6 
REMARK    5  A    between atoms: C_9  and  C_10 
REMARK    6  A    between atoms: N_15  and  C_14 
REMARK    7  A    between atoms: N_20  and  C_19 
REMARK       I    between atoms: C_22  and  N_20 
ROOT
ATOM      1  C   LIG d   1      -1.794  92.153 118.353  0.00  0.00     0.161 C 
ATOM      2  C   LIG d   1      -0.402  92.010 118.235  0.00  0.00     0.016 C 
ATOM      3  C   LIG d   1       0.508  93.077 118.415  0.00  0.00     0.038 C 
ATOM      4  C   LIG d   1       0.093  94.335 118.877  0.00  0.00     0.028 C 
ATOM      5  C   LIG d   1      -1.353  94.664 118.521  0.00  0.00    -0.047 C 
ATOM      6  C   LIG d   1      -2.258  93.492 118.964  0.00  0.00     0.091 C 
ENDROOT
BRANCH   1   7
ATOM      7  O   LIG d   1      -2.338  91.046 119.099  0.00  0.00    -0.368 OA
BRANCH   7   8
ATOM      8  C   LIG d   1      -3.151  90.110 118.350  0.00  0.00     0.119 C 
BRANCH   8   9
ATOM      9  C   LIG d   1      -2.234  88.953 117.907  0.00  0.00     0.028 C 
ATOM     10  C   LIG d   1      -1.665  88.165 119.099  0.00  0.00     0.006 C 
ENDBRANCH   8   9
BRANCH   8  11
ATOM     11  C   LIG d   1      -3.669  90.736 117.052  0.00  0.00     0.028 C 
ATOM     12  C   LIG d   1      -4.942  90.053 116.527  0.00  0.00     0.006 C 
ENDBRANCH   8  11
ENDBRANCH   7   8
ENDBRANCH   1   7
BRANCH   6  13
ATOM     13  N   LIG d   1      -3.678  93.695 118.578  0.00  0.00    -0.311 N 
ATOM     14  C   LIG d   1      -4.604  94.168 119.411  0.00  0.00     0.210 C 
ATOM     15  C   LIG d   1      -6.011  94.281 118.817  0.00  0.00     0.109 C 
ATOM     16  O   LIG d   1      -4.386  94.536 120.575  0.00  0.00    -0.276 OA
ATOM     17  H   LIG d   1      -3.936  93.451 117.642  0.00  0.00     0.149 HD
ENDBRANCH   6  13
BRANCH   5  18
ATOM     18  N   LIG d   1      -1.695  95.939 119.180  0.00  0.00     0.381 N 
ATOM     19  H   LIG d   1      -2.073  96.576 118.508  0.00  0.00    -0.090 HD
ATOM     20  H   LIG d   1      -0.857  96.343 119.561  0.00  0.00    -0.090 HD
ATOM     21  H   LIG d   1      -2.357  95.780 119.907  0.00  0.00    -0.090 HD
ENDBRANCH   5  18
BRANCH   3  22
ATOM     22  C   LIG d   1       1.846  92.902 118.094  0.00  0.00     0.382 C 
ATOM     23  O   LIG d   1       2.172  92.103 117.183  0.00  0.00    -0.241 OA
ATOM     24  O   LIG d   1       2.732  93.498 118.733  0.00  0.00    -0.241 OA
ENDBRANCH   3  22
TORSDOF 7
ENDMDL
MODEL 9
REMARK VINA RESULT:      -4.2      4.657      7.614
REMARK  7 active torsions:
REMARK  status: ('A' for Active; 'I' for Inactive)
REMARK    1  A    between atoms: C_2  and  C_3 
REMARK    2  A    between atoms: C_3  and  O_6 
REMARK    3  A    between atoms: C_3  and  C_4 
REMARK    4  A    between atoms: C_7  and  O_6 
REMARK    5  A    between atoms: C_9  and  C_10 
REMARK    6  A    between atoms: N_15  and  C_14 
REMARK    7  A    between atoms: N_20  and  C_19 
REMARK       I    between atoms: C_22  and  N_20 
ROOT
ATOM      1  C   LIG d   1       2.904  89.509 116.454  0.00  0.00     0.161 C 
ATOM      2  C   LIG d   1       3.318  90.759 116.944  0.00  0.00     0.016 C 
ATOM      3  C   LIG d   1       2.422  91.751 117.402  0.00  0.00     0.038 C 
ATOM      4  C   LIG d   1       1.049  91.502 117.544  0.00  0.00     0.028 C 
ATOM      5  C   LIG d   1       0.526  90.434 116.590  0.00  0.00    -0.047 C 
ATOM      6  C   LIG d   1       1.418  89.177 116.705  0.00  0.00     0.091 C 
ENDROOT
BRANCH   1   7
ATOM      7  O   LIG d   1       3.747  88.470 116.990  0.00  0.00    -0.368 OA
BRANCH   7   8
ATOM      8  C   LIG d   1       4.297  87.536 116.029  0.00  0.00     0.119 C 
BRANCH   8   9
ATOM      9  C   LIG d   1       5.689  87.114 116.538  0.00  0.00     0.028 C 
ATOM     10  C   LIG d   1       5.923  87.513 118.004  0.00  0.00     0.006 C 
ENDBRANCH   8   9
BRANCH   8  11
ATOM     11  C   LIG d   1       4.547  88.210 114.677  0.00  0.00     0.028 C 
ATOM     12  C   LIG d   1       6.004  88.664 114.498  0.00  0.00     0.006 C 
ENDBRANCH   8  11
ENDBRANCH   7   8
ENDBRANCH   1   7
BRANCH   6  13
ATOM     13  N   LIG d   1       1.026  88.113 115.744  0.00  0.00    -0.311 N 
ATOM     14  C   LIG d   1       0.215  87.105 116.057  0.00  0.00     0.210 C 
ATOM     15  C   LIG d   1      -0.043  86.107 114.924  0.00  0.00     0.109 C 
ATOM     16  O   LIG d   1      -0.341  86.959 117.156  0.00  0.00    -0.276 OA
ATOM     17  H   LIG d   1       1.407  88.171 114.820  0.00  0.00     0.149 HD
ENDBRANCH   6  13
BRANCH   5  18
ATOM     18  N   LIG d   1      -0.884  90.176 116.939  0.00  0.00     0.381 N 
ATOM     19  H   LIG d   1      -1.324  89.653 116.208  0.00  0.00    -0.090 HD
ATOM     20  H   LIG d   1      -1.363  91.055 117.030  0.00  0.00    -0.090 HD
ATOM     21  H   LIG d   1      -0.936  89.670 117.796  0.00  0.00    -0.090 HD
ENDBRANCH   5  18
BRANCH   3  22
ATOM     22  C   LIG d   1       2.893  93.024 117.687  0.00  0.00     0.382 C 
ATOM     23  O   LIG d   1       3.864  93.491 117.045  0.00  0.00    -0.241 OA
ATOM     24  O   LIG d   1       2.387  93.694 118.607  0.00  0.00    -0.241 OA
ENDBRANCH   3  22
TORSDOF 7
ENDMDL
