MODEL 1
REMARK VINA RESULT:      -4.9      0.000      0.000
REMARK  7 active torsions:
REMARK  status: ('A' for Active; 'I' for Inactive)
REMARK    1  A    between atoms: C_2  and  C_3 
REMARK    2  A    between atoms: C_3  and  O_6 
REMARK    3  A    between atoms: C_3  and  C_4 
REMARK    4  A    between atoms: C_7  and  O_6 
REMARK    5  A    between atoms: C_9  and  C_10 
REMARK    6  A    between atoms: N_15  and  C_14 
REMARK    7  A    between atoms: N_20  and  C_19 
REMARK       I    between atoms: C_22  and  N_20 
ROOT
ATOM      1  C   LIG d   1      -4.707  93.241 118.994  0.00  0.00     0.161 C 
ATOM      2  C   LIG d   1      -5.688  92.822 118.079  0.00  0.00     0.016 C 
ATOM      3  C   LIG d   1      -5.423  91.946 117.001  0.00  0.00     0.038 C 
ATOM      4  C   LIG d   1      -4.184  91.305 116.853  0.00  0.00     0.028 C 
ATOM      5  C   LIG d   1      -3.022  92.086 117.458  0.00  0.00    -0.047 C 
ATOM      6  C   LIG d   1      -3.376  92.465 118.914  0.00  0.00     0.091 C 
ENDROOT
BRANCH   1   7
ATOM      7  O   LIG d   1      -5.236  93.192 120.334  0.00  0.00    -0.368 OA
BRANCH   7   8
ATOM      8  C   LIG d   1      -5.345  94.462 121.022  0.00  0.00     0.119 C 
BRANCH   8   9
ATOM      9  C   LIG d   1      -6.841  94.715 121.292  0.00  0.00     0.028 C 
ATOM     10  C   LIG d   1      -7.522  95.483 120.147  0.00  0.00     0.006 C 
ENDBRANCH   8   9
BRANCH   8  11
ATOM     11  C   LIG d   1      -4.892  95.621 120.129  0.00  0.00     0.028 C 
ATOM     12  C   LIG d   1      -3.750  96.440 120.750  0.00  0.00     0.006 C 
ENDBRANCH   8  11
ENDBRANCH   7   8
ENDBRANCH   1   7
BRANCH   6  13
ATOM     13  N   LIG d   1      -2.328  93.303 119.552  0.00  0.00    -0.311 N 
ATOM     14  C   LIG d   1      -1.640  92.925 120.628  0.00  0.00     0.210 C 
ATOM     15  C   LIG d   1      -0.620  93.948 121.137  0.00  0.00     0.109 C 
ATOM     16  O   LIG d   1      -1.756  91.826 121.191  0.00  0.00    -0.276 OA
ATOM     17  H   LIG d   1      -2.147  94.199 119.142  0.00  0.00     0.149 HD
ENDBRANCH   6  13
BRANCH   5  18
ATOM     18  N   LIG d   1      -1.817  91.243 117.355  0.00  0.00     0.381 N 
ATOM     19  H   LIG d   1      -2.041  90.386 116.889  0.00  0.00    -0.090 HD
ATOM     20  H   LIG d   1      -1.495  91.022 118.281  0.00  0.00    -0.090 HD
ATOM     21  H   LIG d   1      -1.104  91.725 116.854  0.00  0.00    -0.090 HD
ENDBRANCH   5  18
BRANCH   3  22
ATOM     22  C   LIG d   1      -6.394  91.735 116.034  0.00  0.00     0.382 C 
ATOM     23  O   LIG d   1      -7.512  91.269 116.359  0.00  0.00    -0.241 OA
ATOM     24  O   LIG d   1      -6.149  91.962 114.833  0.00  0.00    -0.241 OA
ENDBRANCH   3  22
TORSDOF 7
ENDMDL
MODEL 2
REMARK VINA RESULT:      -4.5      0.475      1.729
REMARK  7 active torsions:
REMARK  status: ('A' for Active; 'I' for Inactive)
REMARK    1  A    between atoms: C_2  and  C_3 
REMARK    2  A    between atoms: C_3  and  O_6 
REMARK    3  A    between atoms: C_3  and  C_4 
REMARK    4  A    between atoms: C_7  and  O_6 
REMARK    5  A    between atoms: C_9  and  C_10 
REMARK    6  A    between atoms: N_15  and  C_14 
REMARK    7  A    between atoms: N_20  and  C_19 
REMARK       I    between atoms: C_22  and  N_20 
ROOT
ATOM      1  C   LIG d   1      -4.868  93.303 118.829  0.00  0.00     0.161 C 
ATOM      2  C   LIG d   1      -5.835  92.864 117.909  0.00  0.00     0.016 C 
ATOM      3  C   LIG d   1      -5.569  91.919 116.892  0.00  0.00     0.038 C 
ATOM      4  C   LIG d   1      -4.349  91.230 116.821  0.00  0.00     0.028 C 
ATOM      5  C   LIG d   1      -3.179  92.006 117.417  0.00  0.00    -0.047 C 
ATOM      6  C   LIG d   1      -3.563  92.480 118.837  0.00  0.00     0.091 C 
ENDROOT
BRANCH   1   7
ATOM      7  O   LIG d   1      -5.439  93.350 120.152  0.00  0.00    -0.368 OA
BRANCH   7   8
ATOM      8  C   LIG d   1      -5.670  94.671 120.700  0.00  0.00     0.119 C 
BRANCH   8   9
ATOM      9  C   LIG d   1      -4.755  94.828 121.930  0.00  0.00     0.028 C 
ATOM     10  C   LIG d   1      -3.723  95.955 121.754  0.00  0.00     0.006 C 
ENDBRANCH   8   9
BRANCH   8  11
ATOM     11  C   LIG d   1      -7.097  94.810 121.236  0.00  0.00     0.028 C 
ATOM     12  C   LIG d   1      -8.107  95.204 120.147  0.00  0.00     0.006 C 
ENDBRANCH   8  11
ENDBRANCH   7   8
ENDBRANCH   1   7
BRANCH   6  13
ATOM     13  N   LIG d   1      -2.506  93.319 119.460  0.00  0.00    -0.311 N 
ATOM     14  C   LIG d   1      -1.776  92.926 120.501  0.00  0.00     0.210 C 
ATOM     15  C   LIG d   1      -0.754  93.952 121.000  0.00  0.00     0.109 C 
ATOM     16  O   LIG d   1      -1.855  91.811 121.040  0.00  0.00    -0.276 OA
ATOM     17  H   LIG d   1      -2.353  94.227 119.066  0.00  0.00     0.149 HD
ENDBRANCH   6  13
BRANCH   5  18
ATOM     18  N   LIG d   1      -2.001  91.118 117.402  0.00  0.00     0.381 N 
ATOM     19  H   LIG d   1      -1.548  91.172 116.512  0.00  0.00    -0.090 HD
ATOM     20  H   LIG d   1      -2.306  90.171 117.544  0.00  0.00    -0.090 HD
ATOM     21  H   LIG d   1      -1.366  91.382 118.123  0.00  0.00    -0.090 HD
ENDBRANCH   5  18
BRANCH   3  22
ATOM     22  C   LIG d   1      -6.516  91.683 115.907  0.00  0.00     0.382 C 
ATOM     23  O   LIG d   1      -6.210  91.817 114.698  0.00  0.00    -0.241 OA
ATOM     24  O   LIG d   1      -7.685  91.382 116.215  0.00  0.00    -0.241 OA
ENDBRANCH   3  22
TORSDOF 7
ENDMDL
MODEL 3
REMARK VINA RESULT:      -4.5      4.551      7.188
REMARK  7 active torsions:
REMARK  status: ('A' for Active; 'I' for Inactive)
REMARK    1  A    between atoms: C_2  and  C_3 
REMARK    2  A    between atoms: C_3  and  O_6 
REMARK    3  A    between atoms: C_3  and  C_4 
REMARK    4  A    between atoms: C_7  and  O_6 
REMARK    5  A    between atoms: C_9  and  C_10 
REMARK    6  A    between atoms: N_15  and  C_14 
REMARK    7  A    between atoms: N_20  and  C_19 
REMARK       I    between atoms: C_22  and  N_20 
ROOT
ATOM      1  C   LIG d   1       1.802  91.853 118.783  0.00  0.00     0.161 C 
ATOM      2  C   LIG d   1       2.509  91.329 117.687  0.00  0.00     0.016 C 
ATOM      3  C   LIG d   1       1.885  90.893 116.496  0.00  0.00     0.038 C 
ATOM      4  C   LIG d   1       0.516  91.092 116.260  0.00  0.00     0.028 C 
ATOM      5  C   LIG d   1      -0.316  91.154 117.536  0.00  0.00    -0.047 C 
ATOM      6  C   LIG d   1       0.321  92.180 118.501  0.00  0.00     0.091 C 
ENDROOT
BRANCH   1   7
ATOM      7  O   LIG d   1       2.484  93.015 119.294  0.00  0.00    -0.368 OA
BRANCH   7   8
ATOM      8  C   LIG d   1       3.412  92.784 120.382  0.00  0.00     0.119 C 
BRANCH   8   9
ATOM      9  C   LIG d   1       3.035  93.745 121.525  0.00  0.00     0.028 C 
ATOM     10  C   LIG d   1       1.923  94.729 121.122  0.00  0.00     0.006 C 
ENDBRANCH   8   9
BRANCH   8  11
ATOM     11  C   LIG d   1       4.842  93.166 119.986  0.00  0.00     0.028 C 
ATOM     12  C   LIG d   1       4.895  94.056 118.734  0.00  0.00     0.006 C 
ENDBRANCH   8  11
ENDBRANCH   7   8
ENDBRANCH   1   7
BRANCH   6  13
ATOM     13  N   LIG d   1      -0.383  92.242 119.808  0.00  0.00    -0.311 N 
ATOM     14  C   LIG d   1      -1.411  93.053 120.050  0.00  0.00     0.210 C 
ATOM     15  C   LIG d   1      -1.978  92.973 121.471  0.00  0.00     0.109 C 
ATOM     16  O   LIG d   1      -1.928  93.809 119.213  0.00  0.00    -0.276 OA
ATOM     17  H   LIG d   1      -0.049  91.640 120.535  0.00  0.00     0.149 HD
ENDBRANCH   6  13
BRANCH   5  18
ATOM     18  N   LIG d   1      -1.697  91.502 117.151  0.00  0.00     0.381 N 
ATOM     19  H   LIG d   1      -1.683  92.190 116.426  0.00  0.00    -0.090 HD
ATOM     20  H   LIG d   1      -2.167  91.893 117.948  0.00  0.00    -0.090 HD
ATOM     21  H   LIG d   1      -2.179  90.688 116.838  0.00  0.00    -0.090 HD
ENDBRANCH   5  18
BRANCH   3  22
ATOM     22  C   LIG d   1       2.626  90.213 115.541  0.00  0.00     0.382 C 
ATOM     23  O   LIG d   1       3.862  90.407 115.453  0.00  0.00    -0.241 OA
ATOM     24  O   LIG d   1       2.067  89.442 114.739  0.00  0.00    -0.241 OA
ENDBRANCH   3  22
TORSDOF 7
ENDMDL
MODEL 4
REMARK VINA RESULT:      -4.3      5.258      7.959
REMARK  7 active torsions:
REMARK  status: ('A' for Active; 'I' for Inactive)
REMARK    1  A    between atoms: C_2  and  C_3 
REMARK    2  A    between atoms: C_3  and  O_6 
REMARK    3  A    between atoms: C_3  and  C_4 
REMARK    4  A    between atoms: C_7  and  O_6 
REMARK    5  A    between atoms: C_9  and  C_10 
REMARK    6  A    between atoms: N_15  and  C_14 
REMARK    7  A    between atoms: N_20  and  C_19 
REMARK       I    between atoms: C_22  and  N_20 
ROOT
ATOM      1  C   LIG d   1       2.085  91.157 118.696  0.00  0.00     0.161 C 
ATOM      2  C   LIG d   1       2.647  90.600 117.536  0.00  0.00     0.016 C 
ATOM      3  C   LIG d   1       1.941  90.457 116.320  0.00  0.00     0.038 C 
ATOM      4  C   LIG d   1       0.662  91.005 116.136  0.00  0.00     0.028 C 
ATOM      5  C   LIG d   1      -0.135  91.128 117.430  0.00  0.00    -0.047 C 
ATOM      6  C   LIG d   1       0.728  91.861 118.483  0.00  0.00     0.091 C 
ENDROOT
BRANCH   1   7
ATOM      7  O   LIG d   1       3.026  92.059 119.311  0.00  0.00    -0.368 OA
BRANCH   7   8
ATOM      8  C   LIG d   1       4.202  92.383 118.530  0.00  0.00     0.119 C 
BRANCH   8   9
ATOM      9  C   LIG d   1       5.435  91.957 119.350  0.00  0.00     0.028 C 
ATOM     10  C   LIG d   1       6.131  90.718 118.763  0.00  0.00     0.006 C 
ENDBRANCH   8   9
BRANCH   8  11
ATOM     11  C   LIG d   1       4.344  93.896 118.339  0.00  0.00     0.028 C 
ATOM     12  C   LIG d   1       5.516  94.489 119.137  0.00  0.00     0.006 C 
ENDBRANCH   8  11
ENDBRANCH   7   8
ENDBRANCH   1   7
BRANCH   6  13
ATOM     13  N   LIG d   1       0.055  91.949 119.806  0.00  0.00    -0.311 N 
ATOM     14  C   LIG d   1      -0.869  92.863 120.098  0.00  0.00     0.210 C 
ATOM     15  C   LIG d   1      -1.421  92.790 121.525  0.00  0.00     0.109 C 
ATOM     16  O   LIG d   1      -1.307  93.706 119.301  0.00  0.00    -0.276 OA
ATOM     17  H   LIG d   1       0.327  91.283 120.502  0.00  0.00     0.149 HD
ENDBRANCH   6  13
BRANCH   5  18
ATOM     18  N   LIG d   1      -1.389  91.838 117.115  0.00  0.00     0.381 N 
ATOM     19  H   LIG d   1      -1.930  91.956 117.948  0.00  0.00    -0.090 HD
ATOM     20  H   LIG d   1      -1.922  91.285 116.468  0.00  0.00    -0.090 HD
ATOM     21  H   LIG d   1      -1.186  92.728 116.715  0.00  0.00    -0.090 HD
ENDBRANCH   5  18
BRANCH   3  22
ATOM     22  C   LIG d   1       2.499  89.726 115.282  0.00  0.00     0.382 C 
ATOM     23  O   LIG d   1       3.404  90.230 114.576  0.00  0.00    -0.241 OA
ATOM     24  O   LIG d   1       2.078  88.584 115.017  0.00  0.00    -0.241 OA
ENDBRANCH   3  22
TORSDOF 7
ENDMDL
MODEL 5
REMARK VINA RESULT:      -4.3      6.939      9.728
REMARK  7 active torsions:
REMARK  status: ('A' for Active; 'I' for Inactive)
REMARK    1  A    between atoms: C_2  and  C_3 
REMARK    2  A    between atoms: C_3  and  O_6 
REMARK    3  A    between atoms: C_3  and  C_4 
REMARK    4  A    between atoms: C_7  and  O_6 
REMARK    5  A    between atoms: C_9  and  C_10 
REMARK    6  A    between atoms: N_15  and  C_14 
REMARK    7  A    between atoms: N_20  and  C_19 
REMARK       I    between atoms: C_22  and  N_20 
ROOT
ATOM      1  C   LIG d   1       2.196  89.706 115.564  0.00  0.00     0.161 C 
ATOM      2  C   LIG d   1       3.512  89.286 115.311  0.00  0.00     0.016 C 
ATOM      3  C   LIG d   1       4.637  89.789 116.004  0.00  0.00     0.038 C 
ATOM      4  C   LIG d   1       4.506  90.642 117.110  0.00  0.00     0.028 C 
ATOM      5  C   LIG d   1       3.235  91.484 117.078  0.00  0.00    -0.047 C 
ATOM      6  C   LIG d   1       2.023  90.553 116.842  0.00  0.00     0.091 C 
ENDROOT
BRANCH   1   7
ATOM      7  O   LIG d   1       1.317  88.565 115.596  0.00  0.00    -0.368 OA
BRANCH   7   8
ATOM      8  C   LIG d   1       1.956  87.271 115.724  0.00  0.00     0.119 C 
BRANCH   8   9
ATOM      9  C   LIG d   1       1.321  86.336 114.677  0.00  0.00     0.028 C 
ATOM     10  C   LIG d   1       0.033  85.669 115.188  0.00  0.00     0.006 C 
ENDBRANCH   8   9
BRANCH   8  11
ATOM     11  C   LIG d   1       1.648  86.629 117.080  0.00  0.00     0.028 C 
ATOM     12  C   LIG d   1       2.542  87.164 118.210  0.00  0.00     0.006 C 
ENDBRANCH   8  11
ENDBRANCH   7   8
ENDBRANCH   1   7
BRANCH   6  13
ATOM     13  N   LIG d   1       0.747  91.306 116.713  0.00  0.00    -0.311 N 
ATOM     14  C   LIG d   1      -0.004  91.658 117.754  0.00  0.00     0.210 C 
ATOM     15  C   LIG d   1      -1.290  92.411 117.399  0.00  0.00     0.109 C 
ATOM     16  O   LIG d   1       0.288  91.448 118.941  0.00  0.00    -0.276 OA
ATOM     17  H   LIG d   1       0.451  91.545 115.787  0.00  0.00     0.149 HD
ENDBRANCH   6  13
BRANCH   5  18
ATOM     18  N   LIG d   1       3.157  92.222 118.352  0.00  0.00     0.381 N 
ATOM     19  H   LIG d   1       3.761  91.798 119.027  0.00  0.00    -0.090 HD
ATOM     20  H   LIG d   1       2.215  92.175 118.698  0.00  0.00    -0.090 HD
ATOM     21  H   LIG d   1       3.420  93.173 118.212  0.00  0.00    -0.090 HD
ENDBRANCH   5  18
BRANCH   3  22
ATOM     22  C   LIG d   1       5.914  89.469 115.567  0.00  0.00     0.382 C 
ATOM     23  O   LIG d   1       6.904  89.703 116.300  0.00  0.00    -0.241 OA
ATOM     24  O   LIG d   1       6.091  88.992 114.430  0.00  0.00    -0.241 OA
ENDBRANCH   3  22
TORSDOF 7
ENDMDL
MODEL 6
REMARK VINA RESULT:      -4.1      5.719      8.269
REMARK  7 active torsions:
REMARK  status: ('A' for Active; 'I' for Inactive)
REMARK    1  A    between atoms: C_2  and  C_3 
REMARK    2  A    between atoms: C_3  and  O_6 
REMARK    3  A    between atoms: C_3  and  C_4 
REMARK    4  A    between atoms: C_7  and  O_6 
REMARK    5  A    between atoms: C_9  and  C_10 
REMARK    6  A    between atoms: N_15  and  C_14 
REMARK    7  A    between atoms: N_20  and  C_19 
REMARK       I    between atoms: C_22  and  N_20 
ROOT
ATOM      1  C   LIG d   1       1.745  90.803 117.204  0.00  0.00     0.161 C 
ATOM      2  C   LIG d   1       0.419  91.244 117.057  0.00  0.00     0.016 C 
ATOM      3  C   LIG d   1      -0.227  92.091 117.987  0.00  0.00     0.038 C 
ATOM      4  C   LIG d   1       0.463  92.680 119.057  0.00  0.00     0.028 C 
ATOM      5  C   LIG d   1       1.662  91.864 119.528  0.00  0.00    -0.047 C 
ATOM      6  C   LIG d   1       2.548  91.525 118.307  0.00  0.00     0.091 C 
ENDROOT
BRANCH   1   7
ATOM      7  O   LIG d   1       2.434  90.896 115.941  0.00  0.00    -0.368 OA
BRANCH   7   8
ATOM      8  C   LIG d   1       2.535  89.668 115.179  0.00  0.00     0.119 C 
BRANCH   8   9
ATOM      9  C   LIG d   1       2.489  88.497 116.180  0.00  0.00     0.028 C 
ATOM     10  C   LIG d   1       1.780  87.260 115.603  0.00  0.00     0.006 C 
ENDBRANCH   8   9
BRANCH   8  11
ATOM     11  C   LIG d   1       3.896  89.554 114.485  0.00  0.00     0.028 C 
ATOM     12  C   LIG d   1       5.066  89.472 115.478  0.00  0.00     0.006 C 
ENDBRANCH   8  11
ENDBRANCH   7   8
ENDBRANCH   1   7
BRANCH   6  13
ATOM     13  N   LIG d   1       3.699  90.656 118.666  0.00  0.00    -0.311 N 
ATOM     14  C   LIG d   1       4.921  91.125 118.916  0.00  0.00     0.210 C 
ATOM     15  C   LIG d   1       5.968  90.056 119.247  0.00  0.00     0.109 C 
ATOM     16  O   LIG d   1       5.229  92.326 118.926  0.00  0.00    -0.276 OA
ATOM     17  H   LIG d   1       3.530  89.670 118.711  0.00  0.00     0.149 HD
ENDBRANCH   6  13
BRANCH   5  18
ATOM     18  N   LIG d   1       2.367  92.657 120.551  0.00  0.00     0.381 N 
ATOM     19  H   LIG d   1       2.453  93.606 120.245  0.00  0.00    -0.090 HD
ATOM     20  H   LIG d   1       3.291  92.281 120.675  0.00  0.00    -0.090 HD
ATOM     21  H   LIG d   1       1.869  92.622 121.413  0.00  0.00    -0.090 HD
ENDBRANCH   5  18
BRANCH   3  22
ATOM     22  C   LIG d   1      -1.589  92.324 117.873  0.00  0.00     0.382 C 
ATOM     23  O   LIG d   1      -2.009  93.481 117.631  0.00  0.00    -0.241 OA
ATOM     24  O   LIG d   1      -2.405  91.400 118.053  0.00  0.00    -0.241 OA
ENDBRANCH   3  22
TORSDOF 7
ENDMDL
MODEL 7
REMARK VINA RESULT:      -4.0      5.348      8.759
REMARK  7 active torsions:
REMARK  status: ('A' for Active; 'I' for Inactive)
REMARK    1  A    between atoms: C_2  and  C_3 
REMARK    2  A    between atoms: C_3  and  O_6 
REMARK    3  A    between atoms: C_3  and  C_4 
REMARK    4  A    between atoms: C_7  and  O_6 
REMARK    5  A    between atoms: C_9  and  C_10 
REMARK    6  A    between atoms: N_15  and  C_14 
REMARK    7  A    between atoms: N_20  and  C_19 
REMARK       I    between atoms: C_22  and  N_20 
ROOT
ATOM      1  C   LIG d   1       2.617  91.501 118.782  0.00  0.00     0.161 C 
ATOM      2  C   LIG d   1       1.989  92.262 119.782  0.00  0.00     0.016 C 
ATOM      3  C   LIG d   1       0.660  92.733 119.682  0.00  0.00     0.038 C 
ATOM      4  C   LIG d   1      -0.188  92.345 118.634  0.00  0.00     0.028 C 
ATOM      5  C   LIG d   1       0.558  91.993 117.351  0.00  0.00    -0.047 C 
ATOM      6  C   LIG d   1       1.672  90.974 117.682  0.00  0.00     0.091 C 
ENDROOT
BRANCH   1   7
ATOM      7  O   LIG d   1       3.345  90.411 119.382  0.00  0.00    -0.368 OA
BRANCH   7   8
ATOM      8  C   LIG d   1       4.788  90.469 119.268  0.00  0.00     0.119 C 
BRANCH   8   9
ATOM      9  C   LIG d   1       5.143  91.782 118.543  0.00  0.00     0.028 C 
ATOM     10  C   LIG d   1       5.989  92.724 119.415  0.00  0.00     0.006 C 
ENDBRANCH   8   9
BRANCH   8  11
ATOM     11  C   LIG d   1       5.322  89.352 118.368  0.00  0.00     0.028 C 
ATOM     12  C   LIG d   1       6.001  89.884 117.096  0.00  0.00     0.006 C 
ENDBRANCH   8  11
ENDBRANCH   7   8
ENDBRANCH   1   7
BRANCH   6  13
ATOM     13  N   LIG d   1       2.505  90.639 116.497  0.00  0.00    -0.311 N 
ATOM     14  C   LIG d   1       2.265  89.597 115.703  0.00  0.00     0.210 C 
ATOM     15  C   LIG d   1       3.257  89.422 114.549  0.00  0.00     0.109 C 
ATOM     16  O   LIG d   1       1.307  88.819 115.827  0.00  0.00    -0.276 OA
ATOM     17  H   LIG d   1       3.285  91.236 116.305  0.00  0.00     0.149 HD
ENDBRANCH   6  13
BRANCH   5  18
ATOM     18  N   LIG d   1      -0.432  91.474 116.388  0.00  0.00     0.381 N 
ATOM     19  H   LIG d   1      -0.336  91.951 115.514  0.00  0.00    -0.090 HD
ATOM     20  H   LIG d   1      -1.355  91.652 116.744  0.00  0.00    -0.090 HD
ATOM     21  H   LIG d   1      -0.301  90.496 116.258  0.00  0.00    -0.090 HD
ENDBRANCH   5  18
BRANCH   3  22
ATOM     22  C   LIG d   1       0.178  93.636 120.618  0.00  0.00     0.382 C 
ATOM     23  O   LIG d   1       0.872  93.928 121.622  0.00  0.00    -0.241 OA
ATOM     24  O   LIG d   1      -0.959  94.127 120.495  0.00  0.00    -0.241 OA
ENDBRANCH   3  22
TORSDOF 7
ENDMDL
MODEL 8
REMARK VINA RESULT:      -4.0      5.618      9.279
REMARK  7 active torsions:
REMARK  status: ('A' for Active; 'I' for Inactive)
REMARK    1  A    between atoms: C_2  and  C_3 
REMARK    2  A    between atoms: C_3  and  O_6 
REMARK    3  A    between atoms: C_3  and  C_4 
REMARK    4  A    between atoms: C_7  and  O_6 
REMARK    5  A    between atoms: C_9  and  C_10 
REMARK    6  A    between atoms: N_15  and  C_14 
REMARK    7  A    between atoms: N_20  and  C_19 
REMARK       I    between atoms: C_22  and  N_20 
ROOT
ATOM      1  C   LIG d   1       2.114  92.165 117.155  0.00  0.00     0.161 C 
ATOM      2  C   LIG d   1       3.293  92.866 117.458  0.00  0.00     0.016 C 
ATOM      3  C   LIG d   1       3.724  93.128 118.778  0.00  0.00     0.038 C 
ATOM      4  C   LIG d   1       3.079  92.573 119.893  0.00  0.00     0.028 C 
ATOM      5  C   LIG d   1       1.601  92.282 119.655  0.00  0.00    -0.047 C 
ATOM      6  C   LIG d   1       1.456  91.455 118.357  0.00  0.00     0.091 C 
ENDROOT
BRANCH   1   7
ATOM      7  O   LIG d   1       2.364  91.222 116.093  0.00  0.00    -0.368 OA
BRANCH   7   8
ATOM      8  C   LIG d   1       2.917  89.944 116.493  0.00  0.00     0.119 C 
BRANCH   8   9
ATOM      9  C   LIG d   1       4.305  89.814 115.836  0.00  0.00     0.028 C 
ATOM     10  C   LIG d   1       5.447  89.844 116.865  0.00  0.00     0.006 C 
ENDBRANCH   8   9
BRANCH   8  11
ATOM     11  C   LIG d   1       2.092  88.781 115.934  0.00  0.00     0.028 C 
ATOM     12  C   LIG d   1       2.764  88.098 114.732  0.00  0.00     0.006 C 
ENDBRANCH   8  11
ENDBRANCH   7   8
ENDBRANCH   1   7
BRANCH   6  13
ATOM     13  N   LIG d   1       0.035  91.198 118.005  0.00  0.00    -0.311 N 
ATOM     14  C   LIG d   1      -0.941  92.083 118.202  0.00  0.00     0.210 C 
ATOM     15  C   LIG d   1      -2.337  91.609 117.787  0.00  0.00     0.109 C 
ATOM     16  O   LIG d   1      -0.778  93.228 118.652  0.00  0.00    -0.276 OA
ATOM     17  H   LIG d   1      -0.182  90.306 117.606  0.00  0.00     0.149 HD
ENDBRANCH   6  13
BRANCH   5  18
ATOM     18  N   LIG d   1       1.088  91.580 120.847  0.00  0.00     0.381 N 
ATOM     19  H   LIG d   1       0.387  90.920 120.576  0.00  0.00    -0.090 HD
ATOM     20  H   LIG d   1       0.666  92.253 121.463  0.00  0.00    -0.090 HD
ATOM     21  H   LIG d   1       1.833  91.113 121.315  0.00  0.00    -0.090 HD
ENDBRANCH   5  18
BRANCH   3  22
ATOM     22  C   LIG d   1       4.790  93.988 118.995  0.00  0.00     0.382 C 
ATOM     23  O   LIG d   1       5.956  93.629 118.700  0.00  0.00    -0.241 OA
ATOM     24  O   LIG d   1       4.607  95.102 119.522  0.00  0.00    -0.241 OA
ENDBRANCH   3  22
TORSDOF 7
ENDMDL
MODEL 9
REMARK VINA RESULT:      -3.9      7.277      9.740
REMARK  7 active torsions:
REMARK  status: ('A' for Active; 'I' for Inactive)
REMARK    1  A    between atoms: C_2  and  C_3 
REMARK    2  A    between atoms: C_3  and  O_6 
REMARK    3  A    between atoms: C_3  and  C_4 
REMARK    4  A    between atoms: C_7  and  O_6 
REMARK    5  A    between atoms: C_9  and  C_10 
REMARK    6  A    between atoms: N_15  and  C_14 
REMARK    7  A    between atoms: N_20  and  C_19 
REMARK       I    between atoms: C_22  and  N_20 
ROOT
ATOM      1  C   LIG d   1       3.006  89.500 116.691  0.00  0.00     0.161 C 
ATOM      2  C   LIG d   1       1.756  90.141 116.707  0.00  0.00     0.016 C 
ATOM      3  C   LIG d   1       1.553  91.438 117.233  0.00  0.00     0.038 C 
ATOM      4  C   LIG d   1       2.622  92.247 117.644  0.00  0.00     0.028 C 
ATOM      5  C   LIG d   1       3.837  91.453 118.114  0.00  0.00    -0.047 C 
ATOM      6  C   LIG d   1       4.204  90.411 117.033  0.00  0.00     0.091 C 
ENDROOT
BRANCH   1   7
ATOM      7  O   LIG d   1       3.211  88.861 115.415  0.00  0.00    -0.368 OA
BRANCH   7   8
ATOM      8  C   LIG d   1       3.244  87.413 115.426  0.00  0.00     0.119 C 
BRANCH   8   9
ATOM      9  C   LIG d   1       1.959  86.916 114.734  0.00  0.00     0.028 C 
ATOM     10  C   LIG d   1       0.883  86.476 115.741  0.00  0.00     0.006 C 
ENDBRANCH   8   9
BRANCH   8  11
ATOM     11  C   LIG d   1       3.173  86.864 116.854  0.00  0.00     0.028 C 
ATOM     12  C   LIG d   1       4.383  85.989 117.217  0.00  0.00     0.006 C 
ENDBRANCH   8  11
ENDBRANCH   7   8
ENDBRANCH   1   7
BRANCH   6  13
ATOM     13  N   LIG d   1       5.330  89.535 117.449  0.00  0.00    -0.311 N 
ATOM     14  C   LIG d   1       6.342  89.211 116.646  0.00  0.00     0.210 C 
ATOM     15  C   LIG d   1       7.388  88.280 117.268  0.00  0.00     0.109 C 
ATOM     16  O   LIG d   1       6.489  89.631 115.489  0.00  0.00    -0.276 OA
ATOM     17  H   LIG d   1       5.307  89.175 118.383  0.00  0.00     0.149 HD
ENDBRANCH   6  13
BRANCH   5  18
ATOM     18  N   LIG d   1       4.922  92.416 118.381  0.00  0.00     0.381 N 
ATOM     19  H   LIG d   1       4.701  93.299 117.967  0.00  0.00    -0.090 HD
ATOM     20  H   LIG d   1       5.770  92.075 117.962  0.00  0.00    -0.090 HD
ATOM     21  H   LIG d   1       5.049  92.524 119.363  0.00  0.00    -0.090 HD
ENDBRANCH   5  18
BRANCH   3  22
ATOM     22  C   LIG d   1       0.263  91.922 117.389  0.00  0.00     0.382 C 
ATOM     23  O   LIG d   1      -0.149  92.856 116.660  0.00  0.00    -0.241 OA
ATOM     24  O   LIG d   1      -0.479  91.466 118.280  0.00  0.00    -0.241 OA
ENDBRANCH   3  22
TORSDOF 7
ENDMDL
