MODEL 1
REMARK VINA RESULT:      -5.9      0.000      0.000
REMARK  7 active torsions:
REMARK  status: ('A' for Active; 'I' for Inactive)
REMARK    1  A    between atoms: C_2  and  C_3 
REMARK    2  A    between atoms: C_3  and  O_6 
REMARK    3  A    between atoms: C_3  and  C_4 
REMARK    4  A    between atoms: C_7  and  O_6 
REMARK    5  A    between atoms: C_9  and  C_10 
REMARK    6  A    between atoms: N_15  and  C_14 
REMARK    7  A    between atoms: N_20  and  C_19 
REMARK       I    between atoms: C_22  and  N_20 
ROOT
ATOM      1  C   LIG d   1      -6.569  92.070 119.196  0.00  0.00     0.161 C 
ATOM      2  C   LIG d   1      -6.414  91.320 118.018  0.00  0.00     0.016 C 
ATOM      3  C   LIG d   1      -6.827  91.776 116.745  0.00  0.00     0.038 C 
ATOM      4  C   LIG d   1      -7.287  93.085 116.540  0.00  0.00     0.028 C 
ATOM      5  C   LIG d   1      -7.931  93.702 117.778  0.00  0.00    -0.047 C 
ATOM      6  C   LIG d   1      -6.967  93.544 118.976  0.00  0.00     0.091 C 
ENDROOT
BRANCH   1   7
ATOM      7  O   LIG d   1      -5.368  91.988 119.988  0.00  0.00    -0.368 OA
BRANCH   7   8
ATOM      8  C   LIG d   1      -4.146  91.697 119.266  0.00  0.00     0.119 C 
BRANCH   8   9
ATOM      9  C   LIG d   1      -3.363  90.652 120.083  0.00  0.00     0.028 C 
ATOM     10  C   LIG d   1      -3.157  89.337 119.311  0.00  0.00     0.006 C 
ENDBRANCH   8   9
BRANCH   8  11
ATOM     11  C   LIG d   1      -3.233  92.925 119.197  0.00  0.00     0.028 C 
ATOM     12  C   LIG d   1      -2.202  92.838 118.061  0.00  0.00     0.006 C 
ENDBRANCH   8  11
ENDBRANCH   7   8
ENDBRANCH   1   7
BRANCH   6  13
ATOM     13  N   LIG d   1      -7.555  94.045 120.246  0.00  0.00    -0.311 N 
ATOM     14  C   LIG d   1      -8.862  94.042 120.500  0.00  0.00     0.210 C 
ATOM     15  C   LIG d   1      -9.258  94.622 121.862  0.00  0.00     0.109 C 
ATOM     16  O   LIG d   1      -9.729  93.583 119.741  0.00  0.00    -0.276 OA
ATOM     17  H   LIG d   1      -6.920  94.407 120.931  0.00  0.00     0.149 HD
ENDBRANCH   6  13
BRANCH   5  18
ATOM     18  N   LIG d   1      -8.240  95.110 117.465  0.00  0.00     0.381 N 
ATOM     19  H   LIG d   1      -8.272  95.237 116.473  0.00  0.00    -0.090 HD
ATOM     20  H   LIG d   1      -7.509  95.692 117.834  0.00  0.00    -0.090 HD
ATOM     21  H   LIG d   1      -9.114  95.365 117.869  0.00  0.00    -0.090 HD
ENDBRANCH   5  18
BRANCH   3  22
ATOM     22  C   LIG d   1      -6.817  90.905 115.666  0.00  0.00     0.382 C 
ATOM     23  O   LIG d   1      -7.047  89.684 115.844  0.00  0.00    -0.241 OA
ATOM     24  O   LIG d   1      -6.539  91.317 114.524  0.00  0.00    -0.241 OA
ENDBRANCH   3  22
TORSDOF 7
ENDMDL
MODEL 2
REMARK VINA RESULT:      -5.9      2.324      4.778
REMARK  7 active torsions:
REMARK  status: ('A' for Active; 'I' for Inactive)
REMARK    1  A    between atoms: C_2  and  C_3 
REMARK    2  A    between atoms: C_3  and  O_6 
REMARK    3  A    between atoms: C_3  and  C_4 
REMARK    4  A    between atoms: C_7  and  O_6 
REMARK    5  A    between atoms: C_9  and  C_10 
REMARK    6  A    between atoms: N_15  and  C_14 
REMARK    7  A    between atoms: N_20  and  C_19 
REMARK       I    between atoms: C_22  and  N_20 
ROOT
ATOM      1  C   LIG d   1      -5.545  91.604 119.226  0.00  0.00     0.161 C 
ATOM      2  C   LIG d   1      -6.824  92.100 118.924  0.00  0.00     0.016 C 
ATOM      3  C   LIG d   1      -7.129  93.479 118.861  0.00  0.00     0.038 C 
ATOM      4  C   LIG d   1      -6.133  94.463 118.947  0.00  0.00     0.028 C 
ATOM      5  C   LIG d   1      -4.915  94.023 119.753  0.00  0.00    -0.047 C 
ATOM      6  C   LIG d   1      -4.422  92.661 119.214  0.00  0.00     0.091 C 
ENDROOT
BRANCH   1   7
ATOM      7  O   LIG d   1      -5.220  90.517 118.337  0.00  0.00    -0.368 OA
BRANCH   7   8
ATOM      8  C   LIG d   1      -4.619  90.887 117.072  0.00  0.00     0.119 C 
BRANCH   8   9
ATOM      9  C   LIG d   1      -5.624  90.530 115.959  0.00  0.00     0.028 C 
ATOM     10  C   LIG d   1      -6.211  91.777 115.277  0.00  0.00     0.006 C 
ENDBRANCH   8   9
BRANCH   8  11
ATOM     11  C   LIG d   1      -3.374  90.044 116.779  0.00  0.00     0.028 C 
ATOM     12  C   LIG d   1      -2.945  89.180 117.975  0.00  0.00     0.006 C 
ENDBRANCH   8  11
ENDBRANCH   7   8
ENDBRANCH   1   7
BRANCH   6  13
ATOM     13  N   LIG d   1      -3.284  92.118 120.001  0.00  0.00    -0.311 N 
ATOM     14  C   LIG d   1      -2.009  92.280 119.654  0.00  0.00     0.210 C 
ATOM     15  C   LIG d   1      -0.994  91.622 120.595  0.00  0.00     0.109 C 
ATOM     16  O   LIG d   1      -1.620  92.933 118.674  0.00  0.00    -0.276 OA
ATOM     17  H   LIG d   1      -3.508  91.601 120.829  0.00  0.00     0.149 HD
ENDBRANCH   6  13
BRANCH   5  18
ATOM     18  N   LIG d   1      -3.901  95.089 119.646  0.00  0.00     0.381 N 
ATOM     19  H   LIG d   1      -3.622  95.384 120.561  0.00  0.00    -0.090 HD
ATOM     20  H   LIG d   1      -4.306  95.876 119.171  0.00  0.00    -0.090 HD
ATOM     21  H   LIG d   1      -3.109  94.757 119.141  0.00  0.00    -0.090 HD
ENDBRANCH   5  18
BRANCH   3  22
ATOM     22  C   LIG d   1      -8.449  93.887 118.749  0.00  0.00     0.382 C 
ATOM     23  O   LIG d   1      -9.240  93.721 119.708  0.00  0.00    -0.241 OA
ATOM     24  O   LIG d   1      -8.870  94.379 117.684  0.00  0.00    -0.241 OA
ENDBRANCH   3  22
TORSDOF 7
ENDMDL
MODEL 3
REMARK VINA RESULT:      -5.9      2.938      4.753
REMARK  7 active torsions:
REMARK  status: ('A' for Active; 'I' for Inactive)
REMARK    1  A    between atoms: C_2  and  C_3 
REMARK    2  A    between atoms: C_3  and  O_6 
REMARK    3  A    between atoms: C_3  and  C_4 
REMARK    4  A    between atoms: C_7  and  O_6 
REMARK    5  A    between atoms: C_9  and  C_10 
REMARK    6  A    between atoms: N_15  and  C_14 
REMARK    7  A    between atoms: N_20  and  C_19 
REMARK       I    between atoms: C_22  and  N_20 
ROOT
ATOM      1  C   LIG d   1      -4.921  92.267 118.131  0.00  0.00     0.161 C 
ATOM      2  C   LIG d   1      -6.091  93.046 118.134  0.00  0.00     0.016 C 
ATOM      3  C   LIG d   1      -7.094  92.946 117.143  0.00  0.00     0.038 C 
ATOM      4  C   LIG d   1      -7.067  91.947 116.158  0.00  0.00     0.028 C 
ATOM      5  C   LIG d   1      -5.660  91.469 115.818  0.00  0.00    -0.047 C 
ATOM      6  C   LIG d   1      -4.927  91.095 117.127  0.00  0.00     0.091 C 
ENDROOT
BRANCH   1   7
ATOM      7  O   LIG d   1      -4.652  91.785 119.462  0.00  0.00    -0.368 OA
BRANCH   7   8
ATOM      8  C   LIG d   1      -3.526  92.390 120.144  0.00  0.00     0.119 C 
BRANCH   8   9
ATOM      9  C   LIG d   1      -4.090  93.331 121.225  0.00  0.00     0.028 C 
ATOM     10  C   LIG d   1      -3.984  94.813 120.826  0.00  0.00     0.006 C 
ENDBRANCH   8   9
BRANCH   8  11
ATOM     11  C   LIG d   1      -2.722  93.290 119.201  0.00  0.00     0.028 C 
ATOM     12  C   LIG d   1      -1.277  92.807 119.004  0.00  0.00     0.006 C 
ENDBRANCH   8  11
ENDBRANCH   7   8
ENDBRANCH   1   7
BRANCH   6  13
ATOM     13  N   LIG d   1      -3.515  90.697 116.892  0.00  0.00    -0.311 N 
ATOM     14  C   LIG d   1      -2.908  89.717 117.561  0.00  0.00     0.210 C 
ATOM     15  C   LIG d   1      -1.444  89.483 117.177  0.00  0.00     0.109 C 
ATOM     16  O   LIG d   1      -3.454  88.999 118.412  0.00  0.00    -0.276 OA
ATOM     17  H   LIG d   1      -3.007  91.207 116.196  0.00  0.00     0.149 HD
ENDBRANCH   6  13
BRANCH   5  18
ATOM     18  N   LIG d   1      -5.787  90.336 114.883  0.00  0.00     0.381 N 
ATOM     19  H   LIG d   1      -4.885  89.946 114.698  0.00  0.00    -0.090 HD
ATOM     20  H   LIG d   1      -6.170  90.671 114.016  0.00  0.00    -0.090 HD
ATOM     21  H   LIG d   1      -6.385  89.639 115.271  0.00  0.00    -0.090 HD
ENDBRANCH   5  18
BRANCH   3  22
ATOM     22  C   LIG d   1      -8.120  93.878 117.107  0.00  0.00     0.382 C 
ATOM     23  O   LIG d   1      -8.274  94.677 118.062  0.00  0.00    -0.241 OA
ATOM     24  O   LIG d   1      -8.920  93.901 116.153  0.00  0.00    -0.241 OA
ENDBRANCH   3  22
TORSDOF 7
ENDMDL
MODEL 4
REMARK VINA RESULT:      -5.9      1.896      4.580
REMARK  7 active torsions:
REMARK  status: ('A' for Active; 'I' for Inactive)
REMARK    1  A    between atoms: C_2  and  C_3 
REMARK    2  A    between atoms: C_3  and  O_6 
REMARK    3  A    between atoms: C_3  and  C_4 
REMARK    4  A    between atoms: C_7  and  O_6 
REMARK    5  A    between atoms: C_9  and  C_10 
REMARK    6  A    between atoms: N_15  and  C_14 
REMARK    7  A    between atoms: N_20  and  C_19 
REMARK       I    between atoms: C_22  and  N_20 
ROOT
ATOM      1  C   LIG d   1      -5.674  92.692 118.806  0.00  0.00     0.161 C 
ATOM      2  C   LIG d   1      -6.157  93.769 119.568  0.00  0.00     0.016 C 
ATOM      3  C   LIG d   1      -7.267  94.557 119.185  0.00  0.00     0.038 C 
ATOM      4  C   LIG d   1      -8.068  94.224 118.082  0.00  0.00     0.028 C 
ATOM      5  C   LIG d   1      -7.320  93.448 117.003  0.00  0.00    -0.047 C 
ATOM      6  C   LIG d   1      -6.602  92.245 117.657  0.00  0.00     0.091 C 
ENDROOT
BRANCH   1   7
ATOM      7  O   LIG d   1      -5.374  91.578 119.669  0.00  0.00    -0.368 OA
BRANCH   7   8
ATOM      8  C   LIG d   1      -3.974  91.367 119.974  0.00  0.00     0.119 C 
BRANCH   8   9
ATOM      9  C   LIG d   1      -3.150  92.142 118.928  0.00  0.00     0.028 C 
ATOM     10  C   LIG d   1      -2.018  92.966 119.565  0.00  0.00     0.006 C 
ENDBRANCH   8   9
BRANCH   8  11
ATOM     11  C   LIG d   1      -3.579  89.898 119.793  0.00  0.00     0.028 C 
ATOM     12  C   LIG d   1      -3.137  89.572 118.358  0.00  0.00     0.006 C 
ENDBRANCH   8  11
ENDBRANCH   7   8
ENDBRANCH   1   7
BRANCH   6  13
ATOM     13  N   LIG d   1      -5.779  91.480 116.685  0.00  0.00    -0.311 N 
ATOM     14  C   LIG d   1      -6.177  90.340 116.124  0.00  0.00     0.210 C 
ATOM     15  C   LIG d   1      -5.166  89.704 115.164  0.00  0.00     0.109 C 
ATOM     16  O   LIG d   1      -7.284  89.811 116.305  0.00  0.00    -0.276 OA
ATOM     17  H   LIG d   1      -4.878  91.854 116.456  0.00  0.00     0.149 HD
ENDBRANCH   6  13
BRANCH   5  18
ATOM     18  N   LIG d   1      -8.304  93.048 115.980  0.00  0.00     0.381 N 
ATOM     19  H   LIG d   1      -8.024  92.184 115.560  0.00  0.00    -0.090 HD
ATOM     20  H   LIG d   1      -8.333  93.752 115.263  0.00  0.00    -0.090 HD
ATOM     21  H   LIG d   1      -9.205  92.948 116.393  0.00  0.00    -0.090 HD
ENDBRANCH   5  18
BRANCH   3  22
ATOM     22  C   LIG d   1      -7.562  95.716 119.887  0.00  0.00     0.382 C 
ATOM     23  O   LIG d   1      -7.670  95.681 121.137  0.00  0.00    -0.241 OA
ATOM     24  O   LIG d   1      -7.764  96.786 119.284  0.00  0.00    -0.241 OA
ENDBRANCH   3  22
TORSDOF 7
ENDMDL
MODEL 5
REMARK VINA RESULT:      -5.8      2.556      5.035
REMARK  7 active torsions:
REMARK  status: ('A' for Active; 'I' for Inactive)
REMARK    1  A    between atoms: C_2  and  C_3 
REMARK    2  A    between atoms: C_3  and  O_6 
REMARK    3  A    between atoms: C_3  and  C_4 
REMARK    4  A    between atoms: C_7  and  O_6 
REMARK    5  A    between atoms: C_9  and  C_10 
REMARK    6  A    between atoms: N_15  and  C_14 
REMARK    7  A    between atoms: N_20  and  C_19 
REMARK       I    between atoms: C_22  and  N_20 
ROOT
ATOM      1  C   LIG d   1      -3.829  91.617 117.391  0.00  0.00     0.161 C 
ATOM      2  C   LIG d   1      -3.153  92.229 118.460  0.00  0.00     0.016 C 
ATOM      3  C   LIG d   1      -3.813  92.801 119.572  0.00  0.00     0.038 C 
ATOM      4  C   LIG d   1      -5.196  92.665 119.764  0.00  0.00     0.028 C 
ATOM      5  C   LIG d   1      -5.975  92.497 118.464  0.00  0.00    -0.047 C 
ATOM      6  C   LIG d   1      -5.331  91.361 117.637  0.00  0.00     0.091 C 
ENDROOT
BRANCH   1   7
ATOM      7  O   LIG d   1      -3.164  90.390 117.031  0.00  0.00    -0.368 OA
BRANCH   7   8
ATOM      8  C   LIG d   1      -2.156  89.916 117.957  0.00  0.00     0.119 C 
BRANCH   8   9
ATOM      9  C   LIG d   1      -0.895  89.579 117.137  0.00  0.00     0.028 C 
ATOM     10  C   LIG d   1      -0.530  88.087 117.209  0.00  0.00     0.006 C 
ENDBRANCH   8   9
BRANCH   8  11
ATOM     11  C   LIG d   1      -2.578  88.597 118.612  0.00  0.00     0.028 C 
ATOM     12  C   LIG d   1      -3.166  88.793 120.019  0.00  0.00     0.006 C 
ENDBRANCH   8  11
ENDBRANCH   7   8
ENDBRANCH   1   7
BRANCH   6  13
ATOM     13  N   LIG d   1      -5.980  91.187 116.311  0.00  0.00    -0.311 N 
ATOM     14  C   LIG d   1      -7.059  90.431 116.117  0.00  0.00     0.210 C 
ATOM     15  C   LIG d   1      -7.556  90.372 114.669  0.00  0.00     0.109 C 
ATOM     16  O   LIG d   1      -7.671  89.828 117.012  0.00  0.00    -0.276 OA
ATOM     17  H   LIG d   1      -5.567  91.665 115.535  0.00  0.00     0.149 HD
ENDBRANCH   6  13
BRANCH   5  18
ATOM     18  N   LIG d   1      -7.381  92.228 118.818  0.00  0.00     0.381 N 
ATOM     19  H   LIG d   1      -7.592  92.640 119.705  0.00  0.00    -0.090 HD
ATOM     20  H   LIG d   1      -7.514  91.235 118.893  0.00  0.00    -0.090 HD
ATOM     21  H   LIG d   1      -7.986  92.600 118.119  0.00  0.00    -0.090 HD
ENDBRANCH   5  18
BRANCH   3  22
ATOM     22  C   LIG d   1      -3.092  93.553 120.487  0.00  0.00     0.382 C 
ATOM     23  O   LIG d   1      -3.584  94.606 120.959  0.00  0.00    -0.241 OA
ATOM     24  O   LIG d   1      -1.938  93.215 120.813  0.00  0.00    -0.241 OA
ENDBRANCH   3  22
TORSDOF 7
ENDMDL
MODEL 6
REMARK VINA RESULT:      -5.8      2.310      4.702
REMARK  7 active torsions:
REMARK  status: ('A' for Active; 'I' for Inactive)
REMARK    1  A    between atoms: C_2  and  C_3 
REMARK    2  A    between atoms: C_3  and  O_6 
REMARK    3  A    between atoms: C_3  and  C_4 
REMARK    4  A    between atoms: C_7  and  O_6 
REMARK    5  A    between atoms: C_9  and  C_10 
REMARK    6  A    between atoms: N_15  and  C_14 
REMARK    7  A    between atoms: N_20  and  C_19 
REMARK       I    between atoms: C_22  and  N_20 
ROOT
ATOM      1  C   LIG d   1      -6.041  92.792 118.455  0.00  0.00     0.161 C 
ATOM      2  C   LIG d   1      -6.856  91.920 117.713  0.00  0.00     0.016 C 
ATOM      3  C   LIG d   1      -6.346  90.895 116.884  0.00  0.00     0.038 C 
ATOM      4  C   LIG d   1      -4.981  90.572 116.858  0.00  0.00     0.028 C 
ATOM      5  C   LIG d   1      -4.074  91.749 117.201  0.00  0.00    -0.047 C 
ATOM      6  C   LIG d   1      -4.554  92.384 118.526  0.00  0.00     0.091 C 
ENDROOT
BRANCH   1   7
ATOM      7  O   LIG d   1      -6.580  92.955 119.781  0.00  0.00    -0.368 OA
BRANCH   7   8
ATOM      8  C   LIG d   1      -7.194  94.235 120.068  0.00  0.00     0.119 C 
BRANCH   8   9
ATOM      9  C   LIG d   1      -8.720  94.024 120.084  0.00  0.00     0.028 C 
ATOM     10  C   LIG d   1      -9.340  94.328 121.458  0.00  0.00     0.006 C 
ENDBRANCH   8   9
BRANCH   8  11
ATOM     11  C   LIG d   1      -6.936  95.241 118.942  0.00  0.00     0.028 C 
ATOM     12  C   LIG d   1      -6.074  96.432 119.392  0.00  0.00     0.006 C 
ENDBRANCH   8  11
ENDBRANCH   7   8
ENDBRANCH   1   7
BRANCH   6  13
ATOM     13  N   LIG d   1      -3.773  93.595 118.890  0.00  0.00    -0.311 N 
ATOM     14  C   LIG d   1      -2.718  93.569 119.703  0.00  0.00     0.210 C 
ATOM     15  C   LIG d   1      -2.069  94.932 119.963  0.00  0.00     0.109 C 
ATOM     16  O   LIG d   1      -2.239  92.542 120.207  0.00  0.00    -0.276 OA
ATOM     17  H   LIG d   1      -4.074  94.466 118.500  0.00  0.00     0.149 HD
ENDBRANCH   6  13
BRANCH   5  18
ATOM     18  N   LIG d   1      -2.691  91.240 117.272  0.00  0.00     0.381 N 
ATOM     19  H   LIG d   1      -2.052  91.954 116.983  0.00  0.00    -0.090 HD
ATOM     20  H   LIG d   1      -2.599  90.461 116.644  0.00  0.00    -0.090 HD
ATOM     21  H   LIG d   1      -2.481  90.953 118.202  0.00  0.00    -0.090 HD
ENDBRANCH   5  18
BRANCH   3  22
ATOM     22  C   LIG d   1      -7.202  90.205 116.039  0.00  0.00     0.382 C 
ATOM     23  O   LIG d   1      -7.111  90.355 114.796  0.00  0.00    -0.241 OA
ATOM     24  O   LIG d   1      -8.092  89.469 116.504  0.00  0.00    -0.241 OA
ENDBRANCH   3  22
TORSDOF 7
ENDMDL
MODEL 7
REMARK VINA RESULT:      -5.7      2.133      4.658
REMARK  7 active torsions:
REMARK  status: ('A' for Active; 'I' for Inactive)
REMARK    1  A    between atoms: C_2  and  C_3 
REMARK    2  A    between atoms: C_3  and  O_6 
REMARK    3  A    between atoms: C_3  and  C_4 
REMARK    4  A    between atoms: C_7  and  O_6 
REMARK    5  A    between atoms: C_9  and  C_10 
REMARK    6  A    between atoms: N_15  and  C_14 
REMARK    7  A    between atoms: N_20  and  C_19 
REMARK       I    between atoms: C_22  and  N_20 
ROOT
ATOM      1  C   LIG d   1      -4.990  91.979 118.113  0.00  0.00     0.161 C 
ATOM      2  C   LIG d   1      -4.536  92.755 119.192  0.00  0.00     0.016 C 
ATOM      3  C   LIG d   1      -5.281  93.818 119.753  0.00  0.00     0.038 C 
ATOM      4  C   LIG d   1      -6.603  94.082 119.367  0.00  0.00     0.028 C 
ATOM      5  C   LIG d   1      -6.914  93.651 117.938  0.00  0.00    -0.047 C 
ATOM      6  C   LIG d   1      -6.476  92.180 117.751  0.00  0.00     0.091 C 
ENDROOT
BRANCH   1   7
ATOM      7  O   LIG d   1      -4.720  90.586 118.365  0.00  0.00    -0.368 OA
BRANCH   7   8
ATOM      8  C   LIG d   1      -3.343  90.247 118.663  0.00  0.00     0.119 C 
BRANCH   8   9
ATOM      9  C   LIG d   1      -2.745  89.588 117.405  0.00  0.00     0.028 C 
ATOM     10  C   LIG d   1      -3.759  89.497 116.252  0.00  0.00     0.006 C 
ENDBRANCH   8   9
BRANCH   8  11
ATOM     11  C   LIG d   1      -3.256  89.181 119.759  0.00  0.00     0.028 C 
ATOM     12  C   LIG d   1      -2.327  88.015 119.384  0.00  0.00     0.006 C 
ENDBRANCH   8  11
ENDBRANCH   7   8
ENDBRANCH   1   7
BRANCH   6  13
ATOM     13  N   LIG d   1      -6.668  91.704 116.356  0.00  0.00    -0.311 N 
ATOM     14  C   LIG d   1      -7.313  90.580 116.047  0.00  0.00     0.210 C 
ATOM     15  C   LIG d   1      -7.380  90.265 114.549  0.00  0.00     0.109 C 
ATOM     16  O   LIG d   1      -7.863  89.832 116.868  0.00  0.00    -0.276 OA
ATOM     17  H   LIG d   1      -6.281  92.268 115.625  0.00  0.00     0.149 HD
ENDBRANCH   6  13
BRANCH   5  18
ATOM     18  N   LIG d   1      -8.358  93.857 117.714  0.00  0.00     0.381 N 
ATOM     19  H   LIG d   1      -8.512  94.758 117.309  0.00  0.00    -0.090 HD
ATOM     20  H   LIG d   1      -8.832  93.824 118.600  0.00  0.00    -0.090 HD
ATOM     21  H   LIG d   1      -8.714  93.148 117.112  0.00  0.00    -0.090 HD
ENDBRANCH   5  18
BRANCH   3  22
ATOM     22  C   LIG d   1      -4.687  94.656 120.685  0.00  0.00     0.382 C 
ATOM     23  O   LIG d   1      -5.338  95.044 121.684  0.00  0.00    -0.241 OA
ATOM     24  O   LIG d   1      -3.522  95.065 120.515  0.00  0.00    -0.241 OA
ENDBRANCH   3  22
TORSDOF 7
ENDMDL
MODEL 8
REMARK VINA RESULT:      -5.7      2.406      4.960
REMARK  7 active torsions:
REMARK  status: ('A' for Active; 'I' for Inactive)
REMARK    1  A    between atoms: C_2  and  C_3 
REMARK    2  A    between atoms: C_3  and  O_6 
REMARK    3  A    between atoms: C_3  and  C_4 
REMARK    4  A    between atoms: C_7  and  O_6 
REMARK    5  A    between atoms: C_9  and  C_10 
REMARK    6  A    between atoms: N_15  and  C_14 
REMARK    7  A    between atoms: N_20  and  C_19 
REMARK       I    between atoms: C_22  and  N_20 
ROOT
ATOM      1  C   LIG d   1      -5.408  92.062 118.218  0.00  0.00     0.161 C 
ATOM      2  C   LIG d   1      -6.576  92.787 117.930  0.00  0.00     0.016 C 
ATOM      3  C   LIG d   1      -6.943  93.973 118.608  0.00  0.00     0.038 C 
ATOM      4  C   LIG d   1      -6.083  94.600 119.522  0.00  0.00     0.028 C 
ATOM      5  C   LIG d   1      -5.122  93.636 120.210  0.00  0.00    -0.047 C 
ATOM      6  C   LIG d   1      -4.403  92.791 119.134  0.00  0.00     0.091 C 
ENDROOT
BRANCH   1   7
ATOM      7  O   LIG d   1      -4.767  91.661 116.990  0.00  0.00    -0.368 OA
BRANCH   7   8
ATOM      8  C   LIG d   1      -5.246  90.432 116.393  0.00  0.00     0.119 C 
BRANCH   8   9
ATOM      9  C   LIG d   1      -4.012  89.600 115.993  0.00  0.00     0.028 C 
ATOM     10  C   LIG d   1      -3.040  89.391 117.167  0.00  0.00     0.006 C 
ENDBRANCH   8   9
BRANCH   8  11
ATOM     11  C   LIG d   1      -5.994  90.702 115.084  0.00  0.00     0.028 C 
ATOM     12  C   LIG d   1      -7.490  90.361 115.171  0.00  0.00     0.006 C 
ENDBRANCH   8  11
ENDBRANCH   7   8
ENDBRANCH   1   7
BRANCH   6  13
ATOM     13  N   LIG d   1      -3.506  91.764 119.726  0.00  0.00    -0.311 N 
ATOM     14  C   LIG d   1      -2.203  91.955 119.923  0.00  0.00     0.210 C 
ATOM     15  C   LIG d   1      -1.459  90.760 120.527  0.00  0.00     0.109 C 
ATOM     16  O   LIG d   1      -1.599  93.011 119.686  0.00  0.00    -0.276 OA
ATOM     17  H   LIG d   1      -3.920  90.888 119.977  0.00  0.00     0.149 HD
ENDBRANCH   6  13
BRANCH   5  18
ATOM     18  N   LIG d   1      -4.196  94.440 121.029  0.00  0.00     0.381 N 
ATOM     19  H   LIG d   1      -4.712  94.972 121.701  0.00  0.00    -0.090 HD
ATOM     20  H   LIG d   1      -3.704  95.080 120.431  0.00  0.00    -0.090 HD
ATOM     21  H   LIG d   1      -3.547  93.844 121.495  0.00  0.00    -0.090 HD
ENDBRANCH   5  18
BRANCH   3  22
ATOM     22  C   LIG d   1      -8.199  94.521 118.402  0.00  0.00     0.382 C 
ATOM     23  O   LIG d   1      -9.206  94.002 118.943  0.00  0.00    -0.241 OA
ATOM     24  O   LIG d   1      -8.345  95.501 117.648  0.00  0.00    -0.241 OA
ENDBRANCH   3  22
TORSDOF 7
ENDMDL
MODEL 9
REMARK VINA RESULT:      -5.4      2.480      4.755
REMARK  7 active torsions:
REMARK  status: ('A' for Active; 'I' for Inactive)
REMARK    1  A    between atoms: C_2  and  C_3 
REMARK    2  A    between atoms: C_3  and  O_6 
REMARK    3  A    between atoms: C_3  and  C_4 
REMARK    4  A    between atoms: C_7  and  O_6 
REMARK    5  A    between atoms: C_9  and  C_10 
REMARK    6  A    between atoms: N_15  and  C_14 
REMARK    7  A    between atoms: N_20  and  C_19 
REMARK       I    between atoms: C_22  and  N_20 
ROOT
ATOM      1  C   LIG d   1      -4.041  91.767 117.411  0.00  0.00     0.161 C 
ATOM      2  C   LIG d   1      -3.408  90.519 117.283  0.00  0.00     0.016 C 
ATOM      3  C   LIG d   1      -3.136  89.668 118.379  0.00  0.00     0.038 C 
ATOM      4  C   LIG d   1      -3.619  89.941 119.667  0.00  0.00     0.028 C 
ATOM      5  C   LIG d   1      -3.824  91.428 119.935  0.00  0.00    -0.047 C 
ATOM      6  C   LIG d   1      -4.675  92.031 118.793  0.00  0.00     0.091 C 
ENDROOT
BRANCH   1   7
ATOM      7  O   LIG d   1      -5.026  91.924 116.371  0.00  0.00    -0.368 OA
BRANCH   7   8
ATOM      8  C   LIG d   1      -6.411  91.798 116.779  0.00  0.00     0.119 C 
BRANCH   8   9
ATOM      9  C   LIG d   1      -6.903  90.411 116.322  0.00  0.00     0.028 C 
ATOM     10  C   LIG d   1      -6.799  90.223 114.800  0.00  0.00     0.006 C 
ENDBRANCH   8   9
BRANCH   8  11
ATOM     11  C   LIG d   1      -7.301  92.806 116.047  0.00  0.00     0.028 C 
ATOM     12  C   LIG d   1      -8.006  93.782 117.002  0.00  0.00     0.006 C 
ENDBRANCH   8  11
ENDBRANCH   7   8
ENDBRANCH   1   7
BRANCH   6  13
ATOM     13  N   LIG d   1      -4.852  93.500 118.934  0.00  0.00    -0.311 N 
ATOM     14  C   LIG d   1      -5.835  94.056 119.640  0.00  0.00     0.210 C 
ATOM     15  C   LIG d   1      -5.847  95.588 119.637  0.00  0.00     0.109 C 
ATOM     16  O   LIG d   1      -6.679  93.426 120.294  0.00  0.00    -0.276 OA
ATOM     17  H   LIG d   1      -4.192  94.086 118.461  0.00  0.00     0.149 HD
ENDBRANCH   6  13
BRANCH   5  18
ATOM     18  N   LIG d   1      -4.459  91.559 121.260  0.00  0.00     0.381 N 
ATOM     19  H   LIG d   1      -4.924  90.706 121.499  0.00  0.00    -0.090 HD
ATOM     20  H   LIG d   1      -5.145  92.292 121.221  0.00  0.00    -0.090 HD
ATOM     21  H   LIG d   1      -3.771  91.775 121.948  0.00  0.00    -0.090 HD
ENDBRANCH   5  18
BRANCH   3  22
ATOM     22  C   LIG d   1      -2.339  88.548 118.198  0.00  0.00     0.382 C 
ATOM     23  O   LIG d   1      -2.288  87.665 119.087  0.00  0.00    -0.241 OA
ATOM     24  O   LIG d   1      -1.636  88.431 117.176  0.00  0.00    -0.241 OA
ENDBRANCH   3  22
TORSDOF 7
ENDMDL
