MODEL 1
REMARK VINA RESULT:      -5.5      0.000      0.000
REMARK  7 active torsions:
REMARK  status: ('A' for Active; 'I' for Inactive)
REMARK    1  A    between atoms: C_2  and  C_3 
REMARK    2  A    between atoms: C_3  and  O_6 
REMARK    3  A    between atoms: C_3  and  C_4 
REMARK    4  A    between atoms: C_7  and  O_6 
REMARK    5  A    between atoms: C_9  and  C_10 
REMARK    6  A    between atoms: N_15  and  C_14 
REMARK    7  A    between atoms: N_20  and  C_19 
REMARK       I    between atoms: C_22  and  N_20 
ROOT
ATOM      1  C   LIG d   1      -4.154  90.769 117.073  0.00  0.00     0.161 C 
ATOM      2  C   LIG d   1      -5.225  90.242 116.333  0.00  0.00     0.016 C 
ATOM      3  C   LIG d   1      -6.407  90.966 116.051  0.00  0.00     0.038 C 
ATOM      4  C   LIG d   1      -6.535  92.327 116.365  0.00  0.00     0.028 C 
ATOM      5  C   LIG d   1      -5.685  92.757 117.555  0.00  0.00    -0.047 C 
ATOM      6  C   LIG d   1      -4.229  92.289 117.328  0.00  0.00     0.091 C 
ENDROOT
BRANCH   1   7
ATOM      7  O   LIG d   1      -2.906  90.429 116.437  0.00  0.00    -0.368 OA
BRANCH   7   8
ATOM      8  C   LIG d   1      -2.308  89.172 116.839  0.00  0.00     0.119 C 
BRANCH   8   9
ATOM      9  C   LIG d   1      -2.498  89.034 118.361  0.00  0.00     0.028 C 
ATOM     10  C   LIG d   1      -1.832  87.768 118.924  0.00  0.00     0.006 C 
ENDBRANCH   8   9
BRANCH   8  11
ATOM     11  C   LIG d   1      -0.792  89.182 116.619  0.00  0.00     0.028 C 
ATOM     12  C   LIG d   1      -0.160  90.556 116.888  0.00  0.00     0.006 C 
ENDBRANCH   8  11
ENDBRANCH   7   8
ENDBRANCH   1   7
BRANCH   6  13
ATOM     13  N   LIG d   1      -3.348  92.595 118.485  0.00  0.00    -0.311 N 
ATOM     14  C   LIG d   1      -2.224  93.303 118.383  0.00  0.00     0.210 C 
ATOM     15  C   LIG d   1      -1.454  93.486 119.695  0.00  0.00     0.109 C 
ATOM     16  O   LIG d   1      -1.809  93.825 117.337  0.00  0.00    -0.276 OA
ATOM     17  H   LIG d   1      -3.626  92.237 119.377  0.00  0.00     0.149 HD
ENDBRANCH   6  13
BRANCH   5  18
ATOM     18  N   LIG d   1      -5.807  94.221 117.685  0.00  0.00     0.381 N 
ATOM     19  H   LIG d   1      -6.745  94.462 117.936  0.00  0.00    -0.090 HD
ATOM     20  H   LIG d   1      -5.600  94.645 116.798  0.00  0.00    -0.090 HD
ATOM     21  H   LIG d   1      -5.174  94.557 118.377  0.00  0.00    -0.090 HD
ENDBRANCH   5  18
BRANCH   3  22
ATOM     22  C   LIG d   1      -7.493  90.316 115.484  0.00  0.00     0.382 C 
ATOM     23  O   LIG d   1      -8.097  90.833 114.514  0.00  0.00    -0.241 OA
ATOM     24  O   LIG d   1      -7.903  89.239 115.959  0.00  0.00    -0.241 OA
ENDBRANCH   3  22
TORSDOF 7
ENDMDL
MODEL 2
REMARK VINA RESULT:      -5.5      2.192      3.859
REMARK  7 active torsions:
REMARK  status: ('A' for Active; 'I' for Inactive)
REMARK    1  A    between atoms: C_2  and  C_3 
REMARK    2  A    between atoms: C_3  and  O_6 
REMARK    3  A    between atoms: C_3  and  C_4 
REMARK    4  A    between atoms: C_7  and  O_6 
REMARK    5  A    between atoms: C_9  and  C_10 
REMARK    6  A    between atoms: N_15  and  C_14 
REMARK    7  A    between atoms: N_20  and  C_19 
REMARK       I    between atoms: C_22  and  N_20 
ROOT
ATOM      1  C   LIG d   1      -5.406  92.812 117.062  0.00  0.00     0.161 C 
ATOM      2  C   LIG d   1      -6.534  92.080 116.655  0.00  0.00     0.016 C 
ATOM      3  C   LIG d   1      -6.463  90.765 116.141  0.00  0.00     0.038 C 
ATOM      4  C   LIG d   1      -5.267  90.032 116.140  0.00  0.00     0.028 C 
ATOM      5  C   LIG d   1      -4.020  90.907 116.072  0.00  0.00    -0.047 C 
ATOM      6  C   LIG d   1      -4.106  91.989 117.174  0.00  0.00     0.091 C 
ENDROOT
BRANCH   1   7
ATOM      7  O   LIG d   1      -5.683  93.482 118.308  0.00  0.00    -0.368 OA
BRANCH   7   8
ATOM      8  C   LIG d   1      -5.518  92.689 119.509  0.00  0.00     0.119 C 
BRANCH   8   9
ATOM      9  C   LIG d   1      -6.873  92.672 120.243  0.00  0.00     0.028 C 
ATOM     10  C   LIG d   1      -6.727  92.344 121.738  0.00  0.00     0.006 C 
ENDBRANCH   8   9
BRANCH   8  11
ATOM     11  C   LIG d   1      -4.538  93.349 120.483  0.00  0.00     0.028 C 
ATOM     12  C   LIG d   1      -4.195  94.796 120.094  0.00  0.00     0.006 C 
ENDBRANCH   8  11
ENDBRANCH   7   8
ENDBRANCH   1   7
BRANCH   6  13
ATOM     13  N   LIG d   1      -2.965  92.940 117.123  0.00  0.00    -0.311 N 
ATOM     14  C   LIG d   1      -1.886  92.833 117.896  0.00  0.00     0.210 C 
ATOM     15  C   LIG d   1      -0.837  93.931 117.698  0.00  0.00     0.109 C 
ATOM     16  O   LIG d   1      -1.684  91.914 118.705  0.00  0.00    -0.276 OA
ATOM     17  H   LIG d   1      -3.032  93.699 116.473  0.00  0.00     0.149 HD
ENDBRANCH   6  13
BRANCH   5  18
ATOM     18  N   LIG d   1      -2.848  90.025 116.219  0.00  0.00     0.381 N 
ATOM     19  H   LIG d   1      -2.400  90.199 117.096  0.00  0.00    -0.090 HD
ATOM     20  H   LIG d   1      -2.193  90.229 115.485  0.00  0.00    -0.090 HD
ATOM     21  H   LIG d   1      -3.130  89.071 116.166  0.00  0.00    -0.090 HD
ENDBRANCH   5  18
BRANCH   3  22
ATOM     22  C   LIG d   1      -7.592  90.184 115.582  0.00  0.00     0.382 C 
ATOM     23  O   LIG d   1      -8.176  90.744 114.624  0.00  0.00    -0.241 OA
ATOM     24  O   LIG d   1      -8.058  89.129 116.053  0.00  0.00    -0.241 OA
ENDBRANCH   3  22
TORSDOF 7
ENDMDL
MODEL 3
REMARK VINA RESULT:      -5.2      1.322      1.973
REMARK  7 active torsions:
REMARK  status: ('A' for Active; 'I' for Inactive)
REMARK    1  A    between atoms: C_2  and  C_3 
REMARK    2  A    between atoms: C_3  and  O_6 
REMARK    3  A    between atoms: C_3  and  C_4 
REMARK    4  A    between atoms: C_7  and  O_6 
REMARK    5  A    between atoms: C_9  and  C_10 
REMARK    6  A    between atoms: N_15  and  C_14 
REMARK    7  A    between atoms: N_20  and  C_19 
REMARK       I    between atoms: C_22  and  N_20 
ROOT
ATOM      1  C   LIG d   1      -3.659  91.433 117.389  0.00  0.00     0.161 C 
ATOM      2  C   LIG d   1      -4.247  90.676 116.362  0.00  0.00     0.016 C 
ATOM      3  C   LIG d   1      -5.482  91.007 115.760  0.00  0.00     0.038 C 
ATOM      4  C   LIG d   1      -6.146  92.210 116.042  0.00  0.00     0.028 C 
ATOM      5  C   LIG d   1      -5.845  92.755 117.435  0.00  0.00    -0.047 C 
ATOM      6  C   LIG d   1      -4.313  92.809 117.633  0.00  0.00     0.091 C 
ENDROOT
BRANCH   1   7
ATOM      7  O   LIG d   1      -2.249  91.586 117.138  0.00  0.00    -0.368 OA
BRANCH   7   8
ATOM      8  C   LIG d   1      -1.377  90.628 117.787  0.00  0.00     0.119 C 
BRANCH   8   9
ATOM      9  C   LIG d   1      -0.192  91.410 118.385  0.00  0.00     0.028 C 
ATOM     10  C   LIG d   1       0.933  91.642 117.364  0.00  0.00     0.006 C 
ENDBRANCH   8   9
BRANCH   8  11
ATOM     11  C   LIG d   1      -0.756  89.663 116.773  0.00  0.00     0.028 C 
ATOM     12  C   LIG d   1      -1.390  88.264 116.815  0.00  0.00     0.006 C 
ENDBRANCH   8  11
ENDBRANCH   7   8
ENDBRANCH   1   7
BRANCH   6  13
ATOM     13  N   LIG d   1      -3.934  93.251 119.000  0.00  0.00    -0.311 N 
ATOM     14  C   LIG d   1      -2.949  94.113 119.245  0.00  0.00     0.210 C 
ATOM     15  C   LIG d   1      -2.710  94.418 120.727  0.00  0.00     0.109 C 
ATOM     16  O   LIG d   1      -2.271  94.678 118.374  0.00  0.00    -0.276 OA
ATOM     17  H   LIG d   1      -4.453  92.865 119.765  0.00  0.00     0.149 HD
ENDBRANCH   6  13
BRANCH   5  18
ATOM     18  N   LIG d   1      -6.490  94.077 117.545  0.00  0.00     0.381 N 
ATOM     19  H   LIG d   1      -5.908  94.694 118.076  0.00  0.00    -0.090 HD
ATOM     20  H   LIG d   1      -7.364  93.974 118.028  0.00  0.00    -0.090 HD
ATOM     21  H   LIG d   1      -6.646  94.457 116.637  0.00  0.00    -0.090 HD
ENDBRANCH   5  18
BRANCH   3  22
ATOM     22  C   LIG d   1      -6.087  90.110 114.892  0.00  0.00     0.382 C 
ATOM     23  O   LIG d   1      -5.450  89.111 114.479  0.00  0.00    -0.241 OA
ATOM     24  O   LIG d   1      -7.246  90.310 114.484  0.00  0.00    -0.241 OA
ENDBRANCH   3  22
TORSDOF 7
ENDMDL
MODEL 4
REMARK VINA RESULT:      -5.0      1.795      4.612
REMARK  7 active torsions:
REMARK  status: ('A' for Active; 'I' for Inactive)
REMARK    1  A    between atoms: C_2  and  C_3 
REMARK    2  A    between atoms: C_3  and  O_6 
REMARK    3  A    between atoms: C_3  and  C_4 
REMARK    4  A    between atoms: C_7  and  O_6 
REMARK    5  A    between atoms: C_9  and  C_10 
REMARK    6  A    between atoms: N_15  and  C_14 
REMARK    7  A    between atoms: N_20  and  C_19 
REMARK       I    between atoms: C_22  and  N_20 
ROOT
ATOM      1  C   LIG d   1      -3.928  91.664 116.772  0.00  0.00     0.161 C 
ATOM      2  C   LIG d   1      -3.091  92.572 117.440  0.00  0.00     0.016 C 
ATOM      3  C   LIG d   1      -3.515  93.363 118.532  0.00  0.00     0.038 C 
ATOM      4  C   LIG d   1      -4.772  93.188 119.130  0.00  0.00     0.028 C 
ATOM      5  C   LIG d   1      -5.827  92.642 118.174  0.00  0.00    -0.047 C 
ATOM      6  C   LIG d   1      -5.269  91.378 117.480  0.00  0.00     0.091 C 
ENDROOT
BRANCH   1   7
ATOM      7  O   LIG d   1      -3.219  90.433 116.528  0.00  0.00    -0.368 OA
BRANCH   7   8
ATOM      8  C   LIG d   1      -2.127  90.136 117.434  0.00  0.00     0.119 C 
BRANCH   8   9
ATOM      9  C   LIG d   1      -0.981  89.537 116.597  0.00  0.00     0.028 C 
ATOM     10  C   LIG d   1      -1.024  88.000 116.557  0.00  0.00     0.006 C 
ENDBRANCH   8   9
BRANCH   8  11
ATOM     11  C   LIG d   1      -2.515  89.042 118.433  0.00  0.00     0.028 C 
ATOM     12  C   LIG d   1      -2.056  89.355 119.866  0.00  0.00     0.006 C 
ENDBRANCH   8  11
ENDBRANCH   7   8
ENDBRANCH   1   7
BRANCH   6  13
ATOM     13  N   LIG d   1      -6.206  90.829 116.466  0.00  0.00    -0.311 N 
ATOM     14  C   LIG d   1      -6.501  91.452 115.326  0.00  0.00     0.210 C 
ATOM     15  C   LIG d   1      -7.505  90.720 114.430  0.00  0.00     0.109 C 
ATOM     16  O   LIG d   1      -6.002  92.526 114.958  0.00  0.00    -0.276 OA
ATOM     17  H   LIG d   1      -6.632  89.946 116.670  0.00  0.00     0.149 HD
ENDBRANCH   6  13
BRANCH   5  18
ATOM     18  N   LIG d   1      -7.047  92.379 118.960  0.00  0.00     0.381 N 
ATOM     19  H   LIG d   1      -6.928  92.717 119.894  0.00  0.00    -0.090 HD
ATOM     20  H   LIG d   1      -7.200  91.387 119.001  0.00  0.00    -0.090 HD
ATOM     21  H   LIG d   1      -7.830  92.825 118.534  0.00  0.00    -0.090 HD
ENDBRANCH   5  18
BRANCH   3  22
ATOM     22  C   LIG d   1      -2.692  94.371 119.012  0.00  0.00     0.382 C 
ATOM     23  O   LIG d   1      -1.949  95.002 118.223  0.00  0.00    -0.241 OA
ATOM     24  O   LIG d   1      -2.651  94.626 120.231  0.00  0.00    -0.241 OA
ENDBRANCH   3  22
TORSDOF 7
ENDMDL
MODEL 5
REMARK VINA RESULT:      -4.9      2.516      4.475
REMARK  7 active torsions:
REMARK  status: ('A' for Active; 'I' for Inactive)
REMARK    1  A    between atoms: C_2  and  C_3 
REMARK    2  A    between atoms: C_3  and  O_6 
REMARK    3  A    between atoms: C_3  and  C_4 
REMARK    4  A    between atoms: C_7  and  O_6 
REMARK    5  A    between atoms: C_9  and  C_10 
REMARK    6  A    between atoms: N_15  and  C_14 
REMARK    7  A    between atoms: N_20  and  C_19 
REMARK       I    between atoms: C_22  and  N_20 
ROOT
ATOM      1  C   LIG d   1      -2.559  92.365 117.679  0.00  0.00     0.161 C 
ATOM      2  C   LIG d   1      -3.829  92.742 117.213  0.00  0.00     0.016 C 
ATOM      3  C   LIG d   1      -4.706  91.859 116.541  0.00  0.00     0.038 C 
ATOM      4  C   LIG d   1      -4.430  90.489 116.423  0.00  0.00     0.028 C 
ATOM      5  C   LIG d   1      -2.940  90.168 116.431  0.00  0.00    -0.047 C 
ATOM      6  C   LIG d   1      -2.287  90.846 117.657  0.00  0.00     0.091 C 
ENDROOT
BRANCH   1   7
ATOM      7  O   LIG d   1      -2.347  92.893 119.003  0.00  0.00    -0.368 OA
BRANCH   7   8
ATOM      8  C   LIG d   1      -1.675  94.174 119.078  0.00  0.00     0.119 C 
BRANCH   8   9
ATOM      9  C   LIG d   1      -0.274  93.928 119.671  0.00  0.00     0.028 C 
ATOM     10  C   LIG d   1       0.805  93.785 118.585  0.00  0.00     0.006 C 
ENDBRANCH   8   9
BRANCH   8  11
ATOM     11  C   LIG d   1      -2.374  95.113 120.066  0.00  0.00     0.028 C 
ATOM     12  C   LIG d   1      -3.596  95.818 119.456  0.00  0.00     0.006 C 
ENDBRANCH   8  11
ENDBRANCH   7   8
ENDBRANCH   1   7
BRANCH   6  13
ATOM     13  N   LIG d   1      -0.814  90.652 117.695  0.00  0.00    -0.311 N 
ATOM     14  C   LIG d   1      -0.170  90.126 118.736  0.00  0.00     0.210 C 
ATOM     15  C   LIG d   1       1.350  90.034 118.576  0.00  0.00     0.109 C 
ATOM     16  O   LIG d   1      -0.718  89.698 119.763  0.00  0.00    -0.276 OA
ATOM     17  H   LIG d   1      -0.295  90.943 116.890  0.00  0.00     0.149 HD
ENDBRANCH   6  13
BRANCH   5  18
ATOM     18  N   LIG d   1      -2.800  88.699 116.441  0.00  0.00     0.381 N 
ATOM     19  H   LIG d   1      -3.471  88.291 115.820  0.00  0.00    -0.090 HD
ATOM     20  H   LIG d   1      -2.984  88.361 117.369  0.00  0.00    -0.090 HD
ATOM     21  H   LIG d   1      -1.879  88.442 116.162  0.00  0.00    -0.090 HD
ENDBRANCH   5  18
BRANCH   3  22
ATOM     22  C   LIG d   1      -5.855  92.354 115.944  0.00  0.00     0.382 C 
ATOM     23  O   LIG d   1      -5.940  92.405 114.693  0.00  0.00    -0.241 OA
ATOM     24  O   LIG d   1      -6.791  92.792 116.641  0.00  0.00    -0.241 OA
ENDBRANCH   3  22
TORSDOF 7
ENDMDL
MODEL 6
REMARK VINA RESULT:      -4.9      2.698      4.372
REMARK  7 active torsions:
REMARK  status: ('A' for Active; 'I' for Inactive)
REMARK    1  A    between atoms: C_2  and  C_3 
REMARK    2  A    between atoms: C_3  and  O_6 
REMARK    3  A    between atoms: C_3  and  C_4 
REMARK    4  A    between atoms: C_7  and  O_6 
REMARK    5  A    between atoms: C_9  and  C_10 
REMARK    6  A    between atoms: N_15  and  C_14 
REMARK    7  A    between atoms: N_20  and  C_19 
REMARK       I    between atoms: C_22  and  N_20 
ROOT
ATOM      1  C   LIG d   1      -4.916  92.687 117.867  0.00  0.00     0.161 C 
ATOM      2  C   LIG d   1      -6.088  93.457 117.946  0.00  0.00     0.016 C 
ATOM      3  C   LIG d   1      -6.184  94.653 118.693  0.00  0.00     0.038 C 
ATOM      4  C   LIG d   1      -5.063  95.244 119.293  0.00  0.00     0.028 C 
ATOM      5  C   LIG d   1      -3.974  94.242 119.662  0.00  0.00    -0.047 C 
ATOM      6  C   LIG d   1      -3.652  93.374 118.424  0.00  0.00     0.091 C 
ENDROOT
BRANCH   1   7
ATOM      7  O   LIG d   1      -4.699  92.266 116.505  0.00  0.00    -0.368 OA
BRANCH   7   8
ATOM      8  C   LIG d   1      -5.680  91.352 115.956  0.00  0.00     0.119 C 
BRANCH   8   9
ATOM      9  C   LIG d   1      -4.931  90.081 115.512  0.00  0.00     0.028 C 
ATOM     10  C   LIG d   1      -3.597  89.896 116.255  0.00  0.00     0.006 C 
ENDBRANCH   8   9
BRANCH   8  11
ATOM     11  C   LIG d   1      -6.314  91.915 114.681  0.00  0.00     0.028 C 
ATOM     12  C   LIG d   1      -7.730  91.373 114.430  0.00  0.00     0.006 C 
ENDBRANCH   8  11
ENDBRANCH   7   8
ENDBRANCH   1   7
BRANCH   6  13
ATOM     13  N   LIG d   1      -2.656  92.311 118.721  0.00  0.00    -0.311 N 
ATOM     14  C   LIG d   1      -1.442  92.271 118.174  0.00  0.00     0.210 C 
ATOM     15  C   LIG d   1      -0.580  91.079 118.601  0.00  0.00     0.109 C 
ATOM     16  O   LIG d   1      -0.986  93.126 117.401  0.00  0.00    -0.276 OA
ATOM     17  H   LIG d   1      -2.932  91.594 119.362  0.00  0.00     0.149 HD
ENDBRANCH   6  13
BRANCH   5  18
ATOM     18  N   LIG d   1      -2.811  95.007 120.150  0.00  0.00     0.381 N 
ATOM     19  H   LIG d   1      -2.604  94.744 121.093  0.00  0.00    -0.090 HD
ATOM     20  H   LIG d   1      -3.037  95.986 120.138  0.00  0.00    -0.090 HD
ATOM     21  H   LIG d   1      -2.021  94.834 119.568  0.00  0.00    -0.090 HD
ENDBRANCH   5  18
BRANCH   3  22
ATOM     22  C   LIG d   1      -7.422  95.250 118.879  0.00  0.00     0.382 C 
ATOM     23  O   LIG d   1      -8.119  95.570 117.886  0.00  0.00    -0.241 OA
ATOM     24  O   LIG d   1      -7.831  95.513 120.025  0.00  0.00    -0.241 OA
ENDBRANCH   3  22
TORSDOF 7
ENDMDL
MODEL 7
REMARK VINA RESULT:      -4.9      1.916      2.585
REMARK  7 active torsions:
REMARK  status: ('A' for Active; 'I' for Inactive)
REMARK    1  A    between atoms: C_2  and  C_3 
REMARK    2  A    between atoms: C_3  and  O_6 
REMARK    3  A    between atoms: C_3  and  C_4 
REMARK    4  A    between atoms: C_7  and  O_6 
REMARK    5  A    between atoms: C_9  and  C_10 
REMARK    6  A    between atoms: N_15  and  C_14 
REMARK    7  A    between atoms: N_20  and  C_19 
REMARK       I    between atoms: C_22  and  N_20 
ROOT
ATOM      1  C   LIG d   1      -2.165  90.024 117.058  0.00  0.00     0.161 C 
ATOM      2  C   LIG d   1      -3.333  89.651 116.373  0.00  0.00     0.016 C 
ATOM      3  C   LIG d   1      -4.446  90.508 116.208  0.00  0.00     0.038 C 
ATOM      4  C   LIG d   1      -4.406  91.857 116.590  0.00  0.00     0.028 C 
ATOM      5  C   LIG d   1      -3.438  92.134 117.735  0.00  0.00    -0.047 C 
ATOM      6  C   LIG d   1      -2.059  91.529 117.385  0.00  0.00     0.091 C 
ENDROOT
BRANCH   1   7
ATOM      7  O   LIG d   1      -1.005  89.589 116.321  0.00  0.00    -0.368 OA
BRANCH   7   8
ATOM      8  C   LIG d   1      -0.204  88.556 116.945  0.00  0.00     0.119 C 
BRANCH   8   9
ATOM      9  C   LIG d   1      -0.271  87.310 116.041  0.00  0.00     0.028 C 
ATOM     10  C   LIG d   1       0.964  86.406 116.194  0.00  0.00     0.006 C 
ENDBRANCH   8   9
BRANCH   8  11
ATOM     11  C   LIG d   1      -0.804  88.118 118.284  0.00  0.00     0.028 C 
ATOM     12  C   LIG d   1       0.154  88.337 119.466  0.00  0.00     0.006 C 
ENDBRANCH   8  11
ENDBRANCH   7   8
ENDBRANCH   1   7
BRANCH   6  13
ATOM     13  N   LIG d   1      -1.076  91.682 118.489  0.00  0.00    -0.311 N 
ATOM     14  C   LIG d   1       0.192  92.042 118.297  0.00  0.00     0.210 C 
ATOM     15  C   LIG d   1       1.041  92.121 119.569  0.00  0.00     0.109 C 
ATOM     16  O   LIG d   1       0.685  92.335 117.197  0.00  0.00    -0.276 OA
ATOM     17  H   LIG d   1      -1.400  91.494 119.417  0.00  0.00     0.149 HD
ENDBRANCH   6  13
BRANCH   5  18
ATOM     18  N   LIG d   1      -3.394  93.595 117.938  0.00  0.00     0.381 N 
ATOM     19  H   LIG d   1      -4.061  93.860 118.634  0.00  0.00    -0.090 HD
ATOM     20  H   LIG d   1      -3.639  94.050 117.076  0.00  0.00    -0.090 HD
ATOM     21  H   LIG d   1      -2.480  93.872 118.220  0.00  0.00    -0.090 HD
ENDBRANCH   5  18
BRANCH   3  22
ATOM     22  C   LIG d   1      -5.630  90.004 115.691  0.00  0.00     0.382 C 
ATOM     23  O   LIG d   1      -5.632  89.428 114.576  0.00  0.00    -0.241 OA
ATOM     24  O   LIG d   1      -6.703  90.157 116.305  0.00  0.00    -0.241 OA
ENDBRANCH   3  22
TORSDOF 7
ENDMDL
MODEL 8
REMARK VINA RESULT:      -4.7      2.357      4.555
REMARK  7 active torsions:
REMARK  status: ('A' for Active; 'I' for Inactive)
REMARK    1  A    between atoms: C_2  and  C_3 
REMARK    2  A    between atoms: C_3  and  O_6 
REMARK    3  A    between atoms: C_3  and  C_4 
REMARK    4  A    between atoms: C_7  and  O_6 
REMARK    5  A    between atoms: C_9  and  C_10 
REMARK    6  A    between atoms: N_15  and  C_14 
REMARK    7  A    between atoms: N_20  and  C_19 
REMARK       I    between atoms: C_22  and  N_20 
ROOT
ATOM      1  C   LIG d   1      -3.633  92.002 117.780  0.00  0.00     0.161 C 
ATOM      2  C   LIG d   1      -4.707  92.082 116.879  0.00  0.00     0.016 C 
ATOM      3  C   LIG d   1      -4.995  91.083 115.920  0.00  0.00     0.038 C 
ATOM      4  C   LIG d   1      -4.313  89.857 115.900  0.00  0.00     0.028 C 
ATOM      5  C   LIG d   1      -2.897  89.942 116.460  0.00  0.00    -0.047 C 
ATOM      6  C   LIG d   1      -2.946  90.622 117.848  0.00  0.00     0.091 C 
ENDROOT
BRANCH   1   7
ATOM      7  O   LIG d   1      -4.067  92.411 119.093  0.00  0.00    -0.368 OA
BRANCH   7   8
ATOM      8  C   LIG d   1      -4.497  93.788 119.222  0.00  0.00     0.119 C 
BRANCH   8   9
ATOM      9  C   LIG d   1      -3.380  94.556 119.956  0.00  0.00     0.028 C 
ATOM     10  C   LIG d   1      -2.474  95.337 118.990  0.00  0.00     0.006 C 
ENDBRANCH   8   9
BRANCH   8  11
ATOM     11  C   LIG d   1      -5.729  93.904 120.125  0.00  0.00     0.028 C 
ATOM     12  C   LIG d   1      -6.657  92.683 120.027  0.00  0.00     0.006 C 
ENDBRANCH   8  11
ENDBRANCH   7   8
ENDBRANCH   1   7
BRANCH   6  13
ATOM     13  N   LIG d   1      -1.593  90.822 118.429  0.00  0.00    -0.311 N 
ATOM     14  C   LIG d   1      -1.031  89.970 119.285  0.00  0.00     0.210 C 
ATOM     15  C   LIG d   1       0.362  90.375 119.779  0.00  0.00     0.109 C 
ATOM     16  O   LIG d   1      -1.539  88.902 119.657  0.00  0.00    -0.276 OA
ATOM     17  H   LIG d   1      -1.097  91.648 118.157  0.00  0.00     0.149 HD
ENDBRANCH   6  13
BRANCH   5  18
ATOM     18  N   LIG d   1      -2.353  88.572 116.507  0.00  0.00     0.381 N 
ATOM     19  H   LIG d   1      -2.370  88.169 115.592  0.00  0.00    -0.090 HD
ATOM     20  H   LIG d   1      -2.931  88.013 117.109  0.00  0.00    -0.090 HD
ATOM     21  H   LIG d   1      -1.419  88.588 116.853  0.00  0.00    -0.090 HD
ENDBRANCH   5  18
BRANCH   3  22
ATOM     22  C   LIG d   1      -5.949  91.322 114.943  0.00  0.00     0.382 C 
ATOM     23  O   LIG d   1      -6.090  92.477 114.474  0.00  0.00    -0.241 OA
ATOM     24  O   LIG d   1      -6.700  90.407 114.556  0.00  0.00    -0.241 OA
ENDBRANCH   3  22
TORSDOF 7
ENDMDL
MODEL 9
REMARK VINA RESULT:      -4.6      2.455      5.370
REMARK  7 active torsions:
REMARK  status: ('A' for Active; 'I' for Inactive)
REMARK    1  A    between atoms: C_2  and  C_3 
REMARK    2  A    between atoms: C_3  and  O_6 
REMARK    3  A    between atoms: C_3  and  C_4 
REMARK    4  A    between atoms: C_7  and  O_6 
REMARK    5  A    between atoms: C_9  and  C_10 
REMARK    6  A    between atoms: N_15  and  C_14 
REMARK    7  A    between atoms: N_20  and  C_19 
REMARK       I    between atoms: C_22  and  N_20 
ROOT
ATOM      1  C   LIG d   1      -3.314  93.022 117.772  0.00  0.00     0.161 C 
ATOM      2  C   LIG d   1      -2.158  92.334 118.175  0.00  0.00     0.016 C 
ATOM      3  C   LIG d   1      -1.820  92.105 119.528  0.00  0.00     0.038 C 
ATOM      4  C   LIG d   1      -2.699  92.420 120.575  0.00  0.00     0.028 C 
ATOM      5  C   LIG d   1      -3.646  93.570 120.246  0.00  0.00    -0.047 C 
ATOM      6  C   LIG d   1      -4.340  93.276 118.897  0.00  0.00     0.091 C 
ENDROOT
BRANCH   1   7
ATOM      7  O   LIG d   1      -3.938  92.330 116.672  0.00  0.00    -0.368 OA
BRANCH   7   8
ATOM      8  C   LIG d   1      -4.589  91.077 116.995  0.00  0.00     0.119 C 
BRANCH   8   9
ATOM      9  C   LIG d   1      -3.996  89.995 116.072  0.00  0.00     0.028 C 
ATOM     10  C   LIG d   1      -2.898  89.171 116.764  0.00  0.00     0.006 C 
ENDBRANCH   8   9
BRANCH   8  11
ATOM     11  C   LIG d   1      -6.083  91.123 116.659  0.00  0.00     0.028 C 
ATOM     12  C   LIG d   1      -6.431  92.219 115.640  0.00  0.00     0.006 C 
ENDBRANCH   8  11
ENDBRANCH   7   8
ENDBRANCH   1   7
BRANCH   6  13
ATOM     13  N   LIG d   1      -5.221  94.390 118.459  0.00  0.00    -0.311 N 
ATOM     14  C   LIG d   1      -6.537  94.409 118.666  0.00  0.00     0.210 C 
ATOM     15  C   LIG d   1      -7.260  95.643 118.116  0.00  0.00     0.109 C 
ATOM     16  O   LIG d   1      -7.169  93.537 119.281  0.00  0.00    -0.276 OA
ATOM     17  H   LIG d   1      -4.786  95.154 117.979  0.00  0.00     0.149 HD
ENDBRANCH   6  13
BRANCH   5  18
ATOM     18  N   LIG d   1      -4.594  93.701 121.368  0.00  0.00     0.381 N 
ATOM     19  H   LIG d   1      -5.379  93.098 121.220  0.00  0.00    -0.090 HD
ATOM     20  H   LIG d   1      -4.926  94.648 121.404  0.00  0.00    -0.090 HD
ATOM     21  H   LIG d   1      -4.143  93.467 122.225  0.00  0.00    -0.090 HD
ENDBRANCH   5  18
BRANCH   3  22
ATOM     22  C   LIG d   1      -0.573  91.591 119.847  0.00  0.00     0.382 C 
ATOM     23  O   LIG d   1      -0.194  90.506 119.344  0.00  0.00    -0.241 OA
ATOM     24  O   LIG d   1       0.161  92.175 120.667  0.00  0.00    -0.241 OA
ENDBRANCH   3  22
TORSDOF 7
ENDMDL
