MODEL 1
REMARK VINA RESULT:      -5.5      0.000      0.000
REMARK  7 active torsions:
REMARK  status: ('A' for Active; 'I' for Inactive)
REMARK    1  A    between atoms: C_2  and  C_3 
REMARK    2  A    between atoms: C_3  and  O_6 
REMARK    3  A    between atoms: C_3  and  C_4 
REMARK    4  A    between atoms: C_7  and  O_6 
REMARK    5  A    between atoms: C_9  and  C_10 
REMARK    6  A    between atoms: N_15  and  C_14 
REMARK    7  A    between atoms: N_20  and  C_19 
REMARK       I    between atoms: C_22  and  N_20 
ROOT
ATOM      1  C   LIG d   1      -4.884  92.024 118.199  0.00  0.00     0.161 C 
ATOM      2  C   LIG d   1      -5.097  91.173 117.102  0.00  0.00     0.016 C 
ATOM      3  C   LIG d   1      -6.311  91.125 116.379  0.00  0.00     0.038 C 
ATOM      4  C   LIG d   1      -7.350  92.038 116.612  0.00  0.00     0.028 C 
ATOM      5  C   LIG d   1      -7.373  92.578 118.038  0.00  0.00    -0.047 C 
ATOM      6  C   LIG d   1      -5.966  93.106 118.398  0.00  0.00     0.091 C 
ENDROOT
BRANCH   1   7
ATOM      7  O   LIG d   1      -3.580  92.630 118.101  0.00  0.00    -0.368 OA
BRANCH   7   8
ATOM      8  C   LIG d   1      -2.614  92.232 119.105  0.00  0.00     0.119 C 
BRANCH   8   9
ATOM      9  C   LIG d   1      -2.309  93.470 119.970  0.00  0.00     0.028 C 
ATOM     10  C   LIG d   1      -2.434  94.784 119.180  0.00  0.00     0.006 C 
ENDBRANCH   8   9
BRANCH   8  11
ATOM     11  C   LIG d   1      -1.277  91.842 118.469  0.00  0.00     0.028 C 
ATOM     12  C   LIG d   1      -1.176  90.338 118.168  0.00  0.00     0.006 C 
ENDBRANCH   8  11
ENDBRANCH   7   8
ENDBRANCH   1   7
BRANCH   6  13
ATOM     13  N   LIG d   1      -5.879  93.575 119.806  0.00  0.00    -0.311 N 
ATOM     14  C   LIG d   1      -6.053  94.845 120.167  0.00  0.00     0.210 C 
ATOM     15  C   LIG d   1      -5.901  95.117 121.667  0.00  0.00     0.109 C 
ATOM     16  O   LIG d   1      -6.350  95.767 119.392  0.00  0.00    -0.276 OA
ATOM     17  H   LIG d   1      -5.672  92.888 120.504  0.00  0.00     0.149 HD
ENDBRANCH   6  13
BRANCH   5  18
ATOM     18  N   LIG d   1      -8.416  93.619 118.104  0.00  0.00     0.381 N 
ATOM     19  H   LIG d   1      -9.133  93.341 118.743  0.00  0.00    -0.090 HD
ATOM     20  H   LIG d   1      -8.827  93.725 117.193  0.00  0.00    -0.090 HD
ATOM     21  H   LIG d   1      -8.016  94.484 118.398  0.00  0.00    -0.090 HD
ENDBRANCH   5  18
BRANCH   3  22
ATOM     22  C   LIG d   1      -6.511  90.127 115.437  0.00  0.00     0.382 C 
ATOM     23  O   LIG d   1      -7.642  89.973 114.917  0.00  0.00    -0.241 OA
ATOM     24  O   LIG d   1      -5.585  89.352 115.132  0.00  0.00    -0.241 OA
ENDBRANCH   3  22
TORSDOF 7
ENDMDL
MODEL 2
REMARK VINA RESULT:      -5.4      2.018      4.349
REMARK  7 active torsions:
REMARK  status: ('A' for Active; 'I' for Inactive)
REMARK    1  A    between atoms: C_2  and  C_3 
REMARK    2  A    between atoms: C_3  and  O_6 
REMARK    3  A    between atoms: C_3  and  C_4 
REMARK    4  A    between atoms: C_7  and  O_6 
REMARK    5  A    between atoms: C_9  and  C_10 
REMARK    6  A    between atoms: N_15  and  C_14 
REMARK    7  A    between atoms: N_20  and  C_19 
REMARK       I    between atoms: C_22  and  N_20 
ROOT
ATOM      1  C   LIG d   1      -6.292  93.216 118.675  0.00  0.00     0.161 C 
ATOM      2  C   LIG d   1      -7.190  92.482 117.883  0.00  0.00     0.016 C 
ATOM      3  C   LIG d   1      -6.798  91.404 117.057  0.00  0.00     0.038 C 
ATOM      4  C   LIG d   1      -5.495  90.886 117.083  0.00  0.00     0.028 C 
ATOM      5  C   LIG d   1      -4.443  91.914 117.486  0.00  0.00    -0.047 C 
ATOM      6  C   LIG d   1      -4.885  92.595 118.801  0.00  0.00     0.091 C 
ENDROOT
BRANCH   1   7
ATOM      7  O   LIG d   1      -6.860  93.439 119.981  0.00  0.00    -0.368 OA
BRANCH   7   8
ATOM      8  C   LIG d   1      -7.238  94.803 120.287  0.00  0.00     0.119 C 
BRANCH   8   9
ATOM      9  C   LIG d   1      -8.778  94.870 120.280  0.00  0.00     0.028 C 
ATOM     10  C   LIG d   1      -9.335  95.421 118.956  0.00  0.00     0.006 C 
ENDBRANCH   8   9
BRANCH   8  11
ATOM     11  C   LIG d   1      -6.785  95.768 119.187  0.00  0.00     0.028 C 
ATOM     12  C   LIG d   1      -5.757  96.796 119.683  0.00  0.00     0.006 C 
ENDBRANCH   8  11
ENDBRANCH   7   8
ENDBRANCH   1   7
BRANCH   6  13
ATOM     13  N   LIG d   1      -3.953  93.674 119.221  0.00  0.00    -0.311 N 
ATOM     14  C   LIG d   1      -2.943  93.482 120.067  0.00  0.00     0.210 C 
ATOM     15  C   LIG d   1      -2.116  94.732 120.383  0.00  0.00     0.109 C 
ATOM     16  O   LIG d   1      -2.632  92.387 120.561  0.00  0.00    -0.276 OA
ATOM     17  H   LIG d   1      -4.113  94.588 118.844  0.00  0.00     0.149 HD
ENDBRANCH   6  13
BRANCH   5  18
ATOM     18  N   LIG d   1      -3.153  91.208 117.605  0.00  0.00     0.381 N 
ATOM     19  H   LIG d   1      -3.151  90.644 118.432  0.00  0.00    -0.090 HD
ATOM     20  H   LIG d   1      -2.417  91.887 117.685  0.00  0.00    -0.090 HD
ATOM     21  H   LIG d   1      -3.002  90.636 116.804  0.00  0.00    -0.090 HD
ENDBRANCH   5  18
BRANCH   3  22
ATOM     22  C   LIG d   1      -7.706  90.857 116.163  0.00  0.00     0.382 C 
ATOM     23  O   LIG d   1      -8.559  91.591 115.608  0.00  0.00    -0.241 OA
ATOM     24  O   LIG d   1      -7.712  89.632 115.938  0.00  0.00    -0.241 OA
ENDBRANCH   3  22
TORSDOF 7
ENDMDL
MODEL 3
REMARK VINA RESULT:      -5.3      0.703      1.823
REMARK  7 active torsions:
REMARK  status: ('A' for Active; 'I' for Inactive)
REMARK    1  A    between atoms: C_2  and  C_3 
REMARK    2  A    between atoms: C_3  and  O_6 
REMARK    3  A    between atoms: C_3  and  C_4 
REMARK    4  A    between atoms: C_7  and  O_6 
REMARK    5  A    between atoms: C_9  and  C_10 
REMARK    6  A    between atoms: N_15  and  C_14 
REMARK    7  A    between atoms: N_20  and  C_19 
REMARK       I    between atoms: C_22  and  N_20 
ROOT
ATOM      1  C   LIG d   1      -4.872  92.042 118.182  0.00  0.00     0.161 C 
ATOM      2  C   LIG d   1      -5.096  91.175 117.100  0.00  0.00     0.016 C 
ATOM      3  C   LIG d   1      -6.321  91.111 116.395  0.00  0.00     0.038 C 
ATOM      4  C   LIG d   1      -7.360  92.023 116.631  0.00  0.00     0.028 C 
ATOM      5  C   LIG d   1      -7.366  92.582 118.050  0.00  0.00    -0.047 C 
ATOM      6  C   LIG d   1      -5.956  93.122 118.382  0.00  0.00     0.091 C 
ENDROOT
BRANCH   1   7
ATOM      7  O   LIG d   1      -3.572  92.653 118.057  0.00  0.00    -0.368 OA
BRANCH   7   8
ATOM      8  C   LIG d   1      -2.588  92.267 119.048  0.00  0.00     0.119 C 
BRANCH   8   9
ATOM      9  C   LIG d   1      -1.549  91.372 118.344  0.00  0.00     0.028 C 
ATOM     10  C   LIG d   1      -1.814  89.875 118.572  0.00  0.00     0.006 C 
ENDBRANCH   8   9
BRANCH   8  11
ATOM     11  C   LIG d   1      -3.209  91.388 120.137  0.00  0.00     0.028 C 
ATOM     12  C   LIG d   1      -3.114  92.016 121.536  0.00  0.00     0.006 C 
ENDBRANCH   8  11
ENDBRANCH   7   8
ENDBRANCH   1   7
BRANCH   6  13
ATOM     13  N   LIG d   1      -5.851  93.610 119.782  0.00  0.00    -0.311 N 
ATOM     14  C   LIG d   1      -6.045  94.881 120.131  0.00  0.00     0.210 C 
ATOM     15  C   LIG d   1      -5.869  95.175 121.624  0.00  0.00     0.109 C 
ATOM     16  O   LIG d   1      -6.378  95.786 119.351  0.00  0.00    -0.276 OA
ATOM     17  H   LIG d   1      -5.615  92.936 120.484  0.00  0.00     0.149 HD
ENDBRANCH   6  13
BRANCH   5  18
ATOM     18  N   LIG d   1      -8.412  93.620 118.116  0.00  0.00     0.381 N 
ATOM     19  H   LIG d   1      -9.297  93.224 117.871  0.00  0.00    -0.090 HD
ATOM     20  H   LIG d   1      -8.195  94.343 117.453  0.00  0.00    -0.090 HD
ATOM     21  H   LIG d   1      -8.454  94.003 119.035  0.00  0.00    -0.090 HD
ENDBRANCH   5  18
BRANCH   3  22
ATOM     22  C   LIG d   1      -6.529  90.100 115.469  0.00  0.00     0.382 C 
ATOM     23  O   LIG d   1      -5.579  89.352 115.134  0.00  0.00    -0.241 OA
ATOM     24  O   LIG d   1      -7.643  89.956 114.932  0.00  0.00    -0.241 OA
ENDBRANCH   3  22
TORSDOF 7
ENDMDL
MODEL 4
REMARK VINA RESULT:      -4.7      1.868      4.777
REMARK  7 active torsions:
REMARK  status: ('A' for Active; 'I' for Inactive)
REMARK    1  A    between atoms: C_2  and  C_3 
REMARK    2  A    between atoms: C_3  and  O_6 
REMARK    3  A    between atoms: C_3  and  C_4 
REMARK    4  A    between atoms: C_7  and  O_6 
REMARK    5  A    between atoms: C_9  and  C_10 
REMARK    6  A    between atoms: N_15  and  C_14 
REMARK    7  A    between atoms: N_20  and  C_19 
REMARK       I    between atoms: C_22  and  N_20 
ROOT
ATOM      1  C   LIG d   1      -4.541  91.884 117.737  0.00  0.00     0.161 C 
ATOM      2  C   LIG d   1      -4.097  92.709 118.784  0.00  0.00     0.016 C 
ATOM      3  C   LIG d   1      -4.951  93.568 119.514  0.00  0.00     0.038 C 
ATOM      4  C   LIG d   1      -6.343  93.548 119.345  0.00  0.00     0.028 C 
ATOM      5  C   LIG d   1      -6.778  93.100 117.954  0.00  0.00    -0.047 C 
ATOM      6  C   LIG d   1      -6.075  91.766 117.613  0.00  0.00     0.091 C 
ENDROOT
BRANCH   1   7
ATOM      7  O   LIG d   1      -3.947  90.577 117.859  0.00  0.00    -0.368 OA
BRANCH   7   8
ATOM      8  C   LIG d   1      -2.876  90.451 118.827  0.00  0.00     0.119 C 
BRANCH   8   9
ATOM      9  C   LIG d   1      -1.544  90.548 118.058  0.00  0.00     0.028 C 
ATOM     10  C   LIG d   1      -0.558  91.529 118.714  0.00  0.00     0.006 C 
ENDBRANCH   8   9
BRANCH   8  11
ATOM     11  C   LIG d   1      -2.871  89.064 119.475  0.00  0.00     0.028 C 
ATOM     12  C   LIG d   1      -2.059  88.035 118.673  0.00  0.00     0.006 C 
ENDBRANCH   8  11
ENDBRANCH   7   8
ENDBRANCH   1   7
BRANCH   6  13
ATOM     13  N   LIG d   1      -6.380  91.301 116.235  0.00  0.00    -0.311 N 
ATOM     14  C   LIG d   1      -7.426  90.532 115.936  0.00  0.00     0.210 C 
ATOM     15  C   LIG d   1      -7.545  90.149 114.457  0.00  0.00     0.109 C 
ATOM     16  O   LIG d   1      -8.284  90.157 116.749  0.00  0.00    -0.276 OA
ATOM     17  H   LIG d   1      -5.753  91.584 115.508  0.00  0.00     0.149 HD
ENDBRANCH   6  13
BRANCH   5  18
ATOM     18  N   LIG d   1      -8.250  92.993 117.960  0.00  0.00     0.381 N 
ATOM     19  H   LIG d   1      -8.536  92.236 117.372  0.00  0.00    -0.090 HD
ATOM     20  H   LIG d   1      -8.639  93.843 117.592  0.00  0.00    -0.090 HD
ATOM     21  H   LIG d   1      -8.577  92.843 118.889  0.00  0.00    -0.090 HD
ENDBRANCH   5  18
BRANCH   3  22
ATOM     22  C   LIG d   1      -4.408  94.488 120.397  0.00  0.00     0.382 C 
ATOM     23  O   LIG d   1      -3.640  95.386 119.974  0.00  0.00    -0.241 OA
ATOM     24  O   LIG d   1      -4.640  94.406 121.618  0.00  0.00    -0.241 OA
ENDBRANCH   3  22
TORSDOF 7
ENDMDL
MODEL 5
REMARK VINA RESULT:      -4.5      2.135      5.428
REMARK  7 active torsions:
REMARK  status: ('A' for Active; 'I' for Inactive)
REMARK    1  A    between atoms: C_2  and  C_3 
REMARK    2  A    between atoms: C_3  and  O_6 
REMARK    3  A    between atoms: C_3  and  C_4 
REMARK    4  A    between atoms: C_7  and  O_6 
REMARK    5  A    between atoms: C_9  and  C_10 
REMARK    6  A    between atoms: N_15  and  C_14 
REMARK    7  A    between atoms: N_20  and  C_19 
REMARK       I    between atoms: C_22  and  N_20 
ROOT
ATOM      1  C   LIG d   1      -7.127  92.704 117.823  0.00  0.00     0.161 C 
ATOM      2  C   LIG d   1      -8.273  93.490 118.025  0.00  0.00     0.016 C 
ATOM      3  C   LIG d   1      -8.385  94.452 119.056  0.00  0.00     0.038 C 
ATOM      4  C   LIG d   1      -7.295  94.800 119.866  0.00  0.00     0.028 C 
ATOM      5  C   LIG d   1      -6.276  93.677 120.027  0.00  0.00    -0.047 C 
ATOM      6  C   LIG d   1      -5.887  93.148 118.627  0.00  0.00     0.091 C 
ENDROOT
BRANCH   1   7
ATOM      7  O   LIG d   1      -6.817  92.644 116.416  0.00  0.00    -0.368 OA
BRANCH   7   8
ATOM      8  C   LIG d   1      -7.457  91.583 115.667  0.00  0.00     0.119 C 
BRANCH   8   9
ATOM      9  C   LIG d   1      -8.055  90.593 116.685  0.00  0.00     0.028 C 
ATOM     10  C   LIG d   1      -8.912  89.507 116.013  0.00  0.00     0.006 C 
ENDBRANCH   8   9
BRANCH   8  11
ATOM     11  C   LIG d   1      -6.435  90.772 114.864  0.00  0.00     0.028 C 
ATOM     12  C   LIG d   1      -5.384  90.091 115.754  0.00  0.00     0.006 C 
ENDBRANCH   8  11
ENDBRANCH   7   8
ENDBRANCH   1   7
BRANCH   6  13
ATOM     13  N   LIG d   1      -4.958  91.991 118.697  0.00  0.00    -0.311 N 
ATOM     14  C   LIG d   1      -3.638  92.101 118.556  0.00  0.00     0.210 C 
ATOM     15  C   LIG d   1      -2.866  90.781 118.642  0.00  0.00     0.109 C 
ATOM     16  O   LIG d   1      -3.030  93.171 118.401  0.00  0.00    -0.276 OA
ATOM     17  H   LIG d   1      -5.363  91.088 118.851  0.00  0.00     0.149 HD
ENDBRANCH   6  13
BRANCH   5  18
ATOM     18  N   LIG d   1      -5.129  94.220 120.778  0.00  0.00     0.381 N 
ATOM     19  H   LIG d   1      -5.446  94.615 121.642  0.00  0.00    -0.090 HD
ATOM     20  H   LIG d   1      -4.701  94.950 120.236  0.00  0.00    -0.090 HD
ATOM     21  H   LIG d   1      -4.466  93.498 120.958  0.00  0.00    -0.090 HD
ENDBRANCH   5  18
BRANCH   3  22
ATOM     22  C   LIG d   1      -9.612  95.047 119.309  0.00  0.00     0.382 C 
ATOM     23  O   LIG d   1     -10.671  94.394 119.148  0.00  0.00    -0.241 OA
ATOM     24  O   LIG d   1      -9.674  96.242 119.655  0.00  0.00    -0.241 OA
ENDBRANCH   3  22
TORSDOF 7
ENDMDL
MODEL 6
REMARK VINA RESULT:      -4.4      2.208      4.041
REMARK  7 active torsions:
REMARK  status: ('A' for Active; 'I' for Inactive)
REMARK    1  A    between atoms: C_2  and  C_3 
REMARK    2  A    between atoms: C_3  and  O_6 
REMARK    3  A    between atoms: C_3  and  C_4 
REMARK    4  A    between atoms: C_7  and  O_6 
REMARK    5  A    between atoms: C_9  and  C_10 
REMARK    6  A    between atoms: N_15  and  C_14 
REMARK    7  A    between atoms: N_20  and  C_19 
REMARK       I    between atoms: C_22  and  N_20 
ROOT
ATOM      1  C   LIG d   1      -5.837  93.461 120.287  0.00  0.00     0.161 C 
ATOM      2  C   LIG d   1      -4.709  92.768 119.818  0.00  0.00     0.016 C 
ATOM      3  C   LIG d   1      -4.668  92.100 118.573  0.00  0.00     0.038 C 
ATOM      4  C   LIG d   1      -5.709  92.208 117.639  0.00  0.00     0.028 C 
ATOM      5  C   LIG d   1      -7.068  92.477 118.276  0.00  0.00    -0.047 C 
ATOM      6  C   LIG d   1      -6.943  93.684 119.234  0.00  0.00     0.091 C 
ENDROOT
BRANCH   1   7
ATOM      7  O   LIG d   1      -5.434  94.720 120.863  0.00  0.00    -0.368 OA
BRANCH   7   8
ATOM      8  C   LIG d   1      -5.027  95.748 119.926  0.00  0.00     0.119 C 
BRANCH   8   9
ATOM      9  C   LIG d   1      -3.610  96.203 120.325  0.00  0.00     0.028 C 
ATOM     10  C   LIG d   1      -2.548  95.783 119.295  0.00  0.00     0.006 C 
ENDBRANCH   8   9
BRANCH   8  11
ATOM     11  C   LIG d   1      -5.905  96.996 120.054  0.00  0.00     0.028 C 
ATOM     12  C   LIG d   1      -6.707  97.029 121.365  0.00  0.00     0.006 C 
ENDBRANCH   8  11
ENDBRANCH   7   8
ENDBRANCH   1   7
BRANCH   6  13
ATOM     13  N   LIG d   1      -8.208  93.962 119.963  0.00  0.00    -0.311 N 
ATOM     14  C   LIG d   1      -9.110  94.853 119.553  0.00  0.00     0.210 C 
ATOM     15  C   LIG d   1     -10.334  95.000 120.462  0.00  0.00     0.109 C 
ATOM     16  O   LIG d   1      -9.026  95.513 118.506  0.00  0.00    -0.276 OA
ATOM     17  H   LIG d   1      -8.371  93.449 120.807  0.00  0.00     0.149 HD
ENDBRANCH   6  13
BRANCH   5  18
ATOM     18  N   LIG d   1      -8.035  92.704 117.184  0.00  0.00     0.381 N 
ATOM     19  H   LIG d   1      -8.903  93.025 117.562  0.00  0.00    -0.090 HD
ATOM     20  H   LIG d   1      -8.200  91.833 116.711  0.00  0.00    -0.090 HD
ATOM     21  H   LIG d   1      -7.674  93.376 116.543  0.00  0.00    -0.090 HD
ENDBRANCH   5  18
BRANCH   3  22
ATOM     22  C   LIG d   1      -3.592  91.280 118.268  0.00  0.00     0.382 C 
ATOM     23  O   LIG d   1      -3.784  90.072 117.989  0.00  0.00    -0.241 OA
ATOM     24  O   LIG d   1      -2.429  91.723 118.312  0.00  0.00    -0.241 OA
ENDBRANCH   3  22
TORSDOF 7
ENDMDL
MODEL 7
REMARK VINA RESULT:      -4.3      2.349      5.934
REMARK  7 active torsions:
REMARK  status: ('A' for Active; 'I' for Inactive)
REMARK    1  A    between atoms: C_2  and  C_3 
REMARK    2  A    between atoms: C_3  and  O_6 
REMARK    3  A    between atoms: C_3  and  C_4 
REMARK    4  A    between atoms: C_7  and  O_6 
REMARK    5  A    between atoms: C_9  and  C_10 
REMARK    6  A    between atoms: N_15  and  C_14 
REMARK    7  A    between atoms: N_20  and  C_19 
REMARK       I    between atoms: C_22  and  N_20 
ROOT
ATOM      1  C   LIG d   1      -6.078  92.930 119.239  0.00  0.00     0.161 C 
ATOM      2  C   LIG d   1      -5.057  93.311 120.125  0.00  0.00     0.016 C 
ATOM      3  C   LIG d   1      -3.722  92.859 120.017  0.00  0.00     0.038 C 
ATOM      4  C   LIG d   1      -3.281  92.108 118.917  0.00  0.00     0.028 C 
ATOM      5  C   LIG d   1      -4.385  91.281 118.266  0.00  0.00    -0.047 C 
ATOM      6  C   LIG d   1      -5.592  92.200 117.969  0.00  0.00     0.091 C 
ENDROOT
BRANCH   1   7
ATOM      7  O   LIG d   1      -6.871  94.080 118.883  0.00  0.00    -0.368 OA
BRANCH   7   8
ATOM      8  C   LIG d   1      -7.285  94.932 119.979  0.00  0.00     0.119 C 
BRANCH   8   9
ATOM      9  C   LIG d   1      -8.816  94.806 120.110  0.00  0.00     0.028 C 
ATOM     10  C   LIG d   1      -9.561  95.452 118.931  0.00  0.00     0.006 C 
ENDBRANCH   8   9
BRANCH   8  11
ATOM     11  C   LIG d   1      -7.025  96.408 119.667  0.00  0.00     0.028 C 
ATOM     12  C   LIG d   1      -5.531  96.766 119.683  0.00  0.00     0.006 C 
ENDBRANCH   8  11
ENDBRANCH   7   8
ENDBRANCH   1   7
BRANCH   6  13
ATOM     13  N   LIG d   1      -6.748  91.454 117.408  0.00  0.00    -0.311 N 
ATOM     14  C   LIG d   1      -6.961  91.305 116.102  0.00  0.00     0.210 C 
ATOM     15  C   LIG d   1      -8.223  90.517 115.738  0.00  0.00     0.109 C 
ATOM     16  O   LIG d   1      -6.206  91.722 115.210  0.00  0.00    -0.276 OA
ATOM     17  H   LIG d   1      -7.394  91.056 118.061  0.00  0.00     0.149 HD
ENDBRANCH   6  13
BRANCH   5  18
ATOM     18  N   LIG d   1      -3.820  90.658 117.054  0.00  0.00     0.381 N 
ATOM     19  H   LIG d   1      -4.540  90.176 116.554  0.00  0.00    -0.090 HD
ATOM     20  H   LIG d   1      -3.124  89.988 117.328  0.00  0.00    -0.090 HD
ATOM     21  H   LIG d   1      -3.410  91.355 116.472  0.00  0.00    -0.090 HD
ENDBRANCH   5  18
BRANCH   3  22
ATOM     22  C   LIG d   1      -2.821  93.124 121.037  0.00  0.00     0.382 C 
ATOM     23  O   LIG d   1      -1.930  92.287 121.320  0.00  0.00    -0.241 OA
ATOM     24  O   LIG d   1      -2.916  94.169 121.707  0.00  0.00    -0.241 OA
ENDBRANCH   3  22
TORSDOF 7
ENDMDL
MODEL 8
REMARK VINA RESULT:      -4.3      1.809      2.301
REMARK  7 active torsions:
REMARK  status: ('A' for Active; 'I' for Inactive)
REMARK    1  A    between atoms: C_2  and  C_3 
REMARK    2  A    between atoms: C_3  and  O_6 
REMARK    3  A    between atoms: C_3  and  C_4 
REMARK    4  A    between atoms: C_7  and  O_6 
REMARK    5  A    between atoms: C_9  and  C_10 
REMARK    6  A    between atoms: N_15  and  C_14 
REMARK    7  A    between atoms: N_20  and  C_19 
REMARK       I    between atoms: C_22  and  N_20 
ROOT
ATOM      1  C   LIG d   1      -4.961  93.553 119.652  0.00  0.00     0.161 C 
ATOM      2  C   LIG d   1      -4.541  92.503 118.818  0.00  0.00     0.016 C 
ATOM      3  C   LIG d   1      -5.372  91.902 117.846  0.00  0.00     0.038 C 
ATOM      4  C   LIG d   1      -6.641  92.414 117.535  0.00  0.00     0.028 C 
ATOM      5  C   LIG d   1      -7.297  93.152 118.697  0.00  0.00    -0.047 C 
ATOM      6  C   LIG d   1      -6.304  94.199 119.252  0.00  0.00     0.091 C 
ENDROOT
BRANCH   1   7
ATOM      7  O   LIG d   1      -3.928  94.555 119.735  0.00  0.00    -0.368 OA
BRANCH   7   8
ATOM      8  C   LIG d   1      -2.564  94.071 119.669  0.00  0.00     0.119 C 
BRANCH   8   9
ATOM      9  C   LIG d   1      -1.993  94.100 121.100  0.00  0.00     0.028 C 
ATOM     10  C   LIG d   1      -2.508  95.300 121.913  0.00  0.00     0.006 C 
ENDBRANCH   8   9
BRANCH   8  11
ATOM     11  C   LIG d   1      -1.675  95.018 118.859  0.00  0.00     0.028 C 
ATOM     12  C   LIG d   1      -1.288  94.444 117.486  0.00  0.00     0.006 C 
ENDBRANCH   8  11
ENDBRANCH   7   8
ENDBRANCH   1   7
BRANCH   6  13
ATOM     13  N   LIG d   1      -6.835  94.907 120.446  0.00  0.00    -0.311 N 
ATOM     14  C   LIG d   1      -6.738  96.224 120.620  0.00  0.00     0.210 C 
ATOM     15  C   LIG d   1      -7.334  96.749 121.930  0.00  0.00     0.109 C 
ATOM     16  O   LIG d   1      -6.243  97.012 119.800  0.00  0.00    -0.276 OA
ATOM     17  H   LIG d   1      -7.281  94.349 121.147  0.00  0.00     0.149 HD
ENDBRANCH   6  13
BRANCH   5  18
ATOM     18  N   LIG d   1      -8.548  93.751 118.196  0.00  0.00     0.381 N 
ATOM     19  H   LIG d   1      -9.127  93.040 117.795  0.00  0.00    -0.090 HD
ATOM     20  H   LIG d   1      -8.324  94.418 117.478  0.00  0.00    -0.090 HD
ATOM     21  H   LIG d   1      -9.032  94.203 118.940  0.00  0.00    -0.090 HD
ENDBRANCH   5  18
BRANCH   3  22
ATOM     22  C   LIG d   1      -4.951  90.750 117.199  0.00  0.00     0.382 C 
ATOM     23  O   LIG d   1      -4.038  90.049 117.698  0.00  0.00    -0.241 OA
ATOM     24  O   LIG d   1      -5.442  90.426 116.101  0.00  0.00    -0.241 OA
ENDBRANCH   3  22
TORSDOF 7
ENDMDL
MODEL 9
REMARK VINA RESULT:      -4.2      2.566      4.395
REMARK  7 active torsions:
REMARK  status: ('A' for Active; 'I' for Inactive)
REMARK    1  A    between atoms: C_2  and  C_3 
REMARK    2  A    between atoms: C_3  and  O_6 
REMARK    3  A    between atoms: C_3  and  C_4 
REMARK    4  A    between atoms: C_7  and  O_6 
REMARK    5  A    between atoms: C_9  and  C_10 
REMARK    6  A    between atoms: N_15  and  C_14 
REMARK    7  A    between atoms: N_20  and  C_19 
REMARK       I    between atoms: C_22  and  N_20 
ROOT
ATOM      1  C   LIG d   1      -4.226  92.749 119.278  0.00  0.00     0.161 C 
ATOM      2  C   LIG d   1      -5.463  93.408 119.362  0.00  0.00     0.016 C 
ATOM      3  C   LIG d   1      -6.542  93.153 118.484  0.00  0.00     0.038 C 
ATOM      4  C   LIG d   1      -6.507  92.106 117.551  0.00  0.00     0.028 C 
ATOM      5  C   LIG d   1      -5.097  91.750 117.094  0.00  0.00    -0.047 C 
ATOM      6  C   LIG d   1      -4.207  91.526 118.338  0.00  0.00     0.091 C 
ENDROOT
BRANCH   1   7
ATOM      7  O   LIG d   1      -3.781  92.374 120.597  0.00  0.00    -0.368 OA
BRANCH   7   8
ATOM      8  C   LIG d   1      -2.634  93.094 121.111  0.00  0.00     0.119 C 
BRANCH   8   9
ATOM      9  C   LIG d   1      -2.114  94.004 119.982  0.00  0.00     0.028 C 
ATOM     10  C   LIG d   1      -0.642  93.727 119.635  0.00  0.00     0.006 C 
ENDBRANCH   8   9
BRANCH   8  11
ATOM     11  C   LIG d   1      -1.477  92.143 121.430  0.00  0.00     0.028 C 
ATOM     12  C   LIG d   1      -1.954  90.770 121.929  0.00  0.00     0.006 C 
ENDBRANCH   8  11
ENDBRANCH   7   8
ENDBRANCH   1   7
BRANCH   6  13
ATOM     13  N   LIG d   1      -2.790  91.255 117.980  0.00  0.00    -0.311 N 
ATOM     14  C   LIG d   1      -2.143  90.147 118.335  0.00  0.00     0.210 C 
ATOM     15  C   LIG d   1      -0.682  90.077 117.880  0.00  0.00     0.109 C 
ATOM     16  O   LIG d   1      -2.649  89.200 118.956  0.00  0.00    -0.276 OA
ATOM     17  H   LIG d   1      -2.312  91.957 117.449  0.00  0.00     0.149 HD
ENDBRANCH   6  13
BRANCH   5  18
ATOM     18  N   LIG d   1      -5.196  90.557 116.232  0.00  0.00     0.381 N 
ATOM     19  H   LIG d   1      -6.158  90.318 116.093  0.00  0.00    -0.090 HD
ATOM     20  H   LIG d   1      -4.742  89.786 116.689  0.00  0.00    -0.090 HD
ATOM     21  H   LIG d   1      -4.761  90.734 115.353  0.00  0.00    -0.090 HD
ENDBRANCH   5  18
BRANCH   3  22
ATOM     22  C   LIG d   1      -7.658  93.976 118.509  0.00  0.00     0.382 C 
ATOM     23  O   LIG d   1      -7.559  95.153 118.934  0.00  0.00    -0.241 OA
ATOM     24  O   LIG d   1      -8.770  93.544 118.153  0.00  0.00    -0.241 OA
ENDBRANCH   3  22
TORSDOF 7
ENDMDL
