MODEL 1
REMARK VINA RESULT:      -5.6      0.000      0.000
REMARK  7 active torsions:
REMARK  status: ('A' for Active; 'I' for Inactive)
REMARK    1  A    between atoms: C_2  and  C_3 
REMARK    2  A    between atoms: C_3  and  O_6 
REMARK    3  A    between atoms: C_3  and  C_4 
REMARK    4  A    between atoms: C_7  and  O_6 
REMARK    5  A    between atoms: C_9  and  C_10 
REMARK    6  A    between atoms: N_15  and  C_14 
REMARK    7  A    between atoms: N_20  and  C_19 
REMARK       I    between atoms: C_22  and  N_20 
ROOT
ATOM      1  C   LIG d   1      -5.621  92.305 117.548  0.00  0.00     0.161 C 
ATOM      2  C   LIG d   1      -6.595  91.335 117.257  0.00  0.00     0.016 C 
ATOM      3  C   LIG d   1      -6.287  89.985 116.970  0.00  0.00     0.038 C 
ATOM      4  C   LIG d   1      -4.987  89.477 117.103  0.00  0.00     0.028 C 
ATOM      5  C   LIG d   1      -3.901  90.529 116.902  0.00  0.00    -0.047 C 
ATOM      6  C   LIG d   1      -4.207  91.744 117.807  0.00  0.00     0.091 C 
ENDROOT
BRANCH   1   7
ATOM      7  O   LIG d   1      -6.052  93.111 118.662  0.00  0.00    -0.368 OA
BRANCH   7   8
ATOM      8  C   LIG d   1      -6.489  94.455 118.345  0.00  0.00     0.119 C 
BRANCH   8   9
ATOM      9  C   LIG d   1      -6.116  95.357 119.538  0.00  0.00     0.028 C 
ATOM     10  C   LIG d   1      -4.596  95.444 119.755  0.00  0.00     0.006 C 
ENDBRANCH   8   9
BRANCH   8  11
ATOM     11  C   LIG d   1      -8.015  94.535 118.238  0.00  0.00     0.028 C 
ATOM     12  C   LIG d   1      -8.685  94.937 119.561  0.00  0.00     0.006 C 
ENDBRANCH   8  11
ENDBRANCH   7   8
ENDBRANCH   1   7
BRANCH   6  13
ATOM     13  N   LIG d   1      -3.240  92.855 117.610  0.00  0.00    -0.311 N 
ATOM     14  C   LIG d   1      -2.148  93.018 118.356  0.00  0.00     0.210 C 
ATOM     15  C   LIG d   1      -1.297  94.240 117.998  0.00  0.00     0.109 C 
ATOM     16  O   LIG d   1      -1.787  92.248 119.259  0.00  0.00    -0.276 OA
ATOM     17  H   LIG d   1      -3.439  93.509 116.879  0.00  0.00     0.149 HD
ENDBRANCH   6  13
BRANCH   5  18
ATOM     18  N   LIG d   1      -2.604  89.895 117.205  0.00  0.00     0.381 N 
ATOM     19  H   LIG d   1      -1.964  90.581 117.551  0.00  0.00    -0.090 HD
ATOM     20  H   LIG d   1      -2.226  89.509 116.357  0.00  0.00    -0.090 HD
ATOM     21  H   LIG d   1      -2.727  89.174 117.881  0.00  0.00    -0.090 HD
ENDBRANCH   5  18
BRANCH   3  22
ATOM     22  C   LIG d   1      -7.281  89.137 116.505  0.00  0.00     0.382 C 
ATOM     23  O   LIG d   1      -7.553  89.102 115.281  0.00  0.00    -0.241 OA
ATOM     24  O   LIG d   1      -7.940  88.441 117.300  0.00  0.00    -0.241 OA
ENDBRANCH   3  22
TORSDOF 7
ENDMDL
MODEL 2
REMARK VINA RESULT:      -5.5      1.333      1.991
REMARK  7 active torsions:
REMARK  status: ('A' for Active; 'I' for Inactive)
REMARK    1  A    between atoms: C_2  and  C_3 
REMARK    2  A    between atoms: C_3  and  O_6 
REMARK    3  A    between atoms: C_3  and  C_4 
REMARK    4  A    between atoms: C_7  and  O_6 
REMARK    5  A    between atoms: C_9  and  C_10 
REMARK    6  A    between atoms: N_15  and  C_14 
REMARK    7  A    between atoms: N_20  and  C_19 
REMARK       I    between atoms: C_22  and  N_20 
ROOT
ATOM      1  C   LIG d   1      -5.542  92.422 117.544  0.00  0.00     0.161 C 
ATOM      2  C   LIG d   1      -6.611  91.545 117.295  0.00  0.00     0.016 C 
ATOM      3  C   LIG d   1      -6.440  90.172 117.005  0.00  0.00     0.038 C 
ATOM      4  C   LIG d   1      -5.187  89.546 117.093  0.00  0.00     0.028 C 
ATOM      5  C   LIG d   1      -4.018  90.493 116.846  0.00  0.00    -0.047 C 
ATOM      6  C   LIG d   1      -4.177  91.734 117.755  0.00  0.00     0.091 C 
ENDROOT
BRANCH   1   7
ATOM      7  O   LIG d   1      -5.855  93.268 118.669  0.00  0.00    -0.368 OA
BRANCH   7   8
ATOM      8  C   LIG d   1      -6.717  92.690 119.680  0.00  0.00     0.119 C 
BRANCH   8   9
ATOM      9  C   LIG d   1      -7.640  93.810 120.197  0.00  0.00     0.028 C 
ATOM     10  C   LIG d   1      -8.139  94.728 119.068  0.00  0.00     0.006 C 
ENDBRANCH   8   9
BRANCH   8  11
ATOM     11  C   LIG d   1      -5.914  92.230 120.900  0.00  0.00     0.028 C 
ATOM     12  C   LIG d   1      -5.793  90.701 120.993  0.00  0.00     0.006 C 
ENDBRANCH   8  11
ENDBRANCH   7   8
ENDBRANCH   1   7
BRANCH   6  13
ATOM     13  N   LIG d   1      -3.119  92.750 117.516  0.00  0.00    -0.311 N 
ATOM     14  C   LIG d   1      -2.314  93.210 118.472  0.00  0.00     0.210 C 
ATOM     15  C   LIG d   1      -1.307  94.270 118.016  0.00  0.00     0.109 C 
ATOM     16  O   LIG d   1      -2.318  92.817 119.649  0.00  0.00    -0.276 OA
ATOM     17  H   LIG d   1      -3.026  93.101 116.582  0.00  0.00     0.149 HD
ENDBRANCH   6  13
BRANCH   5  18
ATOM     18  N   LIG d   1      -2.775  89.743 117.105  0.00  0.00     0.381 N 
ATOM     19  H   LIG d   1      -2.145  89.855 116.335  0.00  0.00    -0.090 HD
ATOM     20  H   LIG d   1      -2.996  88.767 117.192  0.00  0.00    -0.090 HD
ATOM     21  H   LIG d   1      -2.347  90.070 117.943  0.00  0.00    -0.090 HD
ENDBRANCH   5  18
BRANCH   3  22
ATOM     22  C   LIG d   1      -7.524  89.419 116.582  0.00  0.00     0.382 C 
ATOM     23  O   LIG d   1      -7.871  88.401 117.229  0.00  0.00    -0.241 OA
ATOM     24  O   LIG d   1      -8.132  89.718 115.537  0.00  0.00    -0.241 OA
ENDBRANCH   3  22
TORSDOF 7
ENDMDL
MODEL 3
REMARK VINA RESULT:      -5.4      1.054      1.773
REMARK  7 active torsions:
REMARK  status: ('A' for Active; 'I' for Inactive)
REMARK    1  A    between atoms: C_2  and  C_3 
REMARK    2  A    between atoms: C_3  and  O_6 
REMARK    3  A    between atoms: C_3  and  C_4 
REMARK    4  A    between atoms: C_7  and  O_6 
REMARK    5  A    between atoms: C_9  and  C_10 
REMARK    6  A    between atoms: N_15  and  C_14 
REMARK    7  A    between atoms: N_20  and  C_19 
REMARK       I    between atoms: C_22  and  N_20 
ROOT
ATOM      1  C   LIG d   1      -5.649  92.412 117.436  0.00  0.00     0.161 C 
ATOM      2  C   LIG d   1      -6.685  91.499 117.175  0.00  0.00     0.016 C 
ATOM      3  C   LIG d   1      -6.468  90.120 116.950  0.00  0.00     0.038 C 
ATOM      4  C   LIG d   1      -5.207  89.530 117.121  0.00  0.00     0.028 C 
ATOM      5  C   LIG d   1      -4.050  90.496 116.888  0.00  0.00    -0.047 C 
ATOM      6  C   LIG d   1      -4.279  91.768 117.736  0.00  0.00     0.091 C 
ENDROOT
BRANCH   1   7
ATOM      7  O   LIG d   1      -6.034  93.294 118.509  0.00  0.00    -0.368 OA
BRANCH   7   8
ATOM      8  C   LIG d   1      -5.697  92.853 119.848  0.00  0.00     0.119 C 
BRANCH   8   9
ATOM      9  C   LIG d   1      -7.012  92.464 120.551  0.00  0.00     0.028 C 
ATOM     10  C   LIG d   1      -7.988  93.647 120.668  0.00  0.00     0.006 C 
ENDBRANCH   8   9
BRANCH   8  11
ATOM     11  C   LIG d   1      -5.116  93.998 120.682  0.00  0.00     0.028 C 
ATOM     12  C   LIG d   1      -4.703  95.207 119.827  0.00  0.00     0.006 C 
ENDBRANCH   8  11
ENDBRANCH   7   8
ENDBRANCH   1   7
BRANCH   6  13
ATOM     13  N   LIG d   1      -3.236  92.800 117.503  0.00  0.00    -0.311 N 
ATOM     14  C   LIG d   1      -2.195  92.986 118.313  0.00  0.00     0.210 C 
ATOM     15  C   LIG d   1      -1.248  94.117 117.900  0.00  0.00     0.109 C 
ATOM     16  O   LIG d   1      -1.948  92.300 119.316  0.00  0.00    -0.276 OA
ATOM     17  H   LIG d   1      -3.342  93.381 116.695  0.00  0.00     0.149 HD
ENDBRANCH   6  13
BRANCH   5  18
ATOM     18  N   LIG d   1      -2.802  89.788 117.233  0.00  0.00     0.381 N 
ATOM     19  H   LIG d   1      -2.235  90.367 117.820  0.00  0.00    -0.090 HD
ATOM     20  H   LIG d   1      -2.292  89.599 116.389  0.00  0.00    -0.090 HD
ATOM     21  H   LIG d   1      -3.013  88.934 117.701  0.00  0.00    -0.090 HD
ENDBRANCH   5  18
BRANCH   3  22
ATOM     22  C   LIG d   1      -7.514  89.323 116.510  0.00  0.00     0.382 C 
ATOM     23  O   LIG d   1      -8.071  89.569 115.413  0.00  0.00    -0.241 OA
ATOM     24  O   LIG d   1      -7.936  88.388 117.216  0.00  0.00    -0.241 OA
ENDBRANCH   3  22
TORSDOF 7
ENDMDL
MODEL 4
REMARK VINA RESULT:      -5.2      2.140      5.066
REMARK  7 active torsions:
REMARK  status: ('A' for Active; 'I' for Inactive)
REMARK    1  A    between atoms: C_2  and  C_3 
REMARK    2  A    between atoms: C_3  and  O_6 
REMARK    3  A    between atoms: C_3  and  C_4 
REMARK    4  A    between atoms: C_7  and  O_6 
REMARK    5  A    between atoms: C_9  and  C_10 
REMARK    6  A    between atoms: N_15  and  C_14 
REMARK    7  A    between atoms: N_20  and  C_19 
REMARK       I    between atoms: C_22  and  N_20 
ROOT
ATOM      1  C   LIG d   1      -5.912  90.416 118.631  0.00  0.00     0.161 C 
ATOM      2  C   LIG d   1      -6.487  91.684 118.445  0.00  0.00     0.016 C 
ATOM      3  C   LIG d   1      -5.752  92.890 118.512  0.00  0.00     0.038 C 
ATOM      4  C   LIG d   1      -4.353  92.900 118.621  0.00  0.00     0.028 C 
ATOM      5  C   LIG d   1      -3.791  91.665 119.316  0.00  0.00    -0.047 C 
ATOM      6  C   LIG d   1      -4.369  90.401 118.640  0.00  0.00     0.091 C 
ENDROOT
BRANCH   1   7
ATOM      7  O   LIG d   1      -6.416  89.501 117.639  0.00  0.00    -0.368 OA
BRANCH   7   8
ATOM      8  C   LIG d   1      -7.029  90.100 116.471  0.00  0.00     0.119 C 
BRANCH   8   9
ATOM      9  C   LIG d   1      -8.078  89.106 115.936  0.00  0.00     0.028 C 
ATOM     10  C   LIG d   1      -8.795  88.347 117.065  0.00  0.00     0.006 C 
ENDBRANCH   8   9
BRANCH   8  11
ATOM     11  C   LIG d   1      -6.015  90.270 115.335  0.00  0.00     0.028 C 
ATOM     12  C   LIG d   1      -5.964  91.708 114.793  0.00  0.00     0.006 C 
ENDBRANCH   8  11
ENDBRANCH   7   8
ENDBRANCH   1   7
BRANCH   6  13
ATOM     13  N   LIG d   1      -3.935  89.150 119.314  0.00  0.00    -0.311 N 
ATOM     14  C   LIG d   1      -2.911  88.408 118.894  0.00  0.00     0.210 C 
ATOM     15  C   LIG d   1      -2.645  87.146 119.721  0.00  0.00     0.109 C 
ATOM     16  O   LIG d   1      -2.178  88.693 117.935  0.00  0.00    -0.276 OA
ATOM     17  H   LIG d   1      -4.455  88.861 120.119  0.00  0.00     0.149 HD
ENDBRANCH   6  13
BRANCH   5  18
ATOM     18  N   LIG d   1      -2.319  91.741 119.238  0.00  0.00     0.381 N 
ATOM     19  H   LIG d   1      -1.939  90.824 119.121  0.00  0.00    -0.090 HD
ATOM     20  H   LIG d   1      -1.967  92.121 120.099  0.00  0.00    -0.090 HD
ATOM     21  H   LIG d   1      -2.048  92.322 118.475  0.00  0.00    -0.090 HD
ENDBRANCH   5  18
BRANCH   3  22
ATOM     22  C   LIG d   1      -6.421  94.104 118.510  0.00  0.00     0.382 C 
ATOM     23  O   LIG d   1      -5.868  95.126 118.984  0.00  0.00    -0.241 OA
ATOM     24  O   LIG d   1      -7.588  94.181 118.082  0.00  0.00    -0.241 OA
ENDBRANCH   3  22
TORSDOF 7
ENDMDL
MODEL 5
REMARK VINA RESULT:      -5.0      2.233      4.771
REMARK  7 active torsions:
REMARK  status: ('A' for Active; 'I' for Inactive)
REMARK    1  A    between atoms: C_2  and  C_3 
REMARK    2  A    between atoms: C_3  and  O_6 
REMARK    3  A    between atoms: C_3  and  C_4 
REMARK    4  A    between atoms: C_7  and  O_6 
REMARK    5  A    between atoms: C_9  and  C_10 
REMARK    6  A    between atoms: N_15  and  C_14 
REMARK    7  A    between atoms: N_20  and  C_19 
REMARK       I    between atoms: C_22  and  N_20 
ROOT
ATOM      1  C   LIG d   1      -3.965  90.487 118.004  0.00  0.00     0.161 C 
ATOM      2  C   LIG d   1      -4.911  89.670 117.363  0.00  0.00     0.016 C 
ATOM      3  C   LIG d   1      -6.149  90.148 116.875  0.00  0.00     0.038 C 
ATOM      4  C   LIG d   1      -6.462  91.515 116.860  0.00  0.00     0.028 C 
ATOM      5  C   LIG d   1      -5.755  92.310 117.952  0.00  0.00    -0.047 C 
ATOM      6  C   LIG d   1      -4.241  92.001 117.897  0.00  0.00     0.091 C 
ENDROOT
BRANCH   1   7
ATOM      7  O   LIG d   1      -2.645  90.182 117.514  0.00  0.00    -0.368 OA
BRANCH   7   8
ATOM      8  C   LIG d   1      -1.769  89.483 118.432  0.00  0.00     0.119 C 
BRANCH   8   9
ATOM      9  C   LIG d   1      -0.403  90.194 118.402  0.00  0.00     0.028 C 
ATOM     10  C   LIG d   1       0.065  90.506 116.970  0.00  0.00     0.006 C 
ENDBRANCH   8   9
BRANCH   8  11
ATOM     11  C   LIG d   1      -1.493  88.053 117.958  0.00  0.00     0.028 C 
ATOM     12  C   LIG d   1      -0.695  87.229 118.982  0.00  0.00     0.006 C 
ENDBRANCH   8  11
ENDBRANCH   7   8
ENDBRANCH   1   7
BRANCH   6  13
ATOM     13  N   LIG d   1      -3.485  92.674 118.986  0.00  0.00    -0.311 N 
ATOM     14  C   LIG d   1      -2.348  93.337 118.787  0.00  0.00     0.210 C 
ATOM     15  C   LIG d   1      -1.721  93.939 120.049  0.00  0.00     0.109 C 
ATOM     16  O   LIG d   1      -1.815  93.512 117.681  0.00  0.00    -0.276 OA
ATOM     17  H   LIG d   1      -3.863  92.609 119.911  0.00  0.00     0.149 HD
ENDBRANCH   6  13
BRANCH   5  18
ATOM     18  N   LIG d   1      -6.062  93.737 117.735  0.00  0.00     0.381 N 
ATOM     19  H   LIG d   1      -6.282  93.893 116.772  0.00  0.00    -0.090 HD
ATOM     20  H   LIG d   1      -5.251  94.283 117.966  0.00  0.00    -0.090 HD
ATOM     21  H   LIG d   1      -6.830  94.011 118.308  0.00  0.00    -0.090 HD
ENDBRANCH   5  18
BRANCH   3  22
ATOM     22  C   LIG d   1      -7.107  89.248 116.431  0.00  0.00     0.382 C 
ATOM     23  O   LIG d   1      -7.363  89.159 115.206  0.00  0.00    -0.241 OA
ATOM     24  O   LIG d   1      -7.748  88.556 117.244  0.00  0.00    -0.241 OA
ENDBRANCH   3  22
TORSDOF 7
ENDMDL
MODEL 6
REMARK VINA RESULT:      -5.0      1.748      4.888
REMARK  7 active torsions:
REMARK  status: ('A' for Active; 'I' for Inactive)
REMARK    1  A    between atoms: C_2  and  C_3 
REMARK    2  A    between atoms: C_3  and  O_6 
REMARK    3  A    between atoms: C_3  and  C_4 
REMARK    4  A    between atoms: C_7  and  O_6 
REMARK    5  A    between atoms: C_9  and  C_10 
REMARK    6  A    between atoms: N_15  and  C_14 
REMARK    7  A    between atoms: N_20  and  C_19 
REMARK       I    between atoms: C_22  and  N_20 
ROOT
ATOM      1  C   LIG d   1      -6.186  91.365 119.319  0.00  0.00     0.161 C 
ATOM      2  C   LIG d   1      -5.050  92.020 119.824  0.00  0.00     0.016 C 
ATOM      3  C   LIG d   1      -3.796  92.018 119.173  0.00  0.00     0.038 C 
ATOM      4  C   LIG d   1      -3.629  91.483 117.887  0.00  0.00     0.028 C 
ATOM      5  C   LIG d   1      -4.621  90.371 117.560  0.00  0.00    -0.047 C 
ATOM      6  C   LIG d   1      -6.052  90.871 117.863  0.00  0.00     0.091 C 
ENDROOT
BRANCH   1   7
ATOM      7  O   LIG d   1      -7.341  92.215 119.455  0.00  0.00    -0.368 OA
BRANCH   7   8
ATOM      8  C   LIG d   1      -7.099  93.540 119.987  0.00  0.00     0.119 C 
BRANCH   8   9
ATOM      9  C   LIG d   1      -8.341  93.946 120.804  0.00  0.00     0.028 C 
ATOM     10  C   LIG d   1      -9.326  94.800 119.989  0.00  0.00     0.006 C 
ENDBRANCH   8   9
BRANCH   8  11
ATOM     11  C   LIG d   1      -6.993  94.580 118.868  0.00  0.00     0.028 C 
ATOM     12  C   LIG d   1      -5.778  95.508 119.030  0.00  0.00     0.006 C 
ENDBRANCH   8  11
ENDBRANCH   7   8
ENDBRANCH   1   7
BRANCH   6  13
ATOM     13  N   LIG d   1      -7.077  89.816 117.650  0.00  0.00    -0.311 N 
ATOM     14  C   LIG d   1      -7.704  89.626 116.491  0.00  0.00     0.210 C 
ATOM     15  C   LIG d   1      -8.739  88.497 116.493  0.00  0.00     0.109 C 
ATOM     16  O   LIG d   1      -7.478  90.264 115.452  0.00  0.00    -0.276 OA
ATOM     17  H   LIG d   1      -7.299  89.231 118.432  0.00  0.00     0.149 HD
ENDBRANCH   6  13
BRANCH   5  18
ATOM     18  N   LIG d   1      -4.425  90.001 116.145  0.00  0.00     0.381 N 
ATOM     19  H   LIG d   1      -4.965  89.187 115.930  0.00  0.00    -0.090 HD
ATOM     20  H   LIG d   1      -3.455  89.784 115.998  0.00  0.00    -0.090 HD
ATOM     21  H   LIG d   1      -4.698  90.756 115.555  0.00  0.00    -0.090 HD
ENDBRANCH   5  18
BRANCH   3  22
ATOM     22  C   LIG d   1      -2.681  92.520 119.827  0.00  0.00     0.382 C 
ATOM     23  O   LIG d   1      -1.763  91.744 120.188  0.00  0.00    -0.241 OA
ATOM     24  O   LIG d   1      -2.601  93.733 120.099  0.00  0.00    -0.241 OA
ENDBRANCH   3  22
TORSDOF 7
ENDMDL
MODEL 7
REMARK VINA RESULT:      -4.8      2.597      5.951
REMARK  7 active torsions:
REMARK  status: ('A' for Active; 'I' for Inactive)
REMARK    1  A    between atoms: C_2  and  C_3 
REMARK    2  A    between atoms: C_3  and  O_6 
REMARK    3  A    between atoms: C_3  and  C_4 
REMARK    4  A    between atoms: C_7  and  O_6 
REMARK    5  A    between atoms: C_9  and  C_10 
REMARK    6  A    between atoms: N_15  and  C_14 
REMARK    7  A    between atoms: N_20  and  C_19 
REMARK       I    between atoms: C_22  and  N_20 
ROOT
ATOM      1  C   LIG d   1      -4.530  92.329 117.811  0.00  0.00     0.161 C 
ATOM      2  C   LIG d   1      -3.895  93.083 118.812  0.00  0.00     0.016 C 
ATOM      3  C   LIG d   1      -4.527  94.138 119.510  0.00  0.00     0.038 C 
ATOM      4  C   LIG d   1      -5.894  94.413 119.359  0.00  0.00     0.028 C 
ATOM      5  C   LIG d   1      -6.446  94.009 117.996  0.00  0.00    -0.047 C 
ATOM      6  C   LIG d   1      -6.055  92.541 117.711  0.00  0.00     0.091 C 
ENDROOT
BRANCH   1   7
ATOM      7  O   LIG d   1      -4.229  90.930 117.989  0.00  0.00    -0.368 OA
BRANCH   7   8
ATOM      8  C   LIG d   1      -3.863  90.522 119.330  0.00  0.00     0.119 C 
BRANCH   8   9
ATOM      9  C   LIG d   1      -2.698  89.521 119.208  0.00  0.00     0.028 C 
ATOM     10  C   LIG d   1      -1.817  89.794 117.977  0.00  0.00     0.006 C 
ENDBRANCH   8   9
BRANCH   8  11
ATOM     11  C   LIG d   1      -4.997  89.745 120.006  0.00  0.00     0.028 C 
ATOM     12  C   LIG d   1      -5.816  90.610 120.977  0.00  0.00     0.006 C 
ENDBRANCH   8  11
ENDBRANCH   7   8
ENDBRANCH   1   7
BRANCH   6  13
ATOM     13  N   LIG d   1      -6.484  92.092 116.361  0.00  0.00    -0.311 N 
ATOM     14  C   LIG d   1      -7.080  90.923 116.132  0.00  0.00     0.210 C 
ATOM     15  C   LIG d   1      -7.421  90.648 114.664  0.00  0.00     0.109 C 
ATOM     16  O   LIG d   1      -7.387  90.102 117.009  0.00  0.00    -0.276 OA
ATOM     17  H   LIG d   1      -6.301  92.710 115.595  0.00  0.00     0.149 HD
ENDBRANCH   6  13
BRANCH   5  18
ATOM     18  N   LIG d   1      -7.905  94.224 118.024  0.00  0.00     0.381 N 
ATOM     19  H   LIG d   1      -8.135  94.890 118.734  0.00  0.00    -0.090 HD
ATOM     20  H   LIG d   1      -8.357  93.355 118.249  0.00  0.00    -0.090 HD
ATOM     21  H   LIG d   1      -8.219  94.551 117.137  0.00  0.00    -0.090 HD
ENDBRANCH   5  18
BRANCH   3  22
ATOM     22  C   LIG d   1      -3.778  94.957 120.342  0.00  0.00     0.382 C 
ATOM     23  O   LIG d   1      -3.686  94.693 121.565  0.00  0.00    -0.241 OA
ATOM     24  O   LIG d   1      -3.230  95.982 119.893  0.00  0.00    -0.241 OA
ENDBRANCH   3  22
TORSDOF 7
ENDMDL
MODEL 8
REMARK VINA RESULT:      -4.5      2.185      4.727
REMARK  7 active torsions:
REMARK  status: ('A' for Active; 'I' for Inactive)
REMARK    1  A    between atoms: C_2  and  C_3 
REMARK    2  A    between atoms: C_3  and  O_6 
REMARK    3  A    between atoms: C_3  and  C_4 
REMARK    4  A    between atoms: C_7  and  O_6 
REMARK    5  A    between atoms: C_9  and  C_10 
REMARK    6  A    between atoms: N_15  and  C_14 
REMARK    7  A    between atoms: N_20  and  C_19 
REMARK       I    between atoms: C_22  and  N_20 
ROOT
ATOM      1  C   LIG d   1      -4.213  91.719 118.261  0.00  0.00     0.161 C 
ATOM      2  C   LIG d   1      -4.539  90.740 117.308  0.00  0.00     0.016 C 
ATOM      3  C   LIG d   1      -5.741  90.748 116.563  0.00  0.00     0.038 C 
ATOM      4  C   LIG d   1      -6.636  91.827 116.611  0.00  0.00     0.028 C 
ATOM      5  C   LIG d   1      -6.592  92.592 117.930  0.00  0.00    -0.047 C 
ATOM      6  C   LIG d   1      -5.126  92.964 118.247  0.00  0.00     0.091 C 
ENDROOT
BRANCH   1   7
ATOM      7  O   LIG d   1      -2.834  92.108 118.109  0.00  0.00    -0.368 OA
BRANCH   7   8
ATOM      8  C   LIG d   1      -1.847  91.143 118.551  0.00  0.00     0.119 C 
BRANCH   8   9
ATOM      9  C   LIG d   1      -1.624  91.366 120.059  0.00  0.00     0.028 C 
ATOM     10  C   LIG d   1      -1.812  90.078 120.877  0.00  0.00     0.006 C 
ENDBRANCH   8   9
BRANCH   8  11
ATOM     11  C   LIG d   1      -0.486  91.398 117.897  0.00  0.00     0.028 C 
ATOM     12  C   LIG d   1      -0.046  90.253 116.970  0.00  0.00     0.006 C 
ENDBRANCH   8  11
ENDBRANCH   7   8
ENDBRANCH   1   7
BRANCH   6  13
ATOM     13  N   LIG d   1      -4.984  93.640 119.563  0.00  0.00    -0.311 N 
ATOM     14  C   LIG d   1      -5.051  94.961 119.719  0.00  0.00     0.210 C 
ATOM     15  C   LIG d   1      -4.859  95.453 121.157  0.00  0.00     0.109 C 
ATOM     16  O   LIG d   1      -5.284  95.770 118.808  0.00  0.00    -0.276 OA
ATOM     17  H   LIG d   1      -4.824  93.057 120.360  0.00  0.00     0.149 HD
ENDBRANCH   6  13
BRANCH   5  18
ATOM     18  N   LIG d   1      -7.471  93.769 117.793  0.00  0.00     0.381 N 
ATOM     19  H   LIG d   1      -6.926  94.606 117.843  0.00  0.00    -0.090 HD
ATOM     20  H   LIG d   1      -8.129  93.774 118.552  0.00  0.00    -0.090 HD
ATOM     21  H   LIG d   1      -7.956  93.732 116.923  0.00  0.00    -0.090 HD
ENDBRANCH   5  18
BRANCH   3  22
ATOM     22  C   LIG d   1      -6.076  89.649 115.788  0.00  0.00     0.382 C 
ATOM     23  O   LIG d   1      -6.985  88.870 116.164  0.00  0.00    -0.241 OA
ATOM     24  O   LIG d   1      -5.451  89.401 114.739  0.00  0.00    -0.241 OA
ENDBRANCH   3  22
TORSDOF 7
ENDMDL
MODEL 9
REMARK VINA RESULT:      -4.5      2.288      6.305
REMARK  7 active torsions:
REMARK  status: ('A' for Active; 'I' for Inactive)
REMARK    1  A    between atoms: C_2  and  C_3 
REMARK    2  A    between atoms: C_3  and  O_6 
REMARK    3  A    between atoms: C_3  and  C_4 
REMARK    4  A    between atoms: C_7  and  O_6 
REMARK    5  A    between atoms: C_9  and  C_10 
REMARK    6  A    between atoms: N_15  and  C_14 
REMARK    7  A    between atoms: N_20  and  C_19 
REMARK       I    between atoms: C_22  and  N_20 
ROOT
ATOM      1  C   LIG d   1      -3.495  92.062 118.023  0.00  0.00     0.161 C 
ATOM      2  C   LIG d   1      -3.324  93.142 118.905  0.00  0.00     0.016 C 
ATOM      3  C   LIG d   1      -4.361  94.040 119.247  0.00  0.00     0.038 C 
ATOM      4  C   LIG d   1      -5.688  93.827 118.846  0.00  0.00     0.028 C 
ATOM      5  C   LIG d   1      -5.809  93.037 117.547  0.00  0.00    -0.047 C 
ATOM      6  C   LIG d   1      -4.963  91.749 117.662  0.00  0.00     0.091 C 
ENDROOT
BRANCH   1   7
ATOM      7  O   LIG d   1      -2.849  90.889 118.556  0.00  0.00    -0.368 OA
BRANCH   7   8
ATOM      8  C   LIG d   1      -1.797  90.315 117.741  0.00  0.00     0.119 C 
BRANCH   8   9
ATOM      9  C   LIG d   1      -1.917  88.782 117.843  0.00  0.00     0.028 C 
ATOM     10  C   LIG d   1      -3.180  88.341 118.601  0.00  0.00     0.006 C 
ENDBRANCH   8   9
BRANCH   8  11
ATOM     11  C   LIG d   1      -0.412  90.652 118.300  0.00  0.00     0.028 C 
ATOM     12  C   LIG d   1       0.264  91.815 117.557  0.00  0.00     0.006 C 
ENDBRANCH   8  11
ENDBRANCH   7   8
ENDBRANCH   1   7
BRANCH   6  13
ATOM     13  N   LIG d   1      -4.957  90.959 116.403  0.00  0.00    -0.311 N 
ATOM     14  C   LIG d   1      -5.761  89.919 116.187  0.00  0.00     0.210 C 
ATOM     15  C   LIG d   1      -5.579  89.233 114.830  0.00  0.00     0.109 C 
ATOM     16  O   LIG d   1      -6.629  89.520 116.977  0.00  0.00    -0.276 OA
ATOM     17  H   LIG d   1      -4.305  91.234 115.695  0.00  0.00     0.149 HD
ENDBRANCH   6  13
BRANCH   5  18
ATOM     18  N   LIG d   1      -7.241  92.770 117.319  0.00  0.00     0.381 N 
ATOM     19  H   LIG d   1      -7.370  91.812 117.061  0.00  0.00    -0.090 HD
ATOM     20  H   LIG d   1      -7.563  93.346 116.562  0.00  0.00    -0.090 HD
ATOM     21  H   LIG d   1      -7.761  92.972 118.144  0.00  0.00    -0.090 HD
ENDBRANCH   5  18
BRANCH   3  22
ATOM     22  C   LIG d   1      -4.067  95.187 119.968  0.00  0.00     0.382 C 
ATOM     23  O   LIG d   1      -4.978  96.005 120.243  0.00  0.00    -0.241 OA
ATOM     24  O   LIG d   1      -2.895  95.437 120.308  0.00  0.00    -0.241 OA
ENDBRANCH   3  22
TORSDOF 7
ENDMDL
