MODEL 1
REMARK VINA RESULT:      -5.3      0.000      0.000
REMARK  7 active torsions:
REMARK  status: ('A' for Active; 'I' for Inactive)
REMARK    1  A    between atoms: C_2  and  C_3 
REMARK    2  A    between atoms: C_3  and  O_6 
REMARK    3  A    between atoms: C_3  and  C_4 
REMARK    4  A    between atoms: C_7  and  O_6 
REMARK    5  A    between atoms: C_9  and  C_10 
REMARK    6  A    between atoms: N_15  and  C_14 
REMARK    7  A    between atoms: N_20  and  C_19 
REMARK       I    between atoms: C_22  and  N_20 
ROOT
ATOM      1  C   LIG d   1      -4.152  91.540 117.635  0.00  0.00     0.161 C 
ATOM      2  C   LIG d   1      -4.758  90.885 116.549  0.00  0.00     0.016 C 
ATOM      3  C   LIG d   1      -5.986  91.296 115.980  0.00  0.00     0.038 C 
ATOM      4  C   LIG d   1      -6.620  92.487 116.364  0.00  0.00     0.028 C 
ATOM      5  C   LIG d   1      -6.306  92.905 117.796  0.00  0.00    -0.047 C 
ATOM      6  C   LIG d   1      -4.773  92.906 117.995  0.00  0.00     0.091 C 
ENDROOT
BRANCH   1   7
ATOM      7  O   LIG d   1      -2.738  91.680 117.394  0.00  0.00    -0.368 OA
BRANCH   7   8
ATOM      8  C   LIG d   1      -1.946  90.474 117.531  0.00  0.00     0.119 C 
BRANCH   8   9
ATOM      9  C   LIG d   1      -2.183  89.923 118.950  0.00  0.00     0.028 C 
ATOM     10  C   LIG d   1      -2.398  88.400 118.960  0.00  0.00     0.006 C 
ENDBRANCH   8   9
BRANCH   8  11
ATOM     11  C   LIG d   1      -0.447  90.782 117.460  0.00  0.00     0.028 C 
ATOM     12  C   LIG d   1      -0.132  92.268 117.690  0.00  0.00     0.006 C 
ENDBRANCH   8  11
ENDBRANCH   7   8
ENDBRANCH   1   7
BRANCH   6  13
ATOM     13  N   LIG d   1      -4.382  93.223 119.393  0.00  0.00    -0.311 N 
ATOM     14  C   LIG d   1      -3.438  94.108 119.708  0.00  0.00     0.210 C 
ATOM     15  C   LIG d   1      -3.178  94.269 121.209  0.00  0.00     0.109 C 
ATOM     16  O   LIG d   1      -2.814  94.798 118.888  0.00  0.00    -0.276 OA
ATOM     17  H   LIG d   1      -4.860  92.731 120.123  0.00  0.00     0.149 HD
ENDBRANCH   6  13
BRANCH   5  18
ATOM     18  N   LIG d   1      -6.918  94.229 118.018  0.00  0.00     0.381 N 
ATOM     19  H   LIG d   1      -7.827  94.119 118.421  0.00  0.00    -0.090 HD
ATOM     20  H   LIG d   1      -7.019  94.693 117.132  0.00  0.00    -0.090 HD
ATOM     21  H   LIG d   1      -6.343  94.774 118.622  0.00  0.00    -0.090 HD
ENDBRANCH   5  18
BRANCH   3  22
ATOM     22  C   LIG d   1      -6.612  90.489 115.042  0.00  0.00     0.382 C 
ATOM     23  O   LIG d   1      -7.664  90.880 114.481  0.00  0.00    -0.241 OA
ATOM     24  O   LIG d   1      -6.163  89.356 114.783  0.00  0.00    -0.241 OA
ENDBRANCH   3  22
TORSDOF 7
ENDMDL
MODEL 2
REMARK VINA RESULT:      -5.3      0.457      1.577
REMARK  7 active torsions:
REMARK  status: ('A' for Active; 'I' for Inactive)
REMARK    1  A    between atoms: C_2  and  C_3 
REMARK    2  A    between atoms: C_3  and  O_6 
REMARK    3  A    between atoms: C_3  and  C_4 
REMARK    4  A    between atoms: C_7  and  O_6 
REMARK    5  A    between atoms: C_9  and  C_10 
REMARK    6  A    between atoms: N_15  and  C_14 
REMARK    7  A    between atoms: N_20  and  C_19 
REMARK       I    between atoms: C_22  and  N_20 
ROOT
ATOM      1  C   LIG d   1      -4.185  91.474 117.638  0.00  0.00     0.161 C 
ATOM      2  C   LIG d   1      -4.793  90.823 116.552  0.00  0.00     0.016 C 
ATOM      3  C   LIG d   1      -6.003  91.257 115.962  0.00  0.00     0.038 C 
ATOM      4  C   LIG d   1      -6.612  92.467 116.325  0.00  0.00     0.028 C 
ATOM      5  C   LIG d   1      -6.306  92.894 117.757  0.00  0.00    -0.047 C 
ATOM      6  C   LIG d   1      -4.776  92.859 117.975  0.00  0.00     0.091 C 
ENDROOT
BRANCH   1   7
ATOM      7  O   LIG d   1      -2.765  91.577 117.413  0.00  0.00    -0.368 OA
BRANCH   7   8
ATOM      8  C   LIG d   1      -1.918  90.888 118.366  0.00  0.00     0.119 C 
BRANCH   8   9
ATOM      9  C   LIG d   1      -0.539  91.576 118.341  0.00  0.00     0.028 C 
ATOM     10  C   LIG d   1       0.295  91.172 117.114  0.00  0.00     0.006 C 
ENDBRANCH   8   9
BRANCH   8  11
ATOM     11  C   LIG d   1      -1.658  89.441 117.936  0.00  0.00     0.028 C 
ATOM     12  C   LIG d   1      -2.391  88.417 118.816  0.00  0.00     0.006 C 
ENDBRANCH   8  11
ENDBRANCH   7   8
ENDBRANCH   1   7
BRANCH   6  13
ATOM     13  N   LIG d   1      -4.396  93.183 119.374  0.00  0.00    -0.311 N 
ATOM     14  C   LIG d   1      -3.455  94.070 119.692  0.00  0.00     0.210 C 
ATOM     15  C   LIG d   1      -3.205  94.238 121.194  0.00  0.00     0.109 C 
ATOM     16  O   LIG d   1      -2.826  94.758 118.874  0.00  0.00    -0.276 OA
ATOM     17  H   LIG d   1      -4.878  92.693 120.103  0.00  0.00     0.149 HD
ENDBRANCH   6  13
BRANCH   5  18
ATOM     18  N   LIG d   1      -6.888  94.235 117.956  0.00  0.00     0.381 N 
ATOM     19  H   LIG d   1      -6.283  94.785 118.532  0.00  0.00    -0.090 HD
ATOM     20  H   LIG d   1      -7.771  94.140 118.426  0.00  0.00    -0.090 HD
ATOM     21  H   LIG d   1      -7.019  94.684 117.076  0.00  0.00    -0.090 HD
ENDBRANCH   5  18
BRANCH   3  22
ATOM     22  C   LIG d   1      -6.637  90.455 115.026  0.00  0.00     0.382 C 
ATOM     23  O   LIG d   1      -7.694  90.849 114.476  0.00  0.00    -0.241 OA
ATOM     24  O   LIG d   1      -6.190  89.324 114.756  0.00  0.00    -0.241 OA
ENDBRANCH   3  22
TORSDOF 7
ENDMDL
MODEL 3
REMARK VINA RESULT:      -5.0      2.485      4.387
REMARK  7 active torsions:
REMARK  status: ('A' for Active; 'I' for Inactive)
REMARK    1  A    between atoms: C_2  and  C_3 
REMARK    2  A    between atoms: C_3  and  O_6 
REMARK    3  A    between atoms: C_3  and  C_4 
REMARK    4  A    between atoms: C_7  and  O_6 
REMARK    5  A    between atoms: C_9  and  C_10 
REMARK    6  A    between atoms: N_15  and  C_14 
REMARK    7  A    between atoms: N_20  and  C_19 
REMARK       I    between atoms: C_22  and  N_20 
ROOT
ATOM      1  C   LIG d   1      -4.868  93.273 119.003  0.00  0.00     0.161 C 
ATOM      2  C   LIG d   1      -6.078  93.985 118.956  0.00  0.00     0.016 C 
ATOM      3  C   LIG d   1      -7.064  93.779 117.964  0.00  0.00     0.038 C 
ATOM      4  C   LIG d   1      -6.972  92.733 117.033  0.00  0.00     0.028 C 
ATOM      5  C   LIG d   1      -5.536  92.317 116.730  0.00  0.00    -0.047 C 
ATOM      6  C   LIG d   1      -4.798  92.052 118.062  0.00  0.00     0.091 C 
ENDROOT
BRANCH   1   7
ATOM      7  O   LIG d   1      -4.587  92.877 120.360  0.00  0.00    -0.368 OA
BRANCH   7   8
ATOM      8  C   LIG d   1      -3.452  93.520 120.990  0.00  0.00     0.119 C 
BRANCH   8   9
ATOM      9  C   LIG d   1      -2.858  94.513 119.972  0.00  0.00     0.028 C 
ATOM     10  C   LIG d   1      -1.369  94.249 119.695  0.00  0.00     0.006 C 
ENDBRANCH   8   9
BRANCH   8  11
ATOM     11  C   LIG d   1      -2.332  92.517 121.279  0.00  0.00     0.028 C 
ATOM     12  C   LIG d   1      -2.854  91.089 121.505  0.00  0.00     0.006 C 
ENDBRANCH   8  11
ENDBRANCH   7   8
ENDBRANCH   1   7
BRANCH   6  13
ATOM     13  N   LIG d   1      -3.364  91.722 117.859  0.00  0.00    -0.311 N 
ATOM     14  C   LIG d   1      -2.898  90.475 117.813  0.00  0.00     0.210 C 
ATOM     15  C   LIG d   1      -1.384  90.357 117.615  0.00  0.00     0.109 C 
ATOM     16  O   LIG d   1      -3.600  89.455 117.884  0.00  0.00    -0.276 OA
ATOM     17  H   LIG d   1      -2.728  92.489 117.761  0.00  0.00     0.149 HD
ENDBRANCH   6  13
BRANCH   5  18
ATOM     18  N   LIG d   1      -5.592  91.132 115.854  0.00  0.00     0.381 N 
ATOM     19  H   LIG d   1      -5.507  91.413 114.897  0.00  0.00    -0.090 HD
ATOM     20  H   LIG d   1      -6.482  90.681 115.973  0.00  0.00    -0.090 HD
ATOM     21  H   LIG d   1      -4.857  90.500 116.088  0.00  0.00    -0.090 HD
ENDBRANCH   5  18
BRANCH   3  22
ATOM     22  C   LIG d   1      -8.139  94.649 117.872  0.00  0.00     0.382 C 
ATOM     23  O   LIG d   1      -9.309  94.199 117.831  0.00  0.00    -0.241 OA
ATOM     24  O   LIG d   1      -7.952  95.878 117.785  0.00  0.00    -0.241 OA
ENDBRANCH   3  22
TORSDOF 7
ENDMDL
MODEL 4
REMARK VINA RESULT:      -4.8      2.359      4.338
REMARK  7 active torsions:
REMARK  status: ('A' for Active; 'I' for Inactive)
REMARK    1  A    between atoms: C_2  and  C_3 
REMARK    2  A    between atoms: C_3  and  O_6 
REMARK    3  A    between atoms: C_3  and  C_4 
REMARK    4  A    between atoms: C_7  and  O_6 
REMARK    5  A    between atoms: C_9  and  C_10 
REMARK    6  A    between atoms: N_15  and  C_14 
REMARK    7  A    between atoms: N_20  and  C_19 
REMARK       I    between atoms: C_22  and  N_20 
ROOT
ATOM      1  C   LIG d   1      -4.923  92.891 118.665  0.00  0.00     0.161 C 
ATOM      2  C   LIG d   1      -5.856  92.628 117.648  0.00  0.00     0.016 C 
ATOM      3  C   LIG d   1      -5.643  91.678 116.623  0.00  0.00     0.038 C 
ATOM      4  C   LIG d   1      -4.539  90.813 116.632  0.00  0.00     0.028 C 
ATOM      5  C   LIG d   1      -3.325  91.387 117.356  0.00  0.00    -0.047 C 
ATOM      6  C   LIG d   1      -3.762  91.878 118.755  0.00  0.00     0.091 C 
ENDROOT
BRANCH   1   7
ATOM      7  O   LIG d   1      -5.599  92.992 119.934  0.00  0.00    -0.368 OA
BRANCH   7   8
ATOM      8  C   LIG d   1      -5.688  94.321 120.505  0.00  0.00     0.119 C 
BRANCH   8   9
ATOM      9  C   LIG d   1      -7.119  94.837 120.255  0.00  0.00     0.028 C 
ATOM     10  C   LIG d   1      -7.180  95.862 119.110  0.00  0.00     0.006 C 
ENDBRANCH   8   9
BRANCH   8  11
ATOM     11  C   LIG d   1      -4.769  95.304 119.775  0.00  0.00     0.028 C 
ATOM     12  C   LIG d   1      -3.628  95.825 120.663  0.00  0.00     0.006 C 
ENDBRANCH   8  11
ENDBRANCH   7   8
ENDBRANCH   1   7
BRANCH   6  13
ATOM     13  N   LIG d   1      -2.653  92.531 119.499  0.00  0.00    -0.311 N 
ATOM     14  C   LIG d   1      -2.246  92.136 120.704  0.00  0.00     0.210 C 
ATOM     15  C   LIG d   1      -1.100  92.959 121.301  0.00  0.00     0.109 C 
ATOM     16  O   LIG d   1      -2.704  91.162 121.321  0.00  0.00    -0.276 OA
ATOM     17  H   LIG d   1      -2.205  93.310 119.058  0.00  0.00     0.149 HD
ENDBRANCH   6  13
BRANCH   5  18
ATOM     18  N   LIG d   1      -2.298  90.330 117.410  0.00  0.00     0.381 N 
ATOM     19  H   LIG d   1      -1.511  90.649 117.938  0.00  0.00    -0.090 HD
ATOM     20  H   LIG d   1      -1.989  90.129 116.475  0.00  0.00    -0.090 HD
ATOM     21  H   LIG d   1      -2.675  89.508 117.827  0.00  0.00    -0.090 HD
ENDBRANCH   5  18
BRANCH   3  22
ATOM     22  C   LIG d   1      -6.521  91.615 115.552  0.00  0.00     0.382 C 
ATOM     23  O   LIG d   1      -7.319  90.652 115.452  0.00  0.00    -0.241 OA
ATOM     24  O   LIG d   1      -6.494  92.485 114.661  0.00  0.00    -0.241 OA
ENDBRANCH   3  22
TORSDOF 7
ENDMDL
MODEL 5
REMARK VINA RESULT:      -4.7      2.351      4.704
REMARK  7 active torsions:
REMARK  status: ('A' for Active; 'I' for Inactive)
REMARK    1  A    between atoms: C_2  and  C_3 
REMARK    2  A    between atoms: C_3  and  O_6 
REMARK    3  A    between atoms: C_3  and  C_4 
REMARK    4  A    between atoms: C_7  and  O_6 
REMARK    5  A    between atoms: C_9  and  C_10 
REMARK    6  A    between atoms: N_15  and  C_14 
REMARK    7  A    between atoms: N_20  and  C_19 
REMARK       I    between atoms: C_22  and  N_20 
ROOT
ATOM      1  C   LIG d   1      -4.980  92.969 118.529  0.00  0.00     0.161 C 
ATOM      2  C   LIG d   1      -5.902  92.686 117.507  0.00  0.00     0.016 C 
ATOM      3  C   LIG d   1      -5.701  91.678 116.536  0.00  0.00     0.038 C 
ATOM      4  C   LIG d   1      -4.628  90.778 116.612  0.00  0.00     0.028 C 
ATOM      5  C   LIG d   1      -3.410  91.347 117.332  0.00  0.00    -0.047 C 
ATOM      6  C   LIG d   1      -3.857  91.924 118.695  0.00  0.00     0.091 C 
ENDROOT
BRANCH   1   7
ATOM      7  O   LIG d   1      -5.677  93.158 119.777  0.00  0.00    -0.368 OA
BRANCH   7   8
ATOM      8  C   LIG d   1      -6.452  94.376 119.896  0.00  0.00     0.119 C 
BRANCH   8   9
ATOM      9  C   LIG d   1      -5.459  95.540 120.084  0.00  0.00     0.028 C 
ATOM     10  C   LIG d   1      -5.978  96.856 119.482  0.00  0.00     0.006 C 
ENDBRANCH   8   9
BRANCH   8  11
ATOM     11  C   LIG d   1      -7.312  94.368 121.163  0.00  0.00     0.028 C 
ATOM     12  C   LIG d   1      -8.792  94.671 120.881  0.00  0.00     0.006 C 
ENDBRANCH   8  11
ENDBRANCH   7   8
ENDBRANCH   1   7
BRANCH   6  13
ATOM     13  N   LIG d   1      -2.740  92.576 119.427  0.00  0.00    -0.311 N 
ATOM     14  C   LIG d   1      -2.067  93.624 118.956  0.00  0.00     0.210 C 
ATOM     15  C   LIG d   1      -0.940  94.130 119.862  0.00  0.00     0.109 C 
ATOM     16  O   LIG d   1      -2.317  94.203 117.888  0.00  0.00    -0.276 OA
ATOM     17  H   LIG d   1      -2.492  92.190 120.317  0.00  0.00     0.149 HD
ENDBRANCH   6  13
BRANCH   5  18
ATOM     18  N   LIG d   1      -2.421  90.260 117.461  0.00  0.00     0.381 N 
ATOM     19  H   LIG d   1      -1.711  90.365 116.764  0.00  0.00    -0.090 HD
ATOM     20  H   LIG d   1      -2.883  89.380 117.311  0.00  0.00    -0.090 HD
ATOM     21  H   LIG d   1      -2.011  90.278 118.369  0.00  0.00    -0.090 HD
ENDBRANCH   5  18
BRANCH   3  22
ATOM     22  C   LIG d   1      -6.560  91.589 115.451  0.00  0.00     0.382 C 
ATOM     23  O   LIG d   1      -7.385  90.647 115.379  0.00  0.00    -0.241 OA
ATOM     24  O   LIG d   1      -6.490  92.415 114.520  0.00  0.00    -0.241 OA
ENDBRANCH   3  22
TORSDOF 7
ENDMDL
MODEL 6
REMARK VINA RESULT:      -4.5      2.264      4.252
REMARK  7 active torsions:
REMARK  status: ('A' for Active; 'I' for Inactive)
REMARK    1  A    between atoms: C_2  and  C_3 
REMARK    2  A    between atoms: C_3  and  O_6 
REMARK    3  A    between atoms: C_3  and  C_4 
REMARK    4  A    between atoms: C_7  and  O_6 
REMARK    5  A    between atoms: C_9  and  C_10 
REMARK    6  A    between atoms: N_15  and  C_14 
REMARK    7  A    between atoms: N_20  and  C_19 
REMARK       I    between atoms: C_22  and  N_20 
ROOT
ATOM      1  C   LIG d   1      -3.892  93.065 119.115  0.00  0.00     0.161 C 
ATOM      2  C   LIG d   1      -2.880  92.177 118.714  0.00  0.00     0.016 C 
ATOM      3  C   LIG d   1      -3.094  91.108 117.814  0.00  0.00     0.038 C 
ATOM      4  C   LIG d   1      -4.310  90.945 117.132  0.00  0.00     0.028 C 
ATOM      5  C   LIG d   1      -5.508  91.513 117.886  0.00  0.00    -0.047 C 
ATOM      6  C   LIG d   1      -5.197  92.970 118.297  0.00  0.00     0.091 C 
ENDROOT
BRANCH   1   7
ATOM      7  O   LIG d   1      -3.390  94.416 119.103  0.00  0.00    -0.368 OA
BRANCH   7   8
ATOM      8  C   LIG d   1      -1.963  94.564 118.903  0.00  0.00     0.119 C 
BRANCH   8   9
ATOM      9  C   LIG d   1      -1.386  95.239 120.162  0.00  0.00     0.028 C 
ATOM     10  C   LIG d   1      -0.599  94.257 121.046  0.00  0.00     0.006 C 
ENDBRANCH   8   9
BRANCH   8  11
ATOM     11  C   LIG d   1      -1.659  95.526 117.751  0.00  0.00     0.028 C 
ATOM     12  C   LIG d   1      -0.162  95.590 117.408  0.00  0.00     0.006 C 
ENDBRANCH   8  11
ENDBRANCH   7   8
ENDBRANCH   1   7
BRANCH   6  13
ATOM     13  N   LIG d   1      -6.284  93.573 119.111  0.00  0.00    -0.311 N 
ATOM     14  C   LIG d   1      -7.344  94.183 118.583  0.00  0.00     0.210 C 
ATOM     15  C   LIG d   1      -8.336  94.752 119.602  0.00  0.00     0.109 C 
ATOM     16  O   LIG d   1      -7.573  94.278 117.368  0.00  0.00    -0.276 OA
ATOM     17  H   LIG d   1      -6.194  93.514 120.107  0.00  0.00     0.149 HD
ENDBRANCH   6  13
BRANCH   5  18
ATOM     18  N   LIG d   1      -6.684  91.399 117.003  0.00  0.00     0.381 N 
ATOM     19  H   LIG d   1      -7.251  90.627 117.292  0.00  0.00    -0.090 HD
ATOM     20  H   LIG d   1      -6.370  91.226 116.064  0.00  0.00    -0.090 HD
ATOM     21  H   LIG d   1      -7.216  92.241 117.033  0.00  0.00    -0.090 HD
ENDBRANCH   5  18
BRANCH   3  22
ATOM     22  C   LIG d   1      -2.098  90.164 117.619  0.00  0.00     0.382 C 
ATOM     23  O   LIG d   1      -1.025  90.492 117.058  0.00  0.00    -0.241 OA
ATOM     24  O   LIG d   1      -2.276  88.978 117.956  0.00  0.00    -0.241 OA
ENDBRANCH   3  22
TORSDOF 7
ENDMDL
MODEL 7
REMARK VINA RESULT:      -4.3      2.489      4.518
REMARK  7 active torsions:
REMARK  status: ('A' for Active; 'I' for Inactive)
REMARK    1  A    between atoms: C_2  and  C_3 
REMARK    2  A    between atoms: C_3  and  O_6 
REMARK    3  A    between atoms: C_3  and  C_4 
REMARK    4  A    between atoms: C_7  and  O_6 
REMARK    5  A    between atoms: C_9  and  C_10 
REMARK    6  A    between atoms: N_15  and  C_14 
REMARK    7  A    between atoms: N_20  and  C_19 
REMARK       I    between atoms: C_22  and  N_20 
ROOT
ATOM      1  C   LIG d   1      -2.612  92.877 117.859  0.00  0.00     0.161 C 
ATOM      2  C   LIG d   1      -3.935  92.807 117.393  0.00  0.00     0.016 C 
ATOM      3  C   LIG d   1      -4.597  91.591 117.108  0.00  0.00     0.038 C 
ATOM      4  C   LIG d   1      -4.026  90.347 117.415  0.00  0.00     0.028 C 
ATOM      5  C   LIG d   1      -2.501  90.363 117.414  0.00  0.00    -0.047 C 
ATOM      6  C   LIG d   1      -2.011  91.527 118.305  0.00  0.00     0.091 C 
ENDROOT
BRANCH   1   7
ATOM      7  O   LIG d   1      -2.519  93.843 118.924  0.00  0.00    -0.368 OA
BRANCH   7   8
ATOM      8  C   LIG d   1      -2.074  95.169 118.545  0.00  0.00     0.119 C 
BRANCH   8   9
ATOM      9  C   LIG d   1      -0.606  95.311 118.993  0.00  0.00     0.028 C 
ATOM     10  C   LIG d   1       0.377  95.239 117.812  0.00  0.00     0.006 C 
ENDBRANCH   8   9
BRANCH   8  11
ATOM     11  C   LIG d   1      -2.838  96.253 119.310  0.00  0.00     0.028 C 
ATOM     12  C   LIG d   1      -4.144  95.735 119.932  0.00  0.00     0.006 C 
ENDBRANCH   8  11
ENDBRANCH   7   8
ENDBRANCH   1   7
BRANCH   6  13
ATOM     13  N   LIG d   1      -0.532  91.667 118.293  0.00  0.00    -0.311 N 
ATOM     14  C   LIG d   1       0.213  91.672 119.397  0.00  0.00     0.210 C 
ATOM     15  C   LIG d   1       1.717  91.848 119.161  0.00  0.00     0.109 C 
ATOM     16  O   LIG d   1      -0.225  91.515 120.547  0.00  0.00    -0.276 OA
ATOM     17  H   LIG d   1      -0.090  91.768 117.400  0.00  0.00     0.149 HD
ENDBRANCH   6  13
BRANCH   5  18
ATOM     18  N   LIG d   1      -2.041  89.043 117.884  0.00  0.00     0.381 N 
ATOM     19  H   LIG d   1      -1.106  89.114 118.233  0.00  0.00    -0.090 HD
ATOM     20  H   LIG d   1      -2.039  88.404 117.108  0.00  0.00    -0.090 HD
ATOM     21  H   LIG d   1      -2.646  88.705 118.599  0.00  0.00    -0.090 HD
ENDBRANCH   5  18
BRANCH   3  22
ATOM     22  C   LIG d   1      -5.828  91.611 116.471  0.00  0.00     0.382 C 
ATOM     23  O   LIG d   1      -6.730  90.813 116.824  0.00  0.00    -0.241 OA
ATOM     24  O   LIG d   1      -6.034  92.387 115.519  0.00  0.00    -0.241 OA
ENDBRANCH   3  22
TORSDOF 7
ENDMDL
MODEL 8
REMARK VINA RESULT:      -4.3      2.702      4.265
REMARK  7 active torsions:
REMARK  status: ('A' for Active; 'I' for Inactive)
REMARK    1  A    between atoms: C_2  and  C_3 
REMARK    2  A    between atoms: C_3  and  O_6 
REMARK    3  A    between atoms: C_3  and  C_4 
REMARK    4  A    between atoms: C_7  and  O_6 
REMARK    5  A    between atoms: C_9  and  C_10 
REMARK    6  A    between atoms: N_15  and  C_14 
REMARK    7  A    between atoms: N_20  and  C_19 
REMARK       I    between atoms: C_22  and  N_20 
ROOT
ATOM      1  C   LIG d   1      -1.054  90.923 117.826  0.00  0.00     0.161 C 
ATOM      2  C   LIG d   1      -2.393  90.702 117.463  0.00  0.00     0.016 C 
ATOM      3  C   LIG d   1      -3.382  91.711 117.486  0.00  0.00     0.038 C 
ATOM      4  C   LIG d   1      -3.065  93.055 117.732  0.00  0.00     0.028 C 
ATOM      5  C   LIG d   1      -1.821  93.236 118.596  0.00  0.00    -0.047 C 
ATOM      6  C   LIG d   1      -0.665  92.407 117.990  0.00  0.00     0.091 C 
ENDROOT
BRANCH   1   7
ATOM      7  O   LIG d   1      -0.178  90.277 116.881  0.00  0.00    -0.368 OA
BRANCH   7   8
ATOM      8  C   LIG d   1       0.745  89.304 117.430  0.00  0.00     0.119 C 
BRANCH   8   9
ATOM      9  C   LIG d   1       1.978  89.264 116.507  0.00  0.00     0.028 C 
ATOM     10  C   LIG d   1       2.488  90.670 116.147  0.00  0.00     0.006 C 
ENDBRANCH   8   9
BRANCH   8  11
ATOM     11  C   LIG d   1       0.158  87.891 117.383  0.00  0.00     0.028 C 
ATOM     12  C   LIG d   1      -0.106  87.309 118.781  0.00  0.00     0.006 C 
ENDBRANCH   8  11
ENDBRANCH   7   8
ENDBRANCH   1   7
BRANCH   6  13
ATOM     13  N   LIG d   1       0.566  92.461 118.821  0.00  0.00    -0.311 N 
ATOM     14  C   LIG d   1       1.548  93.338 118.621  0.00  0.00     0.210 C 
ATOM     15  C   LIG d   1       2.737  93.208 119.579  0.00  0.00     0.109 C 
ATOM     16  O   LIG d   1       1.533  94.233 117.763  0.00  0.00    -0.276 OA
ATOM     17  H   LIG d   1       0.647  91.790 119.560  0.00  0.00     0.149 HD
ENDBRANCH   6  13
BRANCH   5  18
ATOM     18  N   LIG d   1      -1.527  94.680 118.658  0.00  0.00     0.381 N 
ATOM     19  H   LIG d   1      -1.878  95.132 117.837  0.00  0.00    -0.090 HD
ATOM     20  H   LIG d   1      -0.531  94.808 118.687  0.00  0.00    -0.090 HD
ATOM     21  H   LIG d   1      -1.945  95.078 119.470  0.00  0.00    -0.090 HD
ENDBRANCH   5  18
BRANCH   3  22
ATOM     22  C   LIG d   1      -4.714  91.372 117.300  0.00  0.00     0.382 C 
ATOM     23  O   LIG d   1      -5.619  92.158 117.674  0.00  0.00    -0.241 OA
ATOM     24  O   LIG d   1      -5.023  90.272 116.805  0.00  0.00    -0.241 OA
ENDBRANCH   3  22
TORSDOF 7
ENDMDL
MODEL 9
REMARK VINA RESULT:      -4.3      2.434      4.557
REMARK  7 active torsions:
REMARK  status: ('A' for Active; 'I' for Inactive)
REMARK    1  A    between atoms: C_2  and  C_3 
REMARK    2  A    between atoms: C_3  and  O_6 
REMARK    3  A    between atoms: C_3  and  C_4 
REMARK    4  A    between atoms: C_7  and  O_6 
REMARK    5  A    between atoms: C_9  and  C_10 
REMARK    6  A    between atoms: N_15  and  C_14 
REMARK    7  A    between atoms: N_20  and  C_19 
REMARK       I    between atoms: C_22  and  N_20 
ROOT
ATOM      1  C   LIG d   1      -4.373  92.899 119.928  0.00  0.00     0.161 C 
ATOM      2  C   LIG d   1      -3.450  91.992 119.382  0.00  0.00     0.016 C 
ATOM      3  C   LIG d   1      -3.662  91.305 118.164  0.00  0.00     0.038 C 
ATOM      4  C   LIG d   1      -4.751  91.594 117.329  0.00  0.00     0.028 C 
ATOM      5  C   LIG d   1      -5.964  92.133 118.080  0.00  0.00    -0.047 C 
ATOM      6  C   LIG d   1      -5.516  93.311 118.977  0.00  0.00     0.091 C 
ENDROOT
BRANCH   1   7
ATOM      7  O   LIG d   1      -3.682  94.066 120.415  0.00  0.00    -0.368 OA
BRANCH   7   8
ATOM      8  C   LIG d   1      -3.487  95.137 119.459  0.00  0.00     0.119 C 
BRANCH   8   9
ATOM      9  C   LIG d   1      -1.973  95.255 119.199  0.00  0.00     0.028 C 
ATOM     10  C   LIG d   1      -1.593  94.862 117.761  0.00  0.00     0.006 C 
ENDBRANCH   8   9
BRANCH   8  11
ATOM     11  C   LIG d   1      -3.905  96.489 120.045  0.00  0.00     0.028 C 
ATOM     12  C   LIG d   1      -4.532  96.365 121.443  0.00  0.00     0.006 C 
ENDBRANCH   8  11
ENDBRANCH   7   8
ENDBRANCH   1   7
BRANCH   6  13
ATOM     13  N   LIG d   1      -6.626  93.842 119.810  0.00  0.00    -0.311 N 
ATOM     14  C   LIG d   1      -7.388  94.872 119.445  0.00  0.00     0.210 C 
ATOM     15  C   LIG d   1      -8.463  95.272 120.461  0.00  0.00     0.109 C 
ATOM     16  O   LIG d   1      -7.297  95.471 118.363  0.00  0.00    -0.276 OA
ATOM     17  H   LIG d   1      -6.790  93.395 120.691  0.00  0.00     0.149 HD
ENDBRANCH   6  13
BRANCH   5  18
ATOM     18  N   LIG d   1      -6.973  92.522 117.077  0.00  0.00     0.381 N 
ATOM     19  H   LIG d   1      -6.965  91.869 116.319  0.00  0.00    -0.090 HD
ATOM     20  H   LIG d   1      -6.739  93.429 116.715  0.00  0.00    -0.090 HD
ATOM     21  H   LIG d   1      -7.877  92.546 117.495  0.00  0.00    -0.090 HD
ENDBRANCH   5  18
BRANCH   3  22
ATOM     22  C   LIG d   1      -2.798  90.287 117.790  0.00  0.00     0.382 C 
ATOM     23  O   LIG d   1      -3.136  89.089 117.944  0.00  0.00    -0.241 OA
ATOM     24  O   LIG d   1      -1.666  90.551 117.342  0.00  0.00    -0.241 OA
ENDBRANCH   3  22
TORSDOF 7
ENDMDL
