MODEL 1
REMARK VINA RESULT:      -4.8      0.000      0.000
REMARK  7 active torsions:
REMARK  status: ('A' for Active; 'I' for Inactive)
REMARK    1  A    between atoms: C_2  and  C_3 
REMARK    2  A    between atoms: C_3  and  O_6 
REMARK    3  A    between atoms: C_3  and  C_4 
REMARK    4  A    between atoms: C_7  and  O_6 
REMARK    5  A    between atoms: C_9  and  C_10 
REMARK    6  A    between atoms: N_15  and  C_14 
REMARK    7  A    between atoms: N_20  and  C_19 
REMARK       I    between atoms: C_22  and  N_20 
ROOT
ATOM      1  C   LIG d   1      -4.190  90.445 118.360  0.00  0.00     0.161 C 
ATOM      2  C   LIG d   1      -4.979  89.885 117.342  0.00  0.00     0.016 C 
ATOM      3  C   LIG d   1      -6.272  90.354 117.013  0.00  0.00     0.038 C 
ATOM      4  C   LIG d   1      -6.805  91.520 117.583  0.00  0.00     0.028 C 
ATOM      5  C   LIG d   1      -6.253  91.822 118.972  0.00  0.00    -0.047 C 
ATOM      6  C   LIG d   1      -4.709  91.787 118.917  0.00  0.00     0.091 C 
ENDROOT
BRANCH   1   7
ATOM      7  O   LIG d   1      -2.830  90.584 117.903  0.00  0.00    -0.368 OA
BRANCH   7   8
ATOM      8  C   LIG d   1      -1.901  89.565 118.345  0.00  0.00     0.119 C 
BRANCH   8   9
ATOM      9  C   LIG d   1      -0.736  90.278 119.059  0.00  0.00     0.028 C 
ATOM     10  C   LIG d   1      -0.696  89.973 120.566  0.00  0.00     0.006 C 
ENDBRANCH   8   9
BRANCH   8  11
ATOM     11  C   LIG d   1      -1.264  88.837 117.157  0.00  0.00     0.028 C 
ATOM     12  C   LIG d   1      -0.172  87.843 117.583  0.00  0.00     0.006 C 
ENDBRANCH   8  11
ENDBRANCH   7   8
ENDBRANCH   1   7
BRANCH   6  13
ATOM     13  N   LIG d   1      -4.090  91.989 120.253  0.00  0.00    -0.311 N 
ATOM     14  C   LIG d   1      -3.113  92.864 120.484  0.00  0.00     0.210 C 
ATOM     15  C   LIG d   1      -2.603  92.899 121.928  0.00  0.00     0.109 C 
ATOM     16  O   LIG d   1      -2.643  93.639 119.637  0.00  0.00    -0.276 OA
ATOM     17  H   LIG d   1      -4.433  91.423 121.005  0.00  0.00     0.149 HD
ENDBRANCH   6  13
BRANCH   5  18
ATOM     18  N   LIG d   1      -6.787  93.132 119.388  0.00  0.00     0.381 N 
ATOM     19  H   LIG d   1      -6.095  93.840 119.248  0.00  0.00    -0.090 HD
ATOM     20  H   LIG d   1      -7.008  93.097 120.368  0.00  0.00    -0.090 HD
ATOM     21  H   LIG d   1      -7.606  93.349 118.863  0.00  0.00    -0.090 HD
ENDBRANCH   5  18
BRANCH   3  22
ATOM     22  C   LIG d   1      -7.062  89.631 116.132  0.00  0.00     0.382 C 
ATOM     23  O   LIG d   1      -8.164  89.170 116.513  0.00  0.00    -0.241 OA
ATOM     24  O   LIG d   1      -6.666  89.397 114.974  0.00  0.00    -0.241 OA
ENDBRANCH   3  22
TORSDOF 7
ENDMDL
MODEL 2
REMARK VINA RESULT:      -4.5      2.349      4.817
REMARK  7 active torsions:
REMARK  status: ('A' for Active; 'I' for Inactive)
REMARK    1  A    between atoms: C_2  and  C_3 
REMARK    2  A    between atoms: C_3  and  O_6 
REMARK    3  A    between atoms: C_3  and  C_4 
REMARK    4  A    between atoms: C_7  and  O_6 
REMARK    5  A    between atoms: C_9  and  C_10 
REMARK    6  A    between atoms: N_15  and  C_14 
REMARK    7  A    between atoms: N_20  and  C_19 
REMARK       I    between atoms: C_22  and  N_20 
ROOT
ATOM      1  C   LIG d   1      -5.416  92.333 119.508  0.00  0.00     0.161 C 
ATOM      2  C   LIG d   1      -6.263  91.775 118.536  0.00  0.00     0.016 C 
ATOM      3  C   LIG d   1      -5.883  90.706 117.693  0.00  0.00     0.038 C 
ATOM      4  C   LIG d   1      -4.673  90.018 117.869  0.00  0.00     0.028 C 
ATOM      5  C   LIG d   1      -3.579  90.869 118.504  0.00  0.00    -0.047 C 
ATOM      6  C   LIG d   1      -4.133  91.523 119.790  0.00  0.00     0.091 C 
ENDROOT
BRANCH   1   7
ATOM      7  O   LIG d   1      -6.150  92.550 120.730  0.00  0.00    -0.368 OA
BRANCH   7   8
ATOM      8  C   LIG d   1      -6.277  93.927 121.161  0.00  0.00     0.119 C 
BRANCH   8   9
ATOM      9  C   LIG d   1      -7.781  94.234 121.294  0.00  0.00     0.028 C 
ATOM     10  C   LIG d   1      -8.441  94.535 119.937  0.00  0.00     0.006 C 
ENDBRANCH   8   9
BRANCH   8  11
ATOM     11  C   LIG d   1      -5.759  94.895 120.093  0.00  0.00     0.028 C 
ATOM     12  C   LIG d   1      -4.618  95.791 120.603  0.00  0.00     0.006 C 
ENDBRANCH   8  11
ENDBRANCH   7   8
ENDBRANCH   1   7
BRANCH   6  13
ATOM     13  N   LIG d   1      -3.153  92.440 120.428  0.00  0.00    -0.311 N 
ATOM     14  C   LIG d   1      -2.321  92.063 121.397  0.00  0.00     0.210 C 
ATOM     15  C   LIG d   1      -1.406  93.171 121.930  0.00  0.00     0.109 C 
ATOM     16  O   LIG d   1      -2.232  90.910 121.845  0.00  0.00    -0.276 OA
ATOM     17  H   LIG d   1      -3.136  93.387 120.104  0.00  0.00     0.149 HD
ENDBRANCH   6  13
BRANCH   5  18
ATOM     18  N   LIG d   1      -2.420  89.991 118.755  0.00  0.00     0.381 N 
ATOM     19  H   LIG d   1      -2.402  89.721 119.718  0.00  0.00    -0.090 HD
ATOM     20  H   LIG d   1      -1.577  90.499 118.554  0.00  0.00    -0.090 HD
ATOM     21  H   LIG d   1      -2.474  89.181 118.176  0.00  0.00    -0.090 HD
ENDBRANCH   5  18
BRANCH   3  22
ATOM     22  C   LIG d   1      -6.700  90.341 116.635  0.00  0.00     0.382 C 
ATOM     23  O   LIG d   1      -6.500  89.260 116.031  0.00  0.00    -0.241 OA
ATOM     24  O   LIG d   1      -7.609  91.100 116.247  0.00  0.00    -0.241 OA
ENDBRANCH   3  22
TORSDOF 7
ENDMDL
MODEL 3
REMARK VINA RESULT:      -4.4      3.459      5.911
REMARK  7 active torsions:
REMARK  status: ('A' for Active; 'I' for Inactive)
REMARK    1  A    between atoms: C_2  and  C_3 
REMARK    2  A    between atoms: C_3  and  O_6 
REMARK    3  A    between atoms: C_3  and  C_4 
REMARK    4  A    between atoms: C_7  and  O_6 
REMARK    5  A    between atoms: C_9  and  C_10 
REMARK    6  A    between atoms: N_15  and  C_14 
REMARK    7  A    between atoms: N_20  and  C_19 
REMARK       I    between atoms: C_22  and  N_20 
ROOT
ATOM      1  C   LIG d   1      -0.334  88.698 117.307  0.00  0.00     0.161 C 
ATOM      2  C   LIG d   1      -1.680  88.947 117.622  0.00  0.00     0.016 C 
ATOM      3  C   LIG d   1      -2.174  90.226 117.970  0.00  0.00     0.038 C 
ATOM      4  C   LIG d   1      -1.378  91.378 117.878  0.00  0.00     0.028 C 
ATOM      5  C   LIG d   1       0.111  91.101 118.052  0.00  0.00    -0.047 C 
ATOM      6  C   LIG d   1       0.525  89.961 117.093  0.00  0.00     0.091 C 
ENDROOT
BRANCH   1   7
ATOM      7  O   LIG d   1      -0.254  87.837 116.153  0.00  0.00    -0.368 OA
BRANCH   7   8
ATOM      8  C   LIG d   1      -0.175  86.415 116.423  0.00  0.00     0.119 C 
BRANCH   8   9
ATOM      9  C   LIG d   1       1.281  85.977 116.174  0.00  0.00     0.028 C 
ATOM     10  C   LIG d   1       1.672  86.057 114.689  0.00  0.00     0.006 C 
ENDBRANCH   8   9
BRANCH   8  11
ATOM     11  C   LIG d   1      -1.017  85.612 115.428  0.00  0.00     0.028 C 
ATOM     12  C   LIG d   1      -2.518  85.637 115.759  0.00  0.00     0.006 C 
ENDBRANCH   8  11
ENDBRANCH   7   8
ENDBRANCH   1   7
BRANCH   6  13
ATOM     13  N   LIG d   1       1.949  89.570 117.259  0.00  0.00    -0.311 N 
ATOM     14  C   LIG d   1       2.777  89.362 116.236  0.00  0.00     0.210 C 
ATOM     15  C   LIG d   1       4.198  88.946 116.628  0.00  0.00     0.109 C 
ATOM     16  O   LIG d   1       2.477  89.513 115.042  0.00  0.00    -0.276 OA
ATOM     17  H   LIG d   1       2.285  89.456 118.196  0.00  0.00     0.149 HD
ENDBRANCH   6  13
BRANCH   5  18
ATOM     18  N   LIG d   1       0.832  92.362 117.796  0.00  0.00     0.381 N 
ATOM     19  H   LIG d   1       0.194  93.053 117.455  0.00  0.00    -0.090 HD
ATOM     20  H   LIG d   1       1.529  92.201 117.091  0.00  0.00    -0.090 HD
ATOM     21  H   LIG d   1       1.265  92.683 118.634  0.00  0.00    -0.090 HD
ENDBRANCH   5  18
BRANCH   3  22
ATOM     22  C   LIG d   1      -3.467  90.355 118.453  0.00  0.00     0.382 C 
ATOM     23  O   LIG d   1      -4.308  89.448 118.244  0.00  0.00    -0.241 OA
ATOM     24  O   LIG d   1      -3.815  91.387 119.058  0.00  0.00    -0.241 OA
ENDBRANCH   3  22
TORSDOF 7
ENDMDL
MODEL 4
REMARK VINA RESULT:      -4.3      2.724      5.750
REMARK  7 active torsions:
REMARK  status: ('A' for Active; 'I' for Inactive)
REMARK    1  A    between atoms: C_2  and  C_3 
REMARK    2  A    between atoms: C_3  and  O_6 
REMARK    3  A    between atoms: C_3  and  C_4 
REMARK    4  A    between atoms: C_7  and  O_6 
REMARK    5  A    between atoms: C_9  and  C_10 
REMARK    6  A    between atoms: N_15  and  C_14 
REMARK    7  A    between atoms: N_20  and  C_19 
REMARK       I    between atoms: C_22  and  N_20 
ROOT
ATOM      1  C   LIG d   1      -0.963  90.646 117.695  0.00  0.00     0.161 C 
ATOM      2  C   LIG d   1       0.352  91.123 117.827  0.00  0.00     0.016 C 
ATOM      3  C   LIG d   1       0.669  92.396 118.354  0.00  0.00     0.038 C 
ATOM      4  C   LIG d   1      -0.307  93.224 118.929  0.00  0.00     0.028 C 
ATOM      5  C   LIG d   1      -1.704  92.999 118.360  0.00  0.00    -0.047 C 
ATOM      6  C   LIG d   1      -2.032  91.490 118.419  0.00  0.00     0.091 C 
ENDROOT
BRANCH   1   7
ATOM      7  O   LIG d   1      -1.030  89.273 118.128  0.00  0.00    -0.368 OA
BRANCH   7   8
ATOM      8  C   LIG d   1      -0.053  88.373 117.549  0.00  0.00     0.119 C 
BRANCH   8   9
ATOM      9  C   LIG d   1      -0.818  87.358 116.677  0.00  0.00     0.028 C 
ATOM     10  C   LIG d   1      -0.338  85.914 116.900  0.00  0.00     0.006 C 
ENDBRANCH   8   9
BRANCH   8  11
ATOM     11  C   LIG d   1       0.643  87.538 118.627  0.00  0.00     0.028 C 
ATOM     12  C   LIG d   1       2.111  87.941 118.837  0.00  0.00     0.006 C 
ENDBRANCH   8  11
ENDBRANCH   7   8
ENDBRANCH   1   7
BRANCH   6  13
ATOM     13  N   LIG d   1      -3.348  91.172 117.805  0.00  0.00    -0.311 N 
ATOM     14  C   LIG d   1      -4.481  91.091 118.500  0.00  0.00     0.210 C 
ATOM     15  C   LIG d   1      -5.721  90.732 117.675  0.00  0.00     0.109 C 
ATOM     16  O   LIG d   1      -4.583  91.313 119.716  0.00  0.00    -0.276 OA
ATOM     17  H   LIG d   1      -3.362  91.008 116.817  0.00  0.00     0.149 HD
ENDBRANCH   6  13
BRANCH   5  18
ATOM     18  N   LIG d   1      -2.642  93.826 119.143  0.00  0.00     0.381 N 
ATOM     19  H   LIG d   1      -2.143  94.562 119.602  0.00  0.00    -0.090 HD
ATOM     20  H   LIG d   1      -3.073  93.252 119.845  0.00  0.00    -0.090 HD
ATOM     21  H   LIG d   1      -3.338  94.211 118.544  0.00  0.00    -0.090 HD
ENDBRANCH   5  18
BRANCH   3  22
ATOM     22  C   LIG d   1       1.970  92.869 118.273  0.00  0.00     0.382 C 
ATOM     23  O   LIG d   1       2.721  92.481 117.346  0.00  0.00    -0.241 OA
ATOM     24  O   LIG d   1       2.415  93.645 119.140  0.00  0.00    -0.241 OA
ENDBRANCH   3  22
TORSDOF 7
ENDMDL
MODEL 5
REMARK VINA RESULT:      -4.3      3.350      5.432
REMARK  7 active torsions:
REMARK  status: ('A' for Active; 'I' for Inactive)
REMARK    1  A    between atoms: C_2  and  C_3 
REMARK    2  A    between atoms: C_3  and  O_6 
REMARK    3  A    between atoms: C_3  and  C_4 
REMARK    4  A    between atoms: C_7  and  O_6 
REMARK    5  A    between atoms: C_9  and  C_10 
REMARK    6  A    between atoms: N_15  and  C_14 
REMARK    7  A    between atoms: N_20  and  C_19 
REMARK       I    between atoms: C_22  and  N_20 
ROOT
ATOM      1  C   LIG d   1      -1.076  91.519 118.111  0.00  0.00     0.161 C 
ATOM      2  C   LIG d   1      -2.436  91.595 118.455  0.00  0.00     0.016 C 
ATOM      3  C   LIG d   1      -3.350  90.536 118.253  0.00  0.00     0.038 C 
ATOM      4  C   LIG d   1      -2.932  89.266 117.829  0.00  0.00     0.028 C 
ATOM      5  C   LIG d   1      -1.657  89.296 116.992  0.00  0.00    -0.047 C 
ATOM      6  C   LIG d   1      -0.579  90.103 117.751  0.00  0.00     0.091 C 
ENDROOT
BRANCH   1   7
ATOM      7  O   LIG d   1      -0.273  92.078 119.169  0.00  0.00    -0.368 OA
BRANCH   7   8
ATOM      8  C   LIG d   1       0.362  93.349 118.884  0.00  0.00     0.119 C 
BRANCH   8   9
ATOM      9  C   LIG d   1       1.846  93.225 119.279  0.00  0.00     0.028 C 
ATOM     10  C   LIG d   1       2.765  93.052 118.058  0.00  0.00     0.006 C 
ENDBRANCH   8   9
BRANCH   8  11
ATOM     11  C   LIG d   1      -0.201  94.464 119.770  0.00  0.00     0.028 C 
ATOM     12  C   LIG d   1      -1.455  95.124 119.173  0.00  0.00     0.006 C 
ENDBRANCH   8  11
ENDBRANCH   7   8
ENDBRANCH   1   7
BRANCH   6  13
ATOM     13  N   LIG d   1       0.674  90.254 116.965  0.00  0.00    -0.311 N 
ATOM     14  C   LIG d   1       1.712  89.426 117.074  0.00  0.00     0.210 C 
ATOM     15  C   LIG d   1       2.912  89.773 116.188  0.00  0.00     0.109 C 
ATOM     16  O   LIG d   1       1.740  88.419 117.798  0.00  0.00    -0.276 OA
ATOM     17  H   LIG d   1       0.724  91.026 116.330  0.00  0.00     0.149 HD
ENDBRANCH   6  13
BRANCH   5  18
ATOM     18  N   LIG d   1      -1.259  87.899 116.735  0.00  0.00     0.381 N 
ATOM     19  H   LIG d   1      -0.985  87.796 115.779  0.00  0.00    -0.090 HD
ATOM     20  H   LIG d   1      -2.049  87.300 116.903  0.00  0.00    -0.090 HD
ATOM     21  H   LIG d   1      -0.506  87.644 117.334  0.00  0.00    -0.090 HD
ENDBRANCH   5  18
BRANCH   3  22
ATOM     22  C   LIG d   1      -4.707  90.755 118.437  0.00  0.00     0.382 C 
ATOM     23  O   LIG d   1      -5.102  91.490 119.374  0.00  0.00    -0.241 OA
ATOM     24  O   LIG d   1      -5.543  90.191 117.707  0.00  0.00    -0.241 OA
ENDBRANCH   3  22
TORSDOF 7
ENDMDL
MODEL 6
REMARK VINA RESULT:      -4.1      3.228      5.826
REMARK  7 active torsions:
REMARK  status: ('A' for Active; 'I' for Inactive)
REMARK    1  A    between atoms: C_2  and  C_3 
REMARK    2  A    between atoms: C_3  and  O_6 
REMARK    3  A    between atoms: C_3  and  C_4 
REMARK    4  A    between atoms: C_7  and  O_6 
REMARK    5  A    between atoms: C_9  and  C_10 
REMARK    6  A    between atoms: N_15  and  C_14 
REMARK    7  A    between atoms: N_20  and  C_19 
REMARK       I    between atoms: C_22  and  N_20 
ROOT
ATOM      1  C   LIG d   1      -1.604  92.686 118.013  0.00  0.00     0.161 C 
ATOM      2  C   LIG d   1      -0.377  92.042 117.781  0.00  0.00     0.016 C 
ATOM      3  C   LIG d   1       0.816  92.372 118.466  0.00  0.00     0.038 C 
ATOM      4  C   LIG d   1       0.828  93.271 119.543  0.00  0.00     0.028 C 
ATOM      5  C   LIG d   1      -0.283  94.312 119.475  0.00  0.00    -0.047 C 
ATOM      6  C   LIG d   1      -1.634  93.591 119.261  0.00  0.00     0.091 C 
ENDROOT
BRANCH   1   7
ATOM      7  O   LIG d   1      -2.663  91.710 118.076  0.00  0.00    -0.368 OA
BRANCH   7   8
ATOM      8  C   LIG d   1      -2.340  90.461 118.735  0.00  0.00     0.119 C 
BRANCH   8   9
ATOM      9  C   LIG d   1      -2.791  89.317 117.806  0.00  0.00     0.028 C 
ATOM     10  C   LIG d   1      -1.611  88.657 117.074  0.00  0.00     0.006 C 
ENDBRANCH   8   9
BRANCH   8  11
ATOM     11  C   LIG d   1      -3.154  90.283 120.021  0.00  0.00     0.028 C 
ATOM     12  C   LIG d   1      -2.295  90.398 121.290  0.00  0.00     0.006 C 
ENDBRANCH   8  11
ENDBRANCH   7   8
ENDBRANCH   1   7
BRANCH   6  13
ATOM     13  N   LIG d   1      -2.765  94.542 119.100  0.00  0.00    -0.311 N 
ATOM     14  C   LIG d   1      -3.530  94.949 120.111  0.00  0.00     0.210 C 
ATOM     15  C   LIG d   1      -4.654  95.916 119.723  0.00  0.00     0.109 C 
ATOM     16  O   LIG d   1      -3.366  94.627 121.297  0.00  0.00    -0.276 OA
ATOM     17  H   LIG d   1      -2.949  94.879 118.175  0.00  0.00     0.149 HD
ENDBRANCH   6  13
BRANCH   5  18
ATOM     18  N   LIG d   1      -0.237  95.095 120.725  0.00  0.00     0.381 N 
ATOM     19  H   LIG d   1      -0.679  95.982 120.586  0.00  0.00    -0.090 HD
ATOM     20  H   LIG d   1       0.723  95.256 120.972  0.00  0.00    -0.090 HD
ATOM     21  H   LIG d   1      -0.697  94.598 121.456  0.00  0.00    -0.090 HD
ENDBRANCH   5  18
BRANCH   3  22
ATOM     22  C   LIG d   1       2.021  91.828 118.047  0.00  0.00     0.382 C 
ATOM     23  O   LIG d   1       2.816  92.519 117.366  0.00  0.00    -0.241 OA
ATOM     24  O   LIG d   1       2.303  90.643 118.305  0.00  0.00    -0.241 OA
ENDBRANCH   3  22
TORSDOF 7
ENDMDL
MODEL 7
REMARK VINA RESULT:      -4.0      3.108      4.718
REMARK  7 active torsions:
REMARK  status: ('A' for Active; 'I' for Inactive)
REMARK    1  A    between atoms: C_2  and  C_3 
REMARK    2  A    between atoms: C_3  and  O_6 
REMARK    3  A    between atoms: C_3  and  C_4 
REMARK    4  A    between atoms: C_7  and  O_6 
REMARK    5  A    between atoms: C_9  and  C_10 
REMARK    6  A    between atoms: N_15  and  C_14 
REMARK    7  A    between atoms: N_20  and  C_19 
REMARK       I    between atoms: C_22  and  N_20 
ROOT
ATOM      1  C   LIG d   1      -0.196  90.238 119.202  0.00  0.00     0.161 C 
ATOM      2  C   LIG d   1      -1.559  89.945 119.029  0.00  0.00     0.016 C 
ATOM      3  C   LIG d   1      -2.527  90.917 118.689  0.00  0.00     0.038 C 
ATOM      4  C   LIG d   1      -2.172  92.230 118.347  0.00  0.00     0.028 C 
ATOM      5  C   LIG d   1      -0.872  92.694 118.997  0.00  0.00    -0.047 C 
ATOM      6  C   LIG d   1       0.228  91.643 118.725  0.00  0.00     0.091 C 
ENDROOT
BRANCH   1   7
ATOM      7  O   LIG d   1       0.607  89.228 118.560  0.00  0.00    -0.368 OA
BRANCH   7   8
ATOM      8  C   LIG d   1       0.530  89.176 117.114  0.00  0.00     0.119 C 
BRANCH   8   9
ATOM      9  C   LIG d   1       0.113  87.744 116.724  0.00  0.00     0.028 C 
ATOM     10  C   LIG d   1       0.290  86.746 117.881  0.00  0.00     0.006 C 
ENDBRANCH   8   9
BRANCH   8  11
ATOM     11  C   LIG d   1       1.906  89.386 116.475  0.00  0.00     0.028 C 
ATOM     12  C   LIG d   1       3.062  89.143 117.457  0.00  0.00     0.006 C 
ENDBRANCH   8  11
ENDBRANCH   7   8
ENDBRANCH   1   7
BRANCH   6  13
ATOM     13  N   LIG d   1       1.511  91.979 119.397  0.00  0.00    -0.311 N 
ATOM     14  C   LIG d   1       2.543  92.538 118.769  0.00  0.00     0.210 C 
ATOM     15  C   LIG d   1       3.777  92.781 119.644  0.00  0.00     0.109 C 
ATOM     16  O   LIG d   1       2.544  92.884 117.579  0.00  0.00    -0.276 OA
ATOM     17  H   LIG d   1       1.586  91.760 120.372  0.00  0.00     0.149 HD
ENDBRANCH   6  13
BRANCH   5  18
ATOM     18  N   LIG d   1      -0.550  94.025 118.449  0.00  0.00     0.381 N 
ATOM     19  H   LIG d   1      -1.358  94.413 118.005  0.00  0.00    -0.090 HD
ATOM     20  H   LIG d   1       0.172  93.925 117.757  0.00  0.00    -0.090 HD
ATOM     21  H   LIG d   1      -0.240  94.628 119.178  0.00  0.00    -0.090 HD
ENDBRANCH   5  18
BRANCH   3  22
ATOM     22  C   LIG d   1      -3.874  90.588 118.726  0.00  0.00     0.382 C 
ATOM     23  O   LIG d   1      -4.698  91.378 119.245  0.00  0.00    -0.241 OA
ATOM     24  O   LIG d   1      -4.269  89.491 118.288  0.00  0.00    -0.241 OA
ENDBRANCH   3  22
TORSDOF 7
ENDMDL
MODEL 8
REMARK VINA RESULT:      -4.0      3.151      5.076
REMARK  7 active torsions:
REMARK  status: ('A' for Active; 'I' for Inactive)
REMARK    1  A    between atoms: C_2  and  C_3 
REMARK    2  A    between atoms: C_3  and  O_6 
REMARK    3  A    between atoms: C_3  and  C_4 
REMARK    4  A    between atoms: C_7  and  O_6 
REMARK    5  A    between atoms: C_9  and  C_10 
REMARK    6  A    between atoms: N_15  and  C_14 
REMARK    7  A    between atoms: N_20  and  C_19 
REMARK       I    between atoms: C_22  and  N_20 
ROOT
ATOM      1  C   LIG d   1      -0.392  89.460 117.771  0.00  0.00     0.161 C 
ATOM      2  C   LIG d   1      -1.796  89.458 117.807  0.00  0.00     0.016 C 
ATOM      3  C   LIG d   1      -2.565  90.558 118.250  0.00  0.00     0.038 C 
ATOM      4  C   LIG d   1      -1.982  91.799 118.546  0.00  0.00     0.028 C 
ATOM      5  C   LIG d   1      -0.532  91.692 119.007  0.00  0.00    -0.047 C 
ATOM      6  C   LIG d   1       0.258  90.843 117.985  0.00  0.00     0.091 C 
ENDROOT
BRANCH   1   7
ATOM      7  O   LIG d   1       0.067  88.878 116.535  0.00  0.00    -0.368 OA
BRANCH   7   8
ATOM      8  C   LIG d   1       0.847  87.663 116.653  0.00  0.00     0.119 C 
BRANCH   8   9
ATOM      9  C   LIG d   1       2.237  87.945 116.051  0.00  0.00     0.028 C 
ATOM     10  C   LIG d   1       2.538  87.060 114.830  0.00  0.00     0.006 C 
ENDBRANCH   8   9
BRANCH   8  11
ATOM     11  C   LIG d   1       0.257  86.536 115.801  0.00  0.00     0.028 C 
ATOM     12  C   LIG d   1      -1.196  86.203 116.176  0.00  0.00     0.006 C 
ENDBRANCH   8  11
ENDBRANCH   7   8
ENDBRANCH   1   7
BRANCH   6  13
ATOM     13  N   LIG d   1       1.666  90.619 118.403  0.00  0.00    -0.311 N 
ATOM     14  C   LIG d   1       2.676  91.403 118.030  0.00  0.00     0.210 C 
ATOM     15  C   LIG d   1       4.051  90.982 118.557  0.00  0.00     0.109 C 
ATOM     16  O   LIG d   1       2.559  92.427 117.340  0.00  0.00    -0.276 OA
ATOM     17  H   LIG d   1       1.847  89.828 118.990  0.00  0.00     0.149 HD
ENDBRANCH   6  13
BRANCH   5  18
ATOM     18  N   LIG d   1      -0.007  93.063 119.149  0.00  0.00     0.381 N 
ATOM     19  H   LIG d   1      -0.124  93.375 120.093  0.00  0.00    -0.090 HD
ATOM     20  H   LIG d   1      -0.530  93.675 118.548  0.00  0.00    -0.090 HD
ATOM     21  H   LIG d   1       0.957  93.087 118.901  0.00  0.00    -0.090 HD
ENDBRANCH   5  18
BRANCH   3  22
ATOM     22  C   LIG d   1      -3.931  90.411 118.438  0.00  0.00     0.382 C 
ATOM     23  O   LIG d   1      -4.575  91.284 119.068  0.00  0.00    -0.241 OA
ATOM     24  O   LIG d   1      -4.519  89.394 118.025  0.00  0.00    -0.241 OA
ENDBRANCH   3  22
TORSDOF 7
ENDMDL
MODEL 9
REMARK VINA RESULT:      -3.9      3.393      4.919
REMARK  7 active torsions:
REMARK  status: ('A' for Active; 'I' for Inactive)
REMARK    1  A    between atoms: C_2  and  C_3 
REMARK    2  A    between atoms: C_3  and  O_6 
REMARK    3  A    between atoms: C_3  and  C_4 
REMARK    4  A    between atoms: C_7  and  O_6 
REMARK    5  A    between atoms: C_9  and  C_10 
REMARK    6  A    between atoms: N_15  and  C_14 
REMARK    7  A    between atoms: N_20  and  C_19 
REMARK       I    between atoms: C_22  and  N_20 
ROOT
ATOM      1  C   LIG d   1      -0.219  90.341 119.392  0.00  0.00     0.161 C 
ATOM      2  C   LIG d   1       0.128  89.324 118.487  0.00  0.00     0.016 C 
ATOM      3  C   LIG d   1      -0.726  88.880 117.450  0.00  0.00     0.038 C 
ATOM      4  C   LIG d   1      -1.932  89.532 117.153  0.00  0.00     0.028 C 
ATOM      5  C   LIG d   1      -2.552  90.236 118.355  0.00  0.00    -0.047 C 
ATOM      6  C   LIG d   1      -1.484  91.139 119.014  0.00  0.00     0.091 C 
ENDROOT
BRANCH   1   7
ATOM      7  O   LIG d   1       0.899  91.232 119.577  0.00  0.00    -0.368 OA
BRANCH   7   8
ATOM      8  C   LIG d   1       1.034  92.296 118.603  0.00  0.00     0.119 C 
BRANCH   8   9
ATOM      9  C   LIG d   1       2.332  92.039 117.813  0.00  0.00     0.028 C 
ATOM     10  C   LIG d   1       3.307  93.226 117.884  0.00  0.00     0.006 C 
ENDBRANCH   8   9
BRANCH   8  11
ATOM     11  C   LIG d   1       1.237  93.653 119.285  0.00  0.00     0.028 C 
ATOM     12  C   LIG d   1       1.166  93.566 120.818  0.00  0.00     0.006 C 
ENDBRANCH   8  11
ENDBRANCH   7   8
ENDBRANCH   1   7
BRANCH   6  13
ATOM     13  N   LIG d   1      -1.984  91.801 120.247  0.00  0.00    -0.311 N 
ATOM     14  C   LIG d   1      -2.436  93.053 120.276  0.00  0.00     0.210 C 
ATOM     15  C   LIG d   1      -2.885  93.547 121.655  0.00  0.00     0.109 C 
ATOM     16  O   LIG d   1      -2.538  93.791 119.284  0.00  0.00    -0.276 OA
ATOM     17  H   LIG d   1      -1.965  91.264 121.092  0.00  0.00     0.149 HD
ENDBRANCH   6  13
BRANCH   5  18
ATOM     18  N   LIG d   1      -3.727  90.987 117.874  0.00  0.00     0.381 N 
ATOM     19  H   LIG d   1      -3.770  91.877 118.330  0.00  0.00    -0.090 HD
ATOM     20  H   LIG d   1      -4.558  90.473 118.106  0.00  0.00    -0.090 HD
ATOM     21  H   LIG d   1      -3.670  91.114 116.888  0.00  0.00    -0.090 HD
ENDBRANCH   5  18
BRANCH   3  22
ATOM     22  C   LIG d   1      -0.393  87.747 116.724  0.00  0.00     0.382 C 
ATOM     23  O   LIG d   1       0.628  87.747 115.995  0.00  0.00    -0.241 OA
ATOM     24  O   LIG d   1      -1.125  86.740 116.754  0.00  0.00    -0.241 OA
ENDBRANCH   3  22
TORSDOF 7
ENDMDL
