MODEL 1
REMARK VINA RESULT:      -5.8      0.000      0.000
REMARK  7 active torsions:
REMARK  status: ('A' for Active; 'I' for Inactive)
REMARK    1  A    between atoms: C_2  and  C_3 
REMARK    2  A    between atoms: C_3  and  O_6 
REMARK    3  A    between atoms: C_3  and  C_4 
REMARK    4  A    between atoms: C_7  and  O_6 
REMARK    5  A    between atoms: C_9  and  C_10 
REMARK    6  A    between atoms: N_15  and  C_14 
REMARK    7  A    between atoms: N_20  and  C_19 
REMARK       I    between atoms: C_22  and  N_20 
ROOT
ATOM      1  C   LIG d   1      -4.391  92.104 118.049  0.00  0.00     0.161 C 
ATOM      2  C   LIG d   1      -4.961  91.360 117.002  0.00  0.00     0.016 C 
ATOM      3  C   LIG d   1      -6.221  91.657 116.433  0.00  0.00     0.038 C 
ATOM      4  C   LIG d   1      -6.933  92.816 116.772  0.00  0.00     0.028 C 
ATOM      5  C   LIG d   1      -6.634  93.321 118.180  0.00  0.00    -0.047 C 
ATOM      6  C   LIG d   1      -5.103  93.438 118.356  0.00  0.00     0.091 C 
ENDROOT
BRANCH   1   7
ATOM      7  O   LIG d   1      -2.993  92.332 117.781  0.00  0.00    -0.368 OA
BRANCH   7   8
ATOM      8  C   LIG d   1      -2.060  91.508 118.522  0.00  0.00     0.119 C 
BRANCH   8   9
ATOM      9  C   LIG d   1      -0.822  92.373 118.829  0.00  0.00     0.028 C 
ATOM     10  C   LIG d   1      -0.066  92.789 117.556  0.00  0.00     0.006 C 
ENDBRANCH   8   9
BRANCH   8  11
ATOM     11  C   LIG d   1      -1.542  90.347 117.668  0.00  0.00     0.028 C 
ATOM     12  C   LIG d   1      -2.212  89.008 118.014  0.00  0.00     0.006 C 
ENDBRANCH   8  11
ENDBRANCH   7   8
ENDBRANCH   1   7
BRANCH   6  13
ATOM     13  N   LIG d   1      -4.720  93.846 119.733  0.00  0.00    -0.311 N 
ATOM     14  C   LIG d   1      -4.523  95.112 120.095  0.00  0.00     0.210 C 
ATOM     15  C   LIG d   1      -4.114  95.311 121.558  0.00  0.00     0.109 C 
ATOM     16  O   LIG d   1      -4.678  96.093 119.351  0.00  0.00    -0.276 OA
ATOM     17  H   LIG d   1      -4.603  93.116 120.408  0.00  0.00     0.149 HD
ENDBRANCH   6  13
BRANCH   5  18
ATOM     18  N   LIG d   1      -7.336  94.607 118.351  0.00  0.00     0.381 N 
ATOM     19  H   LIG d   1      -7.010  95.264 117.670  0.00  0.00    -0.090 HD
ATOM     20  H   LIG d   1      -7.129  94.971 119.264  0.00  0.00    -0.090 HD
ATOM     21  H   LIG d   1      -8.318  94.475 118.252  0.00  0.00    -0.090 HD
ENDBRANCH   5  18
BRANCH   3  22
ATOM     22  C   LIG d   1      -6.799  90.766 115.542  0.00  0.00     0.382 C 
ATOM     23  O   LIG d   1      -6.113  89.839 115.048  0.00  0.00    -0.241 OA
ATOM     24  O   LIG d   1      -7.986  90.903 115.191  0.00  0.00    -0.241 OA
ENDBRANCH   3  22
TORSDOF 7
ENDMDL
MODEL 2
REMARK VINA RESULT:      -5.8      2.521      4.951
REMARK  7 active torsions:
REMARK  status: ('A' for Active; 'I' for Inactive)
REMARK    1  A    between atoms: C_2  and  C_3 
REMARK    2  A    between atoms: C_3  and  O_6 
REMARK    3  A    between atoms: C_3  and  C_4 
REMARK    4  A    between atoms: C_7  and  O_6 
REMARK    5  A    between atoms: C_9  and  C_10 
REMARK    6  A    between atoms: N_15  and  C_14 
REMARK    7  A    between atoms: N_20  and  C_19 
REMARK       I    between atoms: C_22  and  N_20 
ROOT
ATOM      1  C   LIG d   1      -7.261  93.280 117.765  0.00  0.00     0.161 C 
ATOM      2  C   LIG d   1      -7.542  92.278 116.821  0.00  0.00     0.016 C 
ATOM      3  C   LIG d   1      -6.573  91.367 116.342  0.00  0.00     0.038 C 
ATOM      4  C   LIG d   1      -5.284  91.298 116.891  0.00  0.00     0.028 C 
ATOM      5  C   LIG d   1      -4.808  92.619 117.487  0.00  0.00    -0.047 C 
ATOM      6  C   LIG d   1      -5.888  93.149 118.458  0.00  0.00     0.091 C 
ENDROOT
BRANCH   1   7
ATOM      7  O   LIG d   1      -8.314  93.334 118.747  0.00  0.00    -0.368 OA
BRANCH   7   8
ATOM      8  C   LIG d   1      -9.278  94.405 118.589  0.00  0.00     0.119 C 
BRANCH   8   9
ATOM      9  C   LIG d   1      -8.615  95.502 117.734  0.00  0.00     0.028 C 
ATOM     10  C   LIG d   1      -8.274  96.758 118.553  0.00  0.00     0.006 C 
ENDBRANCH   8   9
BRANCH   8  11
ATOM     11  C   LIG d   1      -9.594  95.072 119.931  0.00  0.00     0.028 C 
ATOM     12  C   LIG d   1      -9.468  94.108 121.121  0.00  0.00     0.006 C 
ENDBRANCH   8  11
ENDBRANCH   7   8
ENDBRANCH   1   7
BRANCH   6  13
ATOM     13  N   LIG d   1      -5.540  94.480 119.020  0.00  0.00    -0.311 N 
ATOM     14  C   LIG d   1      -5.614  94.769 120.319  0.00  0.00     0.210 C 
ATOM     15  C   LIG d   1      -5.229  96.206 120.684  0.00  0.00     0.109 C 
ATOM     16  O   LIG d   1      -5.930  93.962 121.206  0.00  0.00    -0.276 OA
ATOM     17  H   LIG d   1      -5.244  95.185 118.375  0.00  0.00     0.149 HD
ENDBRANCH   6  13
BRANCH   5  18
ATOM     18  N   LIG d   1      -3.512  92.371 118.145  0.00  0.00     0.381 N 
ATOM     19  H   LIG d   1      -3.575  91.555 118.720  0.00  0.00    -0.090 HD
ATOM     20  H   LIG d   1      -3.290  93.155 118.733  0.00  0.00    -0.090 HD
ATOM     21  H   LIG d   1      -2.799  92.248 117.459  0.00  0.00    -0.090 HD
ENDBRANCH   5  18
BRANCH   3  22
ATOM     22  C   LIG d   1      -6.878  90.537 115.274  0.00  0.00     0.382 C 
ATOM     23  O   LIG d   1      -6.035  89.701 114.868  0.00  0.00    -0.241 OA
ATOM     24  O   LIG d   1      -7.969  90.644 114.683  0.00  0.00    -0.241 OA
ENDBRANCH   3  22
TORSDOF 7
ENDMDL
MODEL 3
REMARK VINA RESULT:      -5.5      2.374      5.167
REMARK  7 active torsions:
REMARK  status: ('A' for Active; 'I' for Inactive)
REMARK    1  A    between atoms: C_2  and  C_3 
REMARK    2  A    between atoms: C_3  and  O_6 
REMARK    3  A    between atoms: C_3  and  C_4 
REMARK    4  A    between atoms: C_7  and  O_6 
REMARK    5  A    between atoms: C_9  and  C_10 
REMARK    6  A    between atoms: N_15  and  C_14 
REMARK    7  A    between atoms: N_20  and  C_19 
REMARK       I    between atoms: C_22  and  N_20 
ROOT
ATOM      1  C   LIG d   1      -7.022  93.463 118.054  0.00  0.00     0.161 C 
ATOM      2  C   LIG d   1      -7.445  92.438 117.191  0.00  0.00     0.016 C 
ATOM      3  C   LIG d   1      -6.563  91.499 116.608  0.00  0.00     0.038 C 
ATOM      4  C   LIG d   1      -5.210  91.427 116.970  0.00  0.00     0.028 C 
ATOM      5  C   LIG d   1      -4.641  92.758 117.451  0.00  0.00    -0.047 C 
ATOM      6  C   LIG d   1      -5.566  93.332 118.548  0.00  0.00     0.091 C 
ENDROOT
BRANCH   1   7
ATOM      7  O   LIG d   1      -7.924  93.562 119.173  0.00  0.00    -0.368 OA
BRANCH   7   8
ATOM      8  C   LIG d   1      -8.493  94.872 119.419  0.00  0.00     0.119 C 
BRANCH   8   9
ATOM      9  C   LIG d   1      -9.979  94.671 119.776  0.00  0.00     0.028 C 
ATOM     10  C   LIG d   1     -10.491  95.728 120.769  0.00  0.00     0.006 C 
ENDBRANCH   8   9
BRANCH   8  11
ATOM     11  C   LIG d   1      -8.494  95.726 118.148  0.00  0.00     0.028 C 
ATOM     12  C   LIG d   1      -7.917  97.133 118.375  0.00  0.00     0.006 C 
ENDBRANCH   8  11
ENDBRANCH   7   8
ENDBRANCH   1   7
BRANCH   6  13
ATOM     13  N   LIG d   1      -5.127  94.674 119.014  0.00  0.00    -0.311 N 
ATOM     14  C   LIG d   1      -4.336  94.860 120.069  0.00  0.00     0.210 C 
ATOM     15  C   LIG d   1      -4.021  96.325 120.390  0.00  0.00     0.109 C 
ATOM     16  O   LIG d   1      -3.839  93.951 120.751  0.00  0.00    -0.276 OA
ATOM     17  H   LIG d   1      -5.458  95.466 118.500  0.00  0.00     0.149 HD
ENDBRANCH   6  13
BRANCH   5  18
ATOM     18  N   LIG d   1      -3.266  92.509 117.925  0.00  0.00     0.381 N 
ATOM     19  H   LIG d   1      -2.959  93.276 118.489  0.00  0.00    -0.090 HD
ATOM     20  H   LIG d   1      -2.656  92.437 117.131  0.00  0.00    -0.090 HD
ATOM     21  H   LIG d   1      -3.236  91.665 118.455  0.00  0.00    -0.090 HD
ENDBRANCH   5  18
BRANCH   3  22
ATOM     22  C   LIG d   1      -7.027  90.643 115.620  0.00  0.00     0.382 C 
ATOM     23  O   LIG d   1      -6.258  89.786 115.121  0.00  0.00    -0.241 OA
ATOM     24  O   LIG d   1      -8.192  90.746 115.191  0.00  0.00    -0.241 OA
ENDBRANCH   3  22
TORSDOF 7
ENDMDL
MODEL 4
REMARK VINA RESULT:      -5.5      2.026      4.752
REMARK  7 active torsions:
REMARK  status: ('A' for Active; 'I' for Inactive)
REMARK    1  A    between atoms: C_2  and  C_3 
REMARK    2  A    between atoms: C_3  and  O_6 
REMARK    3  A    between atoms: C_3  and  C_4 
REMARK    4  A    between atoms: C_7  and  O_6 
REMARK    5  A    between atoms: C_9  and  C_10 
REMARK    6  A    between atoms: N_15  and  C_14 
REMARK    7  A    between atoms: N_20  and  C_19 
REMARK       I    between atoms: C_22  and  N_20 
ROOT
ATOM      1  C   LIG d   1      -4.950  92.622 117.637  0.00  0.00     0.161 C 
ATOM      2  C   LIG d   1      -4.213  91.449 117.403  0.00  0.00     0.016 C 
ATOM      3  C   LIG d   1      -3.131  91.035 118.213  0.00  0.00     0.038 C 
ATOM      4  C   LIG d   1      -2.806  91.693 119.409  0.00  0.00     0.028 C 
ATOM      5  C   LIG d   1      -3.198  93.166 119.416  0.00  0.00    -0.047 C 
ATOM      6  C   LIG d   1      -4.682  93.293 119.001  0.00  0.00     0.091 C 
ENDROOT
BRANCH   1   7
ATOM      7  O   LIG d   1      -6.358  92.354 117.479  0.00  0.00    -0.368 OA
BRANCH   7   8
ATOM      8  C   LIG d   1      -6.827  92.197 116.118  0.00  0.00     0.119 C 
BRANCH   8   9
ATOM      9  C   LIG d   1      -7.943  93.235 115.890  0.00  0.00     0.028 C 
ATOM     10  C   LIG d   1      -8.407  93.895 117.199  0.00  0.00     0.006 C 
ENDBRANCH   8   9
BRANCH   8  11
ATOM     11  C   LIG d   1      -7.495  90.833 115.913  0.00  0.00     0.028 C 
ATOM     12  C   LIG d   1      -7.621  90.449 114.430  0.00  0.00     0.006 C 
ENDBRANCH   8  11
ENDBRANCH   7   8
ENDBRANCH   1   7
BRANCH   6  13
ATOM     13  N   LIG d   1      -5.124  94.708 118.900  0.00  0.00    -0.311 N 
ATOM     14  C   LIG d   1      -6.046  95.246 119.696  0.00  0.00     0.210 C 
ATOM     15  C   LIG d   1      -6.369  96.716 119.410  0.00  0.00     0.109 C 
ATOM     16  O   LIG d   1      -6.604  94.655 120.633  0.00  0.00    -0.276 OA
ATOM     17  H   LIG d   1      -4.700  95.269 118.187  0.00  0.00     0.149 HD
ENDBRANCH   6  13
BRANCH   5  18
ATOM     18  N   LIG d   1      -2.929  93.693 120.767  0.00  0.00     0.381 N 
ATOM     19  H   LIG d   1      -2.926  92.943 121.429  0.00  0.00    -0.090 HD
ATOM     20  H   LIG d   1      -3.662  94.332 121.019  0.00  0.00    -0.090 HD
ATOM     21  H   LIG d   1      -2.050  94.162 120.782  0.00  0.00    -0.090 HD
ENDBRANCH   5  18
BRANCH   3  22
ATOM     22  C   LIG d   1      -2.335  89.975 117.807  0.00  0.00     0.382 C 
ATOM     23  O   LIG d   1      -1.236  90.196 117.244  0.00  0.00    -0.241 OA
ATOM     24  O   LIG d   1      -2.722  88.801 117.957  0.00  0.00    -0.241 OA
ENDBRANCH   3  22
TORSDOF 7
ENDMDL
MODEL 5
REMARK VINA RESULT:      -5.1      2.515      6.419
REMARK  7 active torsions:
REMARK  status: ('A' for Active; 'I' for Inactive)
REMARK    1  A    between atoms: C_2  and  C_3 
REMARK    2  A    between atoms: C_3  and  O_6 
REMARK    3  A    between atoms: C_3  and  C_4 
REMARK    4  A    between atoms: C_7  and  O_6 
REMARK    5  A    between atoms: C_9  and  C_10 
REMARK    6  A    between atoms: N_15  and  C_14 
REMARK    7  A    between atoms: N_20  and  C_19 
REMARK       I    between atoms: C_22  and  N_20 
ROOT
ATOM      1  C   LIG d   1      -5.361  93.005 118.739  0.00  0.00     0.161 C 
ATOM      2  C   LIG d   1      -4.369  93.600 119.536  0.00  0.00     0.016 C 
ATOM      3  C   LIG d   1      -3.001  93.247 119.468  0.00  0.00     0.038 C 
ATOM      4  C   LIG d   1      -2.508  92.377 118.484  0.00  0.00     0.028 C 
ATOM      5  C   LIG d   1      -3.543  91.372 117.990  0.00  0.00    -0.047 C 
ATOM      6  C   LIG d   1      -4.826  92.133 117.584  0.00  0.00     0.091 C 
ENDROOT
BRANCH   1   7
ATOM      7  O   LIG d   1      -6.253  94.017 118.232  0.00  0.00    -0.368 OA
BRANCH   7   8
ATOM      8  C   LIG d   1      -7.461  94.244 118.998  0.00  0.00     0.119 C 
BRANCH   8   9
ATOM      9  C   LIG d   1      -8.643  93.705 118.168  0.00  0.00     0.028 C 
ATOM     10  C   LIG d   1      -8.762  94.396 116.799  0.00  0.00     0.006 C 
ENDBRANCH   8   9
BRANCH   8  11
ATOM     11  C   LIG d   1      -7.738  95.741 119.172  0.00  0.00     0.028 C 
ATOM     12  C   LIG d   1      -7.584  96.209 120.628  0.00  0.00     0.006 C 
ENDBRANCH   8  11
ENDBRANCH   7   8
ENDBRANCH   1   7
BRANCH   6  13
ATOM     13  N   LIG d   1      -5.920  91.217 117.167  0.00  0.00    -0.311 N 
ATOM     14  C   LIG d   1      -6.640  91.391 116.060  0.00  0.00     0.210 C 
ATOM     15  C   LIG d   1      -7.733  90.343 115.828  0.00  0.00     0.109 C 
ATOM     16  O   LIG d   1      -6.457  92.296 115.232  0.00  0.00    -0.276 OA
ATOM     17  H   LIG d   1      -6.116  90.439 117.766  0.00  0.00     0.149 HD
ENDBRANCH   6  13
BRANCH   5  18
ATOM     18  N   LIG d   1      -2.938  90.621 116.874  0.00  0.00     0.381 N 
ATOM     19  H   LIG d   1      -2.434  89.834 117.230  0.00  0.00    -0.090 HD
ATOM     20  H   LIG d   1      -2.291  91.220 116.393  0.00  0.00    -0.090 HD
ATOM     21  H   LIG d   1      -3.648  90.314 116.246  0.00  0.00    -0.090 HD
ENDBRANCH   5  18
BRANCH   3  22
ATOM     22  C   LIG d   1      -2.117  93.738 120.416  0.00  0.00     0.382 C 
ATOM     23  O   LIG d   1      -2.059  93.209 121.553  0.00  0.00    -0.241 OA
ATOM     24  O   LIG d   1      -1.408  94.731 120.165  0.00  0.00    -0.241 OA
ENDBRANCH   3  22
TORSDOF 7
ENDMDL
MODEL 6
REMARK VINA RESULT:      -5.1      2.056      3.314
REMARK  7 active torsions:
REMARK  status: ('A' for Active; 'I' for Inactive)
REMARK    1  A    between atoms: C_2  and  C_3 
REMARK    2  A    between atoms: C_3  and  O_6 
REMARK    3  A    between atoms: C_3  and  C_4 
REMARK    4  A    between atoms: C_7  and  O_6 
REMARK    5  A    between atoms: C_9  and  C_10 
REMARK    6  A    between atoms: N_15  and  C_14 
REMARK    7  A    between atoms: N_20  and  C_19 
REMARK       I    between atoms: C_22  and  N_20 
ROOT
ATOM      1  C   LIG d   1      -6.973  93.029 119.044  0.00  0.00     0.161 C 
ATOM      2  C   LIG d   1      -6.856  92.140 117.963  0.00  0.00     0.016 C 
ATOM      3  C   LIG d   1      -7.335  92.427 116.664  0.00  0.00     0.038 C 
ATOM      4  C   LIG d   1      -7.832  93.693 116.320  0.00  0.00     0.028 C 
ATOM      5  C   LIG d   1      -8.432  94.449 117.500  0.00  0.00    -0.047 C 
ATOM      6  C   LIG d   1      -7.412  94.458 118.662  0.00  0.00     0.091 C 
ENDROOT
BRANCH   1   7
ATOM      7  O   LIG d   1      -5.736  93.065 119.782  0.00  0.00    -0.368 OA
BRANCH   7   8
ATOM      8  C   LIG d   1      -4.631  93.749 119.142  0.00  0.00     0.119 C 
BRANCH   8   9
ATOM      9  C   LIG d   1      -3.414  92.806 119.186  0.00  0.00     0.028 C 
ATOM     10  C   LIG d   1      -3.338  91.888 117.954  0.00  0.00     0.006 C 
ENDBRANCH   8   9
BRANCH   8  11
ATOM     11  C   LIG d   1      -4.210  94.991 119.933  0.00  0.00     0.028 C 
ATOM     12  C   LIG d   1      -4.638  94.930 121.408  0.00  0.00     0.006 C 
ENDBRANCH   8  11
ENDBRANCH   7   8
ENDBRANCH   1   7
BRANCH   6  13
ATOM     13  N   LIG d   1      -7.952  95.105 119.886  0.00  0.00    -0.311 N 
ATOM     14  C   LIG d   1      -7.758  96.389 120.182  0.00  0.00     0.210 C 
ATOM     15  C   LIG d   1      -8.384  96.849 121.502  0.00  0.00     0.109 C 
ATOM     16  O   LIG d   1      -7.154  97.198 119.462  0.00  0.00    -0.276 OA
ATOM     17  H   LIG d   1      -8.481  94.529 120.511  0.00  0.00     0.149 HD
ENDBRANCH   6  13
BRANCH   5  18
ATOM     18  N   LIG d   1      -8.784  95.802 117.030  0.00  0.00     0.381 N 
ATOM     19  H   LIG d   1      -8.825  95.814 116.030  0.00  0.00    -0.090 HD
ATOM     20  H   LIG d   1      -8.069  96.445 117.323  0.00  0.00    -0.090 HD
ATOM     21  H   LIG d   1      -9.664  96.077 117.409  0.00  0.00    -0.090 HD
ENDBRANCH   5  18
BRANCH   3  22
ATOM     22  C   LIG d   1      -7.356  91.428 115.703  0.00  0.00     0.382 C 
ATOM     23  O   LIG d   1      -6.586  91.492 114.715  0.00  0.00    -0.241 OA
ATOM     24  O   LIG d   1      -8.167  90.486 115.788  0.00  0.00    -0.241 OA
ENDBRANCH   3  22
TORSDOF 7
ENDMDL
MODEL 7
REMARK VINA RESULT:      -5.0      2.161      4.985
REMARK  7 active torsions:
REMARK  status: ('A' for Active; 'I' for Inactive)
REMARK    1  A    between atoms: C_2  and  C_3 
REMARK    2  A    between atoms: C_3  and  O_6 
REMARK    3  A    between atoms: C_3  and  C_4 
REMARK    4  A    between atoms: C_7  and  O_6 
REMARK    5  A    between atoms: C_9  and  C_10 
REMARK    6  A    between atoms: N_15  and  C_14 
REMARK    7  A    between atoms: N_20  and  C_19 
REMARK       I    between atoms: C_22  and  N_20 
ROOT
ATOM      1  C   LIG d   1      -3.107  91.115 117.858  0.00  0.00     0.161 C 
ATOM      2  C   LIG d   1      -2.294  91.690 118.848  0.00  0.00     0.016 C 
ATOM      3  C   LIG d   1      -2.642  92.864 119.555  0.00  0.00     0.038 C 
ATOM      4  C   LIG d   1      -3.904  93.462 119.425  0.00  0.00     0.028 C 
ATOM      5  C   LIG d   1      -4.558  93.208 118.071  0.00  0.00    -0.047 C 
ATOM      6  C   LIG d   1      -4.537  91.689 117.780  0.00  0.00     0.091 C 
ENDROOT
BRANCH   1   7
ATOM      7  O   LIG d   1      -3.151  89.684 118.031  0.00  0.00    -0.368 OA
BRANCH   7   8
ATOM      8  C   LIG d   1      -2.053  89.099 118.773  0.00  0.00     0.119 C 
BRANCH   8   9
ATOM      9  C   LIG d   1      -1.095  88.456 117.752  0.00  0.00     0.028 C 
ATOM     10  C   LIG d   1       0.203  89.264 117.576  0.00  0.00     0.006 C 
ENDBRANCH   8   9
BRANCH   8  11
ATOM     11  C   LIG d   1      -2.533  87.946 119.660  0.00  0.00     0.028 C 
ATOM     12  C   LIG d   1      -1.564  86.752 119.662  0.00  0.00     0.006 C 
ENDBRANCH   8  11
ENDBRANCH   7   8
ENDBRANCH   1   7
BRANCH   6  13
ATOM     13  N   LIG d   1      -5.082  91.362 116.437  0.00  0.00    -0.311 N 
ATOM     14  C   LIG d   1      -6.384  91.259 116.179  0.00  0.00     0.210 C 
ATOM     15  C   LIG d   1      -6.730  90.893 114.732  0.00  0.00     0.109 C 
ATOM     16  O   LIG d   1      -7.287  91.468 117.003  0.00  0.00    -0.276 OA
ATOM     17  H   LIG d   1      -4.420  91.207 115.702  0.00  0.00     0.149 HD
ENDBRANCH   6  13
BRANCH   5  18
ATOM     18  N   LIG d   1      -5.921  93.768 118.121  0.00  0.00     0.381 N 
ATOM     19  H   LIG d   1      -6.565  93.066 118.428  0.00  0.00    -0.090 HD
ATOM     20  H   LIG d   1      -6.188  94.059 117.197  0.00  0.00    -0.090 HD
ATOM     21  H   LIG d   1      -5.947  94.547 118.743  0.00  0.00    -0.090 HD
ENDBRANCH   5  18
BRANCH   3  22
ATOM     22  C   LIG d   1      -1.705  93.475 120.375  0.00  0.00     0.382 C 
ATOM     23  O   LIG d   1      -1.545  93.072 121.553  0.00  0.00    -0.241 OA
ATOM     24  O   LIG d   1      -1.050  94.452 119.967  0.00  0.00    -0.241 OA
ENDBRANCH   3  22
TORSDOF 7
ENDMDL
MODEL 8
REMARK VINA RESULT:      -5.0      1.961      3.234
REMARK  7 active torsions:
REMARK  status: ('A' for Active; 'I' for Inactive)
REMARK    1  A    between atoms: C_2  and  C_3 
REMARK    2  A    between atoms: C_3  and  O_6 
REMARK    3  A    between atoms: C_3  and  C_4 
REMARK    4  A    between atoms: C_7  and  O_6 
REMARK    5  A    between atoms: C_9  and  C_10 
REMARK    6  A    between atoms: N_15  and  C_14 
REMARK    7  A    between atoms: N_20  and  C_19 
REMARK       I    between atoms: C_22  and  N_20 
ROOT
ATOM      1  C   LIG d   1      -6.101  92.795 118.125  0.00  0.00     0.161 C 
ATOM      2  C   LIG d   1      -5.835  91.789 117.181  0.00  0.00     0.016 C 
ATOM      3  C   LIG d   1      -6.594  91.609 116.002  0.00  0.00     0.038 C 
ATOM      4  C   LIG d   1      -7.583  92.524 115.609  0.00  0.00     0.028 C 
ATOM      5  C   LIG d   1      -8.222  93.264 116.779  0.00  0.00    -0.047 C 
ATOM      6  C   LIG d   1      -7.105  93.870 117.660  0.00  0.00     0.091 C 
ENDROOT
BRANCH   1   7
ATOM      7  O   LIG d   1      -4.867  93.410 118.544  0.00  0.00    -0.368 OA
BRANCH   7   8
ATOM      8  C   LIG d   1      -4.352  92.994 119.833  0.00  0.00     0.119 C 
BRANCH   8   9
ATOM      9  C   LIG d   1      -3.853  94.256 120.562  0.00  0.00     0.028 C 
ATOM     10  C   LIG d   1      -4.383  95.551 119.924  0.00  0.00     0.006 C 
ENDBRANCH   8   9
BRANCH   8  11
ATOM     11  C   LIG d   1      -3.118  92.100 119.678  0.00  0.00     0.028 C 
ATOM     12  C   LIG d   1      -1.860  92.887 119.277  0.00  0.00     0.006 C 
ENDBRANCH   8  11
ENDBRANCH   7   8
ENDBRANCH   1   7
BRANCH   6  13
ATOM     13  N   LIG d   1      -7.641  94.541 118.873  0.00  0.00    -0.311 N 
ATOM     14  C   LIG d   1      -8.780  94.185 119.465  0.00  0.00     0.210 C 
ATOM     15  C   LIG d   1      -9.160  95.020 120.691  0.00  0.00     0.109 C 
ATOM     16  O   LIG d   1      -9.495  93.236 119.109  0.00  0.00    -0.276 OA
ATOM     17  H   LIG d   1      -7.108  95.301 119.247  0.00  0.00     0.149 HD
ENDBRANCH   6  13
BRANCH   5  18
ATOM     18  N   LIG d   1      -9.133  94.280 116.219  0.00  0.00     0.381 N 
ATOM     19  H   LIG d   1      -9.099  94.251 115.220  0.00  0.00    -0.090 HD
ATOM     20  H   LIG d   1      -8.828  95.190 116.519  0.00  0.00    -0.090 HD
ATOM     21  H   LIG d   1     -10.064  94.114 116.533  0.00  0.00    -0.090 HD
ENDBRANCH   5  18
BRANCH   3  22
ATOM     22  C   LIG d   1      -6.392  90.481 115.221  0.00  0.00     0.382 C 
ATOM     23  O   LIG d   1      -7.288  90.098 114.430  0.00  0.00    -0.241 OA
ATOM     24  O   LIG d   1      -5.345  89.817 115.329  0.00  0.00    -0.241 OA
ENDBRANCH   3  22
TORSDOF 7
ENDMDL
MODEL 9
REMARK VINA RESULT:      -4.9      2.237      5.826
REMARK  7 active torsions:
REMARK  status: ('A' for Active; 'I' for Inactive)
REMARK    1  A    between atoms: C_2  and  C_3 
REMARK    2  A    between atoms: C_3  and  O_6 
REMARK    3  A    between atoms: C_3  and  C_4 
REMARK    4  A    between atoms: C_7  and  O_6 
REMARK    5  A    between atoms: C_9  and  C_10 
REMARK    6  A    between atoms: N_15  and  C_14 
REMARK    7  A    between atoms: N_20  and  C_19 
REMARK       I    between atoms: C_22  and  N_20 
ROOT
ATOM      1  C   LIG d   1      -5.069  92.410 118.119  0.00  0.00     0.161 C 
ATOM      2  C   LIG d   1      -5.648  93.596 118.598  0.00  0.00     0.016 C 
ATOM      3  C   LIG d   1      -4.995  94.474 119.494  0.00  0.00     0.038 C 
ATOM      4  C   LIG d   1      -3.651  94.300 119.855  0.00  0.00     0.028 C 
ATOM      5  C   LIG d   1      -3.191  92.847 119.795  0.00  0.00    -0.047 C 
ATOM      6  C   LIG d   1      -3.562  92.260 118.414  0.00  0.00     0.091 C 
ENDROOT
BRANCH   1   7
ATOM      7  O   LIG d   1      -5.317  92.282 116.705  0.00  0.00    -0.368 OA
BRANCH   7   8
ATOM      8  C   LIG d   1      -6.622  91.774 116.330  0.00  0.00     0.119 C 
BRANCH   8   9
ATOM      9  C   LIG d   1      -6.401  90.620 115.333  0.00  0.00     0.028 C 
ATOM     10  C   LIG d   1      -7.623  90.383 114.430  0.00  0.00     0.006 C 
ENDBRANCH   8   9
BRANCH   8  11
ATOM     11  C   LIG d   1      -7.429  92.825 115.562  0.00  0.00     0.028 C 
ATOM     12  C   LIG d   1      -8.317  93.681 116.478  0.00  0.00     0.006 C 
ENDBRANCH   8  11
ENDBRANCH   7   8
ENDBRANCH   1   7
BRANCH   6  13
ATOM     13  N   LIG d   1      -3.222  90.818 118.302  0.00  0.00    -0.311 N 
ATOM     14  C   LIG d   1      -2.051  90.373 117.848  0.00  0.00     0.210 C 
ATOM     15  C   LIG d   1      -1.915  88.848 117.795  0.00  0.00     0.109 C 
ATOM     16  O   LIG d   1      -1.101  91.097 117.515  0.00  0.00    -0.276 OA
ATOM     17  H   LIG d   1      -3.925  90.161 118.580  0.00  0.00     0.149 HD
ENDBRANCH   6  13
BRANCH   5  18
ATOM     18  N   LIG d   1      -1.740  92.828 120.061  0.00  0.00     0.381 N 
ATOM     19  H   LIG d   1      -1.573  92.580 121.015  0.00  0.00    -0.090 HD
ATOM     20  H   LIG d   1      -1.368  93.749 119.905  0.00  0.00    -0.090 HD
ATOM     21  H   LIG d   1      -1.291  92.174 119.457  0.00  0.00    -0.090 HD
ENDBRANCH   5  18
BRANCH   3  22
ATOM     22  C   LIG d   1      -5.702  95.519 120.070  0.00  0.00     0.382 C 
ATOM     23  O   LIG d   1      -5.189  96.184 121.002  0.00  0.00    -0.241 OA
ATOM     24  O   LIG d   1      -6.863  95.776 119.700  0.00  0.00    -0.241 OA
ENDBRANCH   3  22
TORSDOF 7
ENDMDL
