MODEL 1
REMARK VINA RESULT:      -5.6      0.000      0.000
REMARK  7 active torsions:
REMARK  status: ('A' for Active; 'I' for Inactive)
REMARK    1  A    between atoms: C_2  and  C_3 
REMARK    2  A    between atoms: C_3  and  O_6 
REMARK    3  A    between atoms: C_3  and  C_4 
REMARK    4  A    between atoms: C_7  and  O_6 
REMARK    5  A    between atoms: C_9  and  C_10 
REMARK    6  A    between atoms: N_15  and  C_14 
REMARK    7  A    between atoms: N_20  and  C_19 
REMARK       I    between atoms: C_22  and  N_20 
ROOT
ATOM      1  C   LIG d   1      -4.185  91.389 117.866  0.00  0.00     0.161 C 
ATOM      2  C   LIG d   1      -4.682  90.717 116.737  0.00  0.00     0.016 C 
ATOM      3  C   LIG d   1      -5.851  91.114 116.047  0.00  0.00     0.038 C 
ATOM      4  C   LIG d   1      -6.523  92.308 116.352  0.00  0.00     0.028 C 
ATOM      5  C   LIG d   1      -6.349  92.747 117.802  0.00  0.00    -0.047 C 
ATOM      6  C   LIG d   1      -4.842  92.757 118.146  0.00  0.00     0.091 C 
ENDROOT
BRANCH   1   7
ATOM      7  O   LIG d   1      -2.755  91.532 117.759  0.00  0.00    -0.368 OA
BRANCH   7   8
ATOM      8  C   LIG d   1      -1.966  90.770 118.706  0.00  0.00     0.119 C 
BRANCH   8   9
ATOM      9  C   LIG d   1      -0.762  91.642 119.113  0.00  0.00     0.028 C 
ATOM     10  C   LIG d   1      -0.198  92.451 117.933  0.00  0.00     0.006 C 
ENDBRANCH   8   9
BRANCH   8  11
ATOM     11  C   LIG d   1      -1.361  89.524 118.052  0.00  0.00     0.028 C 
ATOM     12  C   LIG d   1      -2.091  88.231 118.446  0.00  0.00     0.006 C 
ENDBRANCH   8  11
ENDBRANCH   7   8
ENDBRANCH   1   7
BRANCH   6  13
ATOM     13  N   LIG d   1      -4.588  93.094 119.571  0.00  0.00    -0.311 N 
ATOM     14  C   LIG d   1      -3.635  93.937 119.966  0.00  0.00     0.210 C 
ATOM     15  C   LIG d   1      -3.530  94.129 121.483  0.00  0.00     0.109 C 
ATOM     16  O   LIG d   1      -2.888  94.568 119.204  0.00  0.00    -0.276 OA
ATOM     17  H   LIG d   1      -5.169  92.651 120.256  0.00  0.00     0.149 HD
ENDBRANCH   6  13
BRANCH   5  18
ATOM     18  N   LIG d   1      -6.983  94.071 117.946  0.00  0.00     0.381 N 
ATOM     19  H   LIG d   1      -6.851  94.411 118.878  0.00  0.00    -0.090 HD
ATOM     20  H   LIG d   1      -7.970  93.978 117.782  0.00  0.00    -0.090 HD
ATOM     21  H   LIG d   1      -6.589  94.711 117.292  0.00  0.00    -0.090 HD
ENDBRANCH   5  18
BRANCH   3  22
ATOM     22  C   LIG d   1      -6.382  90.292 115.065  0.00  0.00     0.382 C 
ATOM     23  O   LIG d   1      -5.816  89.209 114.780  0.00  0.00    -0.241 OA
ATOM     24  O   LIG d   1      -7.396  90.640 114.430  0.00  0.00    -0.241 OA
ENDBRANCH   3  22
TORSDOF 7
ENDMDL
MODEL 2
REMARK VINA RESULT:      -5.2      1.684      4.826
REMARK  7 active torsions:
REMARK  status: ('A' for Active; 'I' for Inactive)
REMARK    1  A    between atoms: C_2  and  C_3 
REMARK    2  A    between atoms: C_3  and  O_6 
REMARK    3  A    between atoms: C_3  and  C_4 
REMARK    4  A    between atoms: C_7  and  O_6 
REMARK    5  A    between atoms: C_9  and  C_10 
REMARK    6  A    between atoms: N_15  and  C_14 
REMARK    7  A    between atoms: N_20  and  C_19 
REMARK       I    between atoms: C_22  and  N_20 
ROOT
ATOM      1  C   LIG d   1      -3.401  91.058 117.833  0.00  0.00     0.161 C 
ATOM      2  C   LIG d   1      -2.755  91.621 118.946  0.00  0.00     0.016 C 
ATOM      3  C   LIG d   1      -3.340  92.612 119.768  0.00  0.00     0.038 C 
ATOM      4  C   LIG d   1      -4.680  93.001 119.619  0.00  0.00     0.028 C 
ATOM      5  C   LIG d   1      -5.206  92.829 118.198  0.00  0.00    -0.047 C 
ATOM      6  C   LIG d   1      -4.903  91.390 117.721  0.00  0.00     0.091 C 
ENDROOT
BRANCH   1   7
ATOM      7  O   LIG d   1      -3.200  89.631 117.821  0.00  0.00    -0.368 OA
BRANCH   7   8
ATOM      8  C   LIG d   1      -2.070  89.140 118.582  0.00  0.00     0.119 C 
BRANCH   8   9
ATOM      9  C   LIG d   1      -1.012  88.649 117.576  0.00  0.00     0.028 C 
ATOM     10  C   LIG d   1      -0.024  89.757 117.175  0.00  0.00     0.006 C 
ENDBRANCH   8   9
BRANCH   8  11
ATOM     11  C   LIG d   1      -2.448  87.906 119.408  0.00  0.00     0.028 C 
ATOM     12  C   LIG d   1      -1.289  86.907 119.551  0.00  0.00     0.006 C 
ENDBRANCH   8  11
ENDBRANCH   7   8
ENDBRANCH   1   7
BRANCH   6  13
ATOM     13  N   LIG d   1      -5.311  91.163 116.310  0.00  0.00    -0.311 N 
ATOM     14  C   LIG d   1      -6.511  90.707 115.958  0.00  0.00     0.210 C 
ATOM     15  C   LIG d   1      -6.718  90.525 114.451  0.00  0.00     0.109 C 
ATOM     16  O   LIG d   1      -7.436  90.465 116.749  0.00  0.00    -0.276 OA
ATOM     17  H   LIG d   1      -4.632  91.363 115.602  0.00  0.00     0.149 HD
ENDBRANCH   6  13
BRANCH   5  18
ATOM     18  N   LIG d   1      -6.648  93.140 118.217  0.00  0.00     0.381 N 
ATOM     19  H   LIG d   1      -6.946  93.309 119.157  0.00  0.00    -0.090 HD
ATOM     20  H   LIG d   1      -7.156  92.349 117.862  0.00  0.00    -0.090 HD
ATOM     21  H   LIG d   1      -6.831  93.942 117.654  0.00  0.00    -0.090 HD
ENDBRANCH   5  18
BRANCH   3  22
ATOM     22  C   LIG d   1      -2.570  93.253 120.726  0.00  0.00     0.382 C 
ATOM     23  O   LIG d   1      -3.115  93.734 121.749  0.00  0.00    -0.241 OA
ATOM     24  O   LIG d   1      -1.344  93.395 120.560  0.00  0.00    -0.241 OA
ENDBRANCH   3  22
TORSDOF 7
ENDMDL
MODEL 3
REMARK VINA RESULT:      -5.0      2.317      4.451
REMARK  7 active torsions:
REMARK  status: ('A' for Active; 'I' for Inactive)
REMARK    1  A    between atoms: C_2  and  C_3 
REMARK    2  A    between atoms: C_3  and  O_6 
REMARK    3  A    between atoms: C_3  and  C_4 
REMARK    4  A    between atoms: C_7  and  O_6 
REMARK    5  A    between atoms: C_9  and  C_10 
REMARK    6  A    between atoms: N_15  and  C_14 
REMARK    7  A    between atoms: N_20  and  C_19 
REMARK       I    between atoms: C_22  and  N_20 
ROOT
ATOM      1  C   LIG d   1      -4.287  92.974 119.055  0.00  0.00     0.161 C 
ATOM      2  C   LIG d   1      -5.371  92.703 118.204  0.00  0.00     0.016 C 
ATOM      3  C   LIG d   1      -5.343  91.705 117.203  0.00  0.00     0.038 C 
ATOM      4  C   LIG d   1      -4.275  90.803 117.085  0.00  0.00     0.028 C 
ATOM      5  C   LIG d   1      -2.950  91.363 117.591  0.00  0.00    -0.047 C 
ATOM      6  C   LIG d   1      -3.155  91.927 119.016  0.00  0.00     0.091 C 
ENDROOT
BRANCH   1   7
ATOM      7  O   LIG d   1      -4.759  93.151 120.406  0.00  0.00    -0.368 OA
BRANCH   7   8
ATOM      8  C   LIG d   1      -4.696  94.499 120.932  0.00  0.00     0.119 C 
BRANCH   8   9
ATOM      9  C   LIG d   1      -6.134  95.054 120.958  0.00  0.00     0.028 C 
ATOM     10  C   LIG d   1      -6.424  95.987 119.770  0.00  0.00     0.006 C 
ENDBRANCH   8   9
BRANCH   8  11
ATOM     11  C   LIG d   1      -3.920  95.428 119.994  0.00  0.00     0.028 C 
ATOM     12  C   LIG d   1      -2.637  95.983 120.633  0.00  0.00     0.006 C 
ENDBRANCH   8  11
ENDBRANCH   7   8
ENDBRANCH   1   7
BRANCH   6  13
ATOM     13  N   LIG d   1      -1.928  92.570 119.553  0.00  0.00    -0.311 N 
ATOM     14  C   LIG d   1      -1.043  91.936 120.320  0.00  0.00     0.210 C 
ATOM     15  C   LIG d   1       0.141  92.790 120.783  0.00  0.00     0.109 C 
ATOM     16  O   LIG d   1      -1.110  90.738 120.635  0.00  0.00    -0.276 OA
ATOM     17  H   LIG d   1      -1.778  93.533 119.320  0.00  0.00     0.149 HD
ENDBRANCH   6  13
BRANCH   5  18
ATOM     18  N   LIG d   1      -1.956  90.275 117.537  0.00  0.00     0.381 N 
ATOM     19  H   LIG d   1      -2.396  89.429 117.234  0.00  0.00    -0.090 HD
ATOM     20  H   LIG d   1      -1.587  90.125 118.460  0.00  0.00    -0.090 HD
ATOM     21  H   LIG d   1      -1.219  90.516 116.912  0.00  0.00    -0.090 HD
ENDBRANCH   5  18
BRANCH   3  22
ATOM     22  C   LIG d   1      -6.375  91.628 116.280  0.00  0.00     0.382 C 
ATOM     23  O   LIG d   1      -7.319  90.822 116.461  0.00  0.00    -0.241 OA
ATOM     24  O   LIG d   1      -6.351  92.323 115.246  0.00  0.00    -0.241 OA
ENDBRANCH   3  22
TORSDOF 7
ENDMDL
MODEL 4
REMARK VINA RESULT:      -4.9      2.325      4.320
REMARK  7 active torsions:
REMARK  status: ('A' for Active; 'I' for Inactive)
REMARK    1  A    between atoms: C_2  and  C_3 
REMARK    2  A    between atoms: C_3  and  O_6 
REMARK    3  A    between atoms: C_3  and  C_4 
REMARK    4  A    between atoms: C_7  and  O_6 
REMARK    5  A    between atoms: C_9  and  C_10 
REMARK    6  A    between atoms: N_15  and  C_14 
REMARK    7  A    between atoms: N_20  and  C_19 
REMARK       I    between atoms: C_22  and  N_20 
ROOT
ATOM      1  C   LIG d   1      -3.966  93.051 120.034  0.00  0.00     0.161 C 
ATOM      2  C   LIG d   1      -3.106  92.082 119.492  0.00  0.00     0.016 C 
ATOM      3  C   LIG d   1      -3.376  91.386 118.291  0.00  0.00     0.038 C 
ATOM      4  C   LIG d   1      -4.459  91.724 117.466  0.00  0.00     0.028 C 
ATOM      5  C   LIG d   1      -5.626  92.347 118.223  0.00  0.00    -0.047 C 
ATOM      6  C   LIG d   1      -5.097  93.512 119.091  0.00  0.00     0.091 C 
ENDROOT
BRANCH   1   7
ATOM      7  O   LIG d   1      -3.201  94.184 120.489  0.00  0.00    -0.368 OA
BRANCH   7   8
ATOM      8  C   LIG d   1      -2.729  95.090 119.461  0.00  0.00     0.119 C 
BRANCH   8   9
ATOM      9  C   LIG d   1      -1.194  95.155 119.570  0.00  0.00     0.028 C 
ATOM     10  C   LIG d   1      -0.491  94.489 118.375  0.00  0.00     0.006 C 
ENDBRANCH   8   9
BRANCH   8  11
ATOM     11  C   LIG d   1      -3.215  96.520 119.712  0.00  0.00     0.028 C 
ATOM     12  C   LIG d   1      -3.864  96.694 121.095  0.00  0.00     0.006 C 
ENDBRANCH   8  11
ENDBRANCH   7   8
ENDBRANCH   1   7
BRANCH   6  13
ATOM     13  N   LIG d   1      -6.161  94.123 119.929  0.00  0.00    -0.311 N 
ATOM     14  C   LIG d   1      -6.936  95.125 119.516  0.00  0.00     0.210 C 
ATOM     15  C   LIG d   1      -7.957  95.620 120.545  0.00  0.00     0.109 C 
ATOM     16  O   LIG d   1      -6.896  95.629 118.383  0.00  0.00    -0.276 OA
ATOM     17  H   LIG d   1      -6.283  93.754 120.852  0.00  0.00     0.149 HD
ENDBRANCH   6  13
BRANCH   5  18
ATOM     18  N   LIG d   1      -6.626  92.776 117.227  0.00  0.00     0.381 N 
ATOM     19  H   LIG d   1      -6.761  92.052 116.549  0.00  0.00    -0.090 HD
ATOM     20  H   LIG d   1      -6.283  93.592 116.753  0.00  0.00    -0.090 HD
ATOM     21  H   LIG d   1      -7.490  92.983 117.678  0.00  0.00    -0.090 HD
ENDBRANCH   5  18
BRANCH   3  22
ATOM     22  C   LIG d   1      -2.578  90.313 117.924  0.00  0.00     0.382 C 
ATOM     23  O   LIG d   1      -3.054  89.152 117.919  0.00  0.00    -0.241 OA
ATOM     24  O   LIG d   1      -1.377  90.485 117.642  0.00  0.00    -0.241 OA
ENDBRANCH   3  22
TORSDOF 7
ENDMDL
MODEL 5
REMARK VINA RESULT:      -4.8      2.363      4.695
REMARK  7 active torsions:
REMARK  status: ('A' for Active; 'I' for Inactive)
REMARK    1  A    between atoms: C_2  and  C_3 
REMARK    2  A    between atoms: C_3  and  O_6 
REMARK    3  A    between atoms: C_3  and  C_4 
REMARK    4  A    between atoms: C_7  and  O_6 
REMARK    5  A    between atoms: C_9  and  C_10 
REMARK    6  A    between atoms: N_15  and  C_14 
REMARK    7  A    between atoms: N_20  and  C_19 
REMARK       I    between atoms: C_22  and  N_20 
ROOT
ATOM      1  C   LIG d   1      -5.512  93.449 118.189  0.00  0.00     0.161 C 
ATOM      2  C   LIG d   1      -6.269  92.638 117.328  0.00  0.00     0.016 C 
ATOM      3  C   LIG d   1      -5.766  91.465 116.721  0.00  0.00     0.038 C 
ATOM      4  C   LIG d   1      -4.510  90.937 117.056  0.00  0.00     0.028 C 
ATOM      5  C   LIG d   1      -3.518  91.992 117.535  0.00  0.00    -0.047 C 
ATOM      6  C   LIG d   1      -4.178  92.830 118.654  0.00  0.00     0.091 C 
ENDROOT
BRANCH   1   7
ATOM      7  O   LIG d   1      -6.310  93.832 119.327  0.00  0.00    -0.368 OA
BRANCH   7   8
ATOM      8  C   LIG d   1      -6.547  95.252 119.491  0.00  0.00     0.119 C 
BRANCH   8   9
ATOM      9  C   LIG d   1      -5.900  95.678 120.823  0.00  0.00     0.028 C 
ATOM     10  C   LIG d   1      -5.747  94.503 121.803  0.00  0.00     0.006 C 
ENDBRANCH   8   9
BRANCH   8  11
ATOM     11  C   LIG d   1      -8.040  95.553 119.651  0.00  0.00     0.028 C 
ATOM     12  C   LIG d   1      -8.307  96.830 120.463  0.00  0.00     0.006 C 
ENDBRANCH   8  11
ENDBRANCH   7   8
ENDBRANCH   1   7
BRANCH   6  13
ATOM     13  N   LIG d   1      -3.306  93.939 119.121  0.00  0.00    -0.311 N 
ATOM     14  C   LIG d   1      -2.501  93.844 120.178  0.00  0.00     0.210 C 
ATOM     15  C   LIG d   1      -1.702  95.111 120.499  0.00  0.00     0.109 C 
ATOM     16  O   LIG d   1      -2.348  92.819 120.860  0.00  0.00    -0.276 OA
ATOM     17  H   LIG d   1      -3.343  94.797 118.606  0.00  0.00     0.149 HD
ENDBRANCH   6  13
BRANCH   5  18
ATOM     18  N   LIG d   1      -2.300  91.289 117.981  0.00  0.00     0.381 N 
ATOM     19  H   LIG d   1      -1.504  91.884 117.866  0.00  0.00    -0.090 HD
ATOM     20  H   LIG d   1      -2.169  90.473 117.410  0.00  0.00    -0.090 HD
ATOM     21  H   LIG d   1      -2.391  91.023 118.937  0.00  0.00    -0.090 HD
ENDBRANCH   5  18
BRANCH   3  22
ATOM     22  C   LIG d   1      -6.506  90.828 115.737  0.00  0.00     0.382 C 
ATOM     23  O   LIG d   1      -6.579  91.325 114.587  0.00  0.00    -0.241 OA
ATOM     24  O   LIG d   1      -7.138  89.786 115.996  0.00  0.00    -0.241 OA
ENDBRANCH   3  22
TORSDOF 7
ENDMDL
MODEL 6
REMARK VINA RESULT:      -4.5      1.536      4.994
REMARK  7 active torsions:
REMARK  status: ('A' for Active; 'I' for Inactive)
REMARK    1  A    between atoms: C_2  and  C_3 
REMARK    2  A    between atoms: C_3  and  O_6 
REMARK    3  A    between atoms: C_3  and  C_4 
REMARK    4  A    between atoms: C_7  and  O_6 
REMARK    5  A    between atoms: C_9  and  C_10 
REMARK    6  A    between atoms: N_15  and  C_14 
REMARK    7  A    between atoms: N_20  and  C_19 
REMARK       I    between atoms: C_22  and  N_20 
ROOT
ATOM      1  C   LIG d   1      -3.619  92.160 118.453  0.00  0.00     0.161 C 
ATOM      2  C   LIG d   1      -3.221  92.999 119.508  0.00  0.00     0.016 C 
ATOM      3  C   LIG d   1      -4.055  93.993 120.069  0.00  0.00     0.038 C 
ATOM      4  C   LIG d   1      -5.406  94.115 119.713  0.00  0.00     0.028 C 
ATOM      5  C   LIG d   1      -5.706  93.627 118.300  0.00  0.00    -0.047 C 
ATOM      6  C   LIG d   1      -5.127  92.204 118.127  0.00  0.00     0.091 C 
ENDROOT
BRANCH   1   7
ATOM      7  O   LIG d   1      -3.204  90.806 118.722  0.00  0.00    -0.368 OA
BRANCH   7   8
ATOM      8  C   LIG d   1      -2.113  90.302 117.913  0.00  0.00     0.119 C 
BRANCH   8   9
ATOM      9  C   LIG d   1      -2.247  88.767 117.861  0.00  0.00     0.028 C 
ATOM     10  C   LIG d   1      -2.094  88.118 119.247  0.00  0.00     0.006 C 
ENDBRANCH   8   9
BRANCH   8  11
ATOM     11  C   LIG d   1      -0.759  90.569 118.575  0.00  0.00     0.028 C 
ATOM     12  C   LIG d   1       0.001  91.738 117.927  0.00  0.00     0.006 C 
ENDBRANCH   8  11
ENDBRANCH   7   8
ENDBRANCH   1   7
BRANCH   6  13
ATOM     13  N   LIG d   1      -5.303  91.684 116.746  0.00  0.00    -0.311 N 
ATOM     14  C   LIG d   1      -6.360  90.972 116.360  0.00  0.00     0.210 C 
ATOM     15  C   LIG d   1      -6.334  90.517 114.897  0.00  0.00     0.109 C 
ATOM     16  O   LIG d   1      -7.332  90.701 117.081  0.00  0.00    -0.276 OA
ATOM     17  H   LIG d   1      -4.576  91.885 116.087  0.00  0.00     0.149 HD
ENDBRANCH   6  13
BRANCH   5  18
ATOM     18  N   LIG d   1      -7.168  93.683 118.110  0.00  0.00     0.381 N 
ATOM     19  H   LIG d   1      -7.592  92.865 118.502  0.00  0.00    -0.090 HD
ATOM     20  H   LIG d   1      -7.368  93.700 117.125  0.00  0.00    -0.090 HD
ATOM     21  H   LIG d   1      -7.538  94.499 118.546  0.00  0.00    -0.090 HD
ENDBRANCH   5  18
BRANCH   3  22
ATOM     22  C   LIG d   1      -3.526  94.904 120.970  0.00  0.00     0.382 C 
ATOM     23  O   LIG d   1      -2.363  94.746 121.413  0.00  0.00    -0.241 OA
ATOM     24  O   LIG d   1      -4.214  95.858 121.381  0.00  0.00    -0.241 OA
ENDBRANCH   3  22
TORSDOF 7
ENDMDL
MODEL 7
REMARK VINA RESULT:      -4.4      2.242      4.828
REMARK  7 active torsions:
REMARK  status: ('A' for Active; 'I' for Inactive)
REMARK    1  A    between atoms: C_2  and  C_3 
REMARK    2  A    between atoms: C_3  and  O_6 
REMARK    3  A    between atoms: C_3  and  C_4 
REMARK    4  A    between atoms: C_7  and  O_6 
REMARK    5  A    between atoms: C_9  and  C_10 
REMARK    6  A    between atoms: N_15  and  C_14 
REMARK    7  A    between atoms: N_20  and  C_19 
REMARK       I    between atoms: C_22  and  N_20 
ROOT
ATOM      1  C   LIG d   1      -3.445  92.150 117.977  0.00  0.00     0.161 C 
ATOM      2  C   LIG d   1      -3.075  90.803 117.822  0.00  0.00     0.016 C 
ATOM      3  C   LIG d   1      -1.885  90.257 118.356  0.00  0.00     0.038 C 
ATOM      4  C   LIG d   1      -1.053  90.990 119.215  0.00  0.00     0.028 C 
ATOM      5  C   LIG d   1      -1.124  92.496 118.988  0.00  0.00    -0.047 C 
ATOM      6  C   LIG d   1      -2.606  92.937 119.005  0.00  0.00     0.091 C 
ENDROOT
BRANCH   1   7
ATOM      7  O   LIG d   1      -4.847  92.237 118.303  0.00  0.00    -0.368 OA
BRANCH   7   8
ATOM      8  C   LIG d   1      -5.742  92.510 117.197  0.00  0.00     0.119 C 
BRANCH   8   9
ATOM      9  C   LIG d   1      -6.811  93.499 117.701  0.00  0.00     0.028 C 
ATOM     10  C   LIG d   1      -6.339  94.301 118.925  0.00  0.00     0.006 C 
ENDBRANCH   8   9
BRANCH   8  11
ATOM     11  C   LIG d   1      -6.514  91.255 116.782  0.00  0.00     0.028 C 
ATOM     12  C   LIG d   1      -5.982  90.630 115.482  0.00  0.00     0.006 C 
ENDBRANCH   8  11
ENDBRANCH   7   8
ENDBRANCH   1   7
BRANCH   6  13
ATOM     13  N   LIG d   1      -2.770  94.384 118.706  0.00  0.00    -0.311 N 
ATOM     14  C   LIG d   1      -2.825  95.325 119.647  0.00  0.00     0.210 C 
ATOM     15  C   LIG d   1      -3.018  96.752 119.124  0.00  0.00     0.109 C 
ATOM     16  O   LIG d   1      -2.701  95.117 120.863  0.00  0.00    -0.276 OA
ATOM     17  H   LIG d   1      -2.848  94.645 117.743  0.00  0.00     0.149 HD
ENDBRANCH   6  13
BRANCH   5  18
ATOM     18  N   LIG d   1      -0.316  93.144 120.039  0.00  0.00     0.381 N 
ATOM     19  H   LIG d   1       0.267  92.465 120.485  0.00  0.00    -0.090 HD
ATOM     20  H   LIG d   1      -0.933  93.533 120.730  0.00  0.00    -0.090 HD
ATOM     21  H   LIG d   1       0.245  93.865 119.641  0.00  0.00    -0.090 HD
ENDBRANCH   5  18
BRANCH   3  22
ATOM     22  C   LIG d   1      -1.497  88.975 117.999  0.00  0.00     0.382 C 
ATOM     23  O   LIG d   1      -2.068  87.981 118.510  0.00  0.00    -0.241 OA
ATOM     24  O   LIG d   1      -0.553  88.799 117.205  0.00  0.00    -0.241 OA
ENDBRANCH   3  22
TORSDOF 7
ENDMDL
MODEL 8
REMARK VINA RESULT:      -4.4      2.453      4.488
REMARK  7 active torsions:
REMARK  status: ('A' for Active; 'I' for Inactive)
REMARK    1  A    between atoms: C_2  and  C_3 
REMARK    2  A    between atoms: C_3  and  O_6 
REMARK    3  A    between atoms: C_3  and  C_4 
REMARK    4  A    between atoms: C_7  and  O_6 
REMARK    5  A    between atoms: C_9  and  C_10 
REMARK    6  A    between atoms: N_15  and  C_14 
REMARK    7  A    between atoms: N_20  and  C_19 
REMARK       I    between atoms: C_22  and  N_20 
ROOT
ATOM      1  C   LIG d   1      -3.009  92.841 118.675  0.00  0.00     0.161 C 
ATOM      2  C   LIG d   1      -4.131  92.559 117.879  0.00  0.00     0.016 C 
ATOM      3  C   LIG d   1      -4.357  91.304 117.268  0.00  0.00     0.038 C 
ATOM      4  C   LIG d   1      -3.545  90.192 117.537  0.00  0.00     0.028 C 
ATOM      5  C   LIG d   1      -2.120  90.564 117.932  0.00  0.00    -0.047 C 
ATOM      6  C   LIG d   1      -2.170  91.608 119.071  0.00  0.00     0.091 C 
ENDROOT
BRANCH   1   7
ATOM      7  O   LIG d   1      -3.415  93.569 119.851  0.00  0.00    -0.368 OA
BRANCH   7   8
ATOM      8  C   LIG d   1      -3.316  95.013 119.773  0.00  0.00     0.119 C 
BRANCH   8   9
ATOM      9  C   LIG d   1      -1.973  95.420 120.408  0.00  0.00     0.028 C 
ATOM     10  C   LIG d   1      -0.919  95.806 119.356  0.00  0.00     0.006 C 
ENDBRANCH   8   9
BRANCH   8  11
ATOM     11  C   LIG d   1      -4.391  95.692 120.626  0.00  0.00     0.028 C 
ATOM     12  C   LIG d   1      -5.221  96.716 119.836  0.00  0.00     0.006 C 
ENDBRANCH   8  11
ENDBRANCH   7   8
ENDBRANCH   1   7
BRANCH   6  13
ATOM     13  N   LIG d   1      -0.819  92.089 119.460  0.00  0.00    -0.311 N 
ATOM     14  C   LIG d   1      -0.366  92.068 120.712  0.00  0.00     0.210 C 
ATOM     15  C   LIG d   1       1.048  92.629 120.898  0.00  0.00     0.109 C 
ATOM     16  O   LIG d   1      -0.988  91.608 121.682  0.00  0.00    -0.276 OA
ATOM     17  H   LIG d   1      -0.236  92.449 118.730  0.00  0.00     0.149 HD
ENDBRANCH   6  13
BRANCH   5  18
ATOM     18  N   LIG d   1      -1.425  89.321 118.317  0.00  0.00     0.381 N 
ATOM     19  H   LIG d   1      -1.903  88.532 117.931  0.00  0.00    -0.090 HD
ATOM     20  H   LIG d   1      -1.439  89.238 119.319  0.00  0.00    -0.090 HD
ATOM     21  H   LIG d   1      -0.484  89.341 117.991  0.00  0.00    -0.090 HD
ENDBRANCH   5  18
BRANCH   3  22
ATOM     22  C   LIG d   1      -5.381  91.163 116.345  0.00  0.00     0.382 C 
ATOM     23  O   LIG d   1      -5.909  92.181 115.833  0.00  0.00    -0.241 OA
ATOM     24  O   LIG d   1      -5.815  90.034 116.050  0.00  0.00    -0.241 OA
ENDBRANCH   3  22
TORSDOF 7
ENDMDL
MODEL 9
REMARK VINA RESULT:      -4.3      2.377      4.445
REMARK  7 active torsions:
REMARK  status: ('A' for Active; 'I' for Inactive)
REMARK    1  A    between atoms: C_2  and  C_3 
REMARK    2  A    between atoms: C_3  and  O_6 
REMARK    3  A    between atoms: C_3  and  C_4 
REMARK    4  A    between atoms: C_7  and  O_6 
REMARK    5  A    between atoms: C_9  and  C_10 
REMARK    6  A    between atoms: N_15  and  C_14 
REMARK    7  A    between atoms: N_20  and  C_19 
REMARK       I    between atoms: C_22  and  N_20 
ROOT
ATOM      1  C   LIG d   1      -3.178  92.755 119.359  0.00  0.00     0.161 C 
ATOM      2  C   LIG d   1      -4.375  92.849 118.628  0.00  0.00     0.016 C 
ATOM      3  C   LIG d   1      -4.746  91.929 117.621  0.00  0.00     0.038 C 
ATOM      4  C   LIG d   1      -4.011  90.759 117.379  0.00  0.00     0.028 C 
ATOM      5  C   LIG d   1      -2.536  90.884 117.741  0.00  0.00    -0.047 C 
ATOM      6  C   LIG d   1      -2.418  91.423 119.185  0.00  0.00     0.091 C 
ENDROOT
BRANCH   1   7
ATOM      7  O   LIG d   1      -3.437  93.006 120.754  0.00  0.00    -0.368 OA
BRANCH   7   8
ATOM      8  C   LIG d   1      -3.006  94.293 121.260  0.00  0.00     0.119 C 
BRANCH   8   9
ATOM      9  C   LIG d   1      -4.258  95.183 121.389  0.00  0.00     0.028 C 
ATOM     10  C   LIG d   1      -4.253  96.351 120.389  0.00  0.00     0.006 C 
ENDBRANCH   8   9
BRANCH   8  11
ATOM     11  C   LIG d   1      -2.099  95.012 120.256  0.00  0.00     0.028 C 
ATOM     12  C   LIG d   1      -0.681  95.249 120.798  0.00  0.00     0.006 C 
ENDBRANCH   8  11
ENDBRANCH   7   8
ENDBRANCH   1   7
BRANCH   6  13
ATOM     13  N   LIG d   1      -1.007  91.655 119.590  0.00  0.00    -0.311 N 
ATOM     14  C   LIG d   1      -0.095  92.204 118.790  0.00  0.00     0.210 C 
ATOM     15  C   LIG d   1       1.305  92.335 119.398  0.00  0.00     0.109 C 
ATOM     16  O   LIG d   1      -0.320  92.625 117.645  0.00  0.00    -0.276 OA
ATOM     17  H   LIG d   1      -0.745  91.372 120.514  0.00  0.00     0.149 HD
ENDBRANCH   6  13
BRANCH   5  18
ATOM     18  N   LIG d   1      -1.920  89.554 117.569  0.00  0.00     0.381 N 
ATOM     19  H   LIG d   1      -1.793  89.363 116.595  0.00  0.00    -0.090 HD
ATOM     20  H   LIG d   1      -2.537  88.859 117.949  0.00  0.00    -0.090 HD
ATOM     21  H   LIG d   1      -1.042  89.522 118.038  0.00  0.00    -0.090 HD
ENDBRANCH   5  18
BRANCH   3  22
ATOM     22  C   LIG d   1      -5.843  92.197 116.816  0.00  0.00     0.382 C 
ATOM     23  O   LIG d   1      -5.853  91.813 115.622  0.00  0.00    -0.241 OA
ATOM     24  O   LIG d   1      -6.804  92.855 117.257  0.00  0.00    -0.241 OA
ENDBRANCH   3  22
TORSDOF 7
ENDMDL
