MODEL 1
REMARK VINA RESULT:      -5.7      0.000      0.000
REMARK  7 active torsions:
REMARK  status: ('A' for Active; 'I' for Inactive)
REMARK    1  A    between atoms: C_2  and  C_3 
REMARK    2  A    between atoms: C_3  and  O_6 
REMARK    3  A    between atoms: C_3  and  C_4 
REMARK    4  A    between atoms: C_7  and  O_6 
REMARK    5  A    between atoms: C_9  and  C_10 
REMARK    6  A    between atoms: N_15  and  C_14 
REMARK    7  A    between atoms: N_20  and  C_19 
REMARK       I    between atoms: C_22  and  N_20 
ROOT
ATOM      1  C   LIG d   1      -6.786  92.491 117.704  0.00  0.00     0.161 C 
ATOM      2  C   LIG d   1      -7.734  93.520 117.834  0.00  0.00     0.016 C 
ATOM      3  C   LIG d   1      -7.602  94.587 118.752  0.00  0.00     0.038 C 
ATOM      4  C   LIG d   1      -6.432  94.781 119.501  0.00  0.00     0.028 C 
ATOM      5  C   LIG d   1      -5.665  93.491 119.770  0.00  0.00    -0.047 C 
ATOM      6  C   LIG d   1      -5.450  92.746 118.433  0.00  0.00     0.091 C 
ENDROOT
BRANCH   1   7
ATOM      7  O   LIG d   1      -6.550  92.218 116.308  0.00  0.00    -0.368 OA
BRANCH   7   8
ATOM      8  C   LIG d   1      -7.364  91.176 115.716  0.00  0.00     0.119 C 
BRANCH   8   9
ATOM      9  C   LIG d   1      -7.842  90.258 116.858  0.00  0.00     0.028 C 
ATOM     10  C   LIG d   1      -8.940  89.281 116.405  0.00  0.00     0.006 C 
ENDBRANCH   8   9
BRANCH   8  11
ATOM     11  C   LIG d   1      -6.535  90.278 114.794  0.00  0.00     0.028 C 
ATOM     12  C   LIG d   1      -5.364  89.596 115.520  0.00  0.00     0.006 C 
ENDBRANCH   8  11
ENDBRANCH   7   8
ENDBRANCH   1   7
BRANCH   6  13
ATOM     13  N   LIG d   1      -4.781  91.432 118.617  0.00  0.00    -0.311 N 
ATOM     14  C   LIG d   1      -3.462  91.263 118.536  0.00  0.00     0.210 C 
ATOM     15  C   LIG d   1      -2.981  89.823 118.739  0.00  0.00     0.109 C 
ATOM     16  O   LIG d   1      -2.643  92.175 118.348  0.00  0.00    -0.276 OA
ATOM     17  H   LIG d   1      -5.368  90.643 118.805  0.00  0.00     0.149 HD
ENDBRANCH   6  13
BRANCH   5  18
ATOM     18  N   LIG d   1      -4.401  93.856 120.438  0.00  0.00     0.381 N 
ATOM     19  H   LIG d   1      -3.649  93.317 120.057  0.00  0.00    -0.090 HD
ATOM     20  H   LIG d   1      -4.477  93.642 121.417  0.00  0.00    -0.090 HD
ATOM     21  H   LIG d   1      -4.218  94.827 120.316  0.00  0.00    -0.090 HD
ENDBRANCH   5  18
BRANCH   3  22
ATOM     22  C   LIG d   1      -8.666  95.453 118.957  0.00  0.00     0.382 C 
ATOM     23  O   LIG d   1      -9.842  95.016 118.938  0.00  0.00    -0.241 OA
ATOM     24  O   LIG d   1      -8.467  96.672 119.116  0.00  0.00    -0.241 OA
ENDBRANCH   3  22
TORSDOF 7
ENDMDL
MODEL 2
REMARK VINA RESULT:      -5.6      2.555      4.941
REMARK  7 active torsions:
REMARK  status: ('A' for Active; 'I' for Inactive)
REMARK    1  A    between atoms: C_2  and  C_3 
REMARK    2  A    between atoms: C_3  and  O_6 
REMARK    3  A    between atoms: C_3  and  C_4 
REMARK    4  A    between atoms: C_7  and  O_6 
REMARK    5  A    between atoms: C_9  and  C_10 
REMARK    6  A    between atoms: N_15  and  C_14 
REMARK    7  A    between atoms: N_20  and  C_19 
REMARK       I    between atoms: C_22  and  N_20 
ROOT
ATOM      1  C   LIG d   1      -4.800  91.396 117.822  0.00  0.00     0.161 C 
ATOM      2  C   LIG d   1      -3.784  92.250 118.282  0.00  0.00     0.016 C 
ATOM      3  C   LIG d   1      -4.036  93.481 118.930  0.00  0.00     0.038 C 
ATOM      4  C   LIG d   1      -5.331  93.873 119.299  0.00  0.00     0.028 C 
ATOM      5  C   LIG d   1      -6.419  93.284 118.407  0.00  0.00    -0.047 C 
ATOM      6  C   LIG d   1      -6.218  91.755 118.314  0.00  0.00     0.091 C 
ENDROOT
BRANCH   1   7
ATOM      7  O   LIG d   1      -4.483  90.031 118.160  0.00  0.00    -0.368 OA
BRANCH   7   8
ATOM      8  C   LIG d   1      -3.167  89.804 118.721  0.00  0.00     0.119 C 
BRANCH   8   9
ATOM      9  C   LIG d   1      -2.463  88.754 117.839  0.00  0.00     0.028 C 
ATOM     10  C   LIG d   1      -1.667  87.731 118.667  0.00  0.00     0.006 C 
ENDBRANCH   8   9
BRANCH   8  11
ATOM     11  C   LIG d   1      -3.256  89.170 120.112  0.00  0.00     0.028 C 
ATOM     12  C   LIG d   1      -3.110  90.198 121.245  0.00  0.00     0.006 C 
ENDBRANCH   8  11
ENDBRANCH   7   8
ENDBRANCH   1   7
BRANCH   6  13
ATOM     13  N   LIG d   1      -7.190  91.110 117.393  0.00  0.00    -0.311 N 
ATOM     14  C   LIG d   1      -7.219  91.339 116.081  0.00  0.00     0.210 C 
ATOM     15  C   LIG d   1      -8.314  90.587 115.318  0.00  0.00     0.109 C 
ATOM     16  O   LIG d   1      -6.422  92.067 115.472  0.00  0.00    -0.276 OA
ATOM     17  H   LIG d   1      -7.854  90.480 117.798  0.00  0.00     0.149 HD
ENDBRANCH   6  13
BRANCH   5  18
ATOM     18  N   LIG d   1      -7.723  93.662 118.986  0.00  0.00     0.381 N 
ATOM     19  H   LIG d   1      -8.219  94.252 118.348  0.00  0.00    -0.090 HD
ATOM     20  H   LIG d   1      -7.565  94.178 119.834  0.00  0.00    -0.090 HD
ATOM     21  H   LIG d   1      -8.259  92.845 119.180  0.00  0.00    -0.090 HD
ENDBRANCH   5  18
BRANCH   3  22
ATOM     22  C   LIG d   1      -2.987  94.353 119.180  0.00  0.00     0.382 C 
ATOM     23  O   LIG d   1      -2.028  94.427 118.375  0.00  0.00    -0.241 OA
ATOM     24  O   LIG d   1      -2.967  95.034 120.223  0.00  0.00    -0.241 OA
ENDBRANCH   3  22
TORSDOF 7
ENDMDL
MODEL 3
REMARK VINA RESULT:      -5.6      2.470      5.177
REMARK  7 active torsions:
REMARK  status: ('A' for Active; 'I' for Inactive)
REMARK    1  A    between atoms: C_2  and  C_3 
REMARK    2  A    between atoms: C_3  and  O_6 
REMARK    3  A    between atoms: C_3  and  C_4 
REMARK    4  A    between atoms: C_7  and  O_6 
REMARK    5  A    between atoms: C_9  and  C_10 
REMARK    6  A    between atoms: N_15  and  C_14 
REMARK    7  A    between atoms: N_20  and  C_19 
REMARK       I    between atoms: C_22  and  N_20 
ROOT
ATOM      1  C   LIG d   1      -4.658  91.330 118.115  0.00  0.00     0.161 C 
ATOM      2  C   LIG d   1      -4.974  90.650 116.927  0.00  0.00     0.016 C 
ATOM      3  C   LIG d   1      -6.110  90.945 116.140  0.00  0.00     0.038 C 
ATOM      4  C   LIG d   1      -6.932  92.049 116.410  0.00  0.00     0.028 C 
ATOM      5  C   LIG d   1      -6.941  92.454 117.880  0.00  0.00    -0.047 C 
ATOM      6  C   LIG d   1      -5.481  92.611 118.366  0.00  0.00     0.091 C 
ENDROOT
BRANCH   1   7
ATOM      7  O   LIG d   1      -3.248  91.627 118.148  0.00  0.00    -0.368 OA
BRANCH   7   8
ATOM      8  C   LIG d   1      -2.449  90.829 119.057  0.00  0.00     0.119 C 
BRANCH   8   9
ATOM      9  C   LIG d   1      -1.624  89.845 118.206  0.00  0.00     0.028 C 
ATOM     10  C   LIG d   1      -2.237  88.435 118.179  0.00  0.00     0.006 C 
ENDBRANCH   8   9
BRANCH   8  11
ATOM     11  C   LIG d   1      -3.332  89.952 119.950  0.00  0.00     0.028 C 
ATOM     12  C   LIG d   1      -3.219  90.314 121.439  0.00  0.00     0.006 C 
ENDBRANCH   8  11
ENDBRANCH   7   8
ENDBRANCH   1   7
BRANCH   6  13
ATOM     13  N   LIG d   1      -5.397  92.923 119.816  0.00  0.00    -0.311 N 
ATOM     14  C   LIG d   1      -4.609  93.872 120.317  0.00  0.00     0.210 C 
ATOM     15  C   LIG d   1      -4.658  94.017 121.841  0.00  0.00     0.109 C 
ATOM     16  O   LIG d   1      -3.897  94.630 119.641  0.00  0.00    -0.276 OA
ATOM     17  H   LIG d   1      -5.965  92.377 120.434  0.00  0.00     0.149 HD
ENDBRANCH   6  13
BRANCH   5  18
ATOM     18  N   LIG d   1      -7.725  93.697 117.996  0.00  0.00     0.381 N 
ATOM     19  H   LIG d   1      -7.385  94.375 117.344  0.00  0.00    -0.090 HD
ATOM     20  H   LIG d   1      -7.613  94.068 118.923  0.00  0.00    -0.090 HD
ATOM     21  H   LIG d   1      -8.688  93.511 117.820  0.00  0.00    -0.090 HD
ENDBRANCH   5  18
BRANCH   3  22
ATOM     22  C   LIG d   1      -6.457  90.106 115.092  0.00  0.00     0.382 C 
ATOM     23  O   LIG d   1      -7.500  90.328 114.430  0.00  0.00    -0.241 OA
ATOM     24  O   LIG d   1      -5.765  89.105 114.829  0.00  0.00    -0.241 OA
ENDBRANCH   3  22
TORSDOF 7
ENDMDL
MODEL 4
REMARK VINA RESULT:      -5.3      2.126      5.304
REMARK  7 active torsions:
REMARK  status: ('A' for Active; 'I' for Inactive)
REMARK    1  A    between atoms: C_2  and  C_3 
REMARK    2  A    between atoms: C_3  and  O_6 
REMARK    3  A    between atoms: C_3  and  C_4 
REMARK    4  A    between atoms: C_7  and  O_6 
REMARK    5  A    between atoms: C_9  and  C_10 
REMARK    6  A    between atoms: N_15  and  C_14 
REMARK    7  A    between atoms: N_20  and  C_19 
REMARK       I    between atoms: C_22  and  N_20 
ROOT
ATOM      1  C   LIG d   1      -6.289  93.569 118.445  0.00  0.00     0.161 C 
ATOM      2  C   LIG d   1      -7.084  92.661 117.726  0.00  0.00     0.016 C 
ATOM      3  C   LIG d   1      -6.593  91.442 117.202  0.00  0.00     0.038 C 
ATOM      4  C   LIG d   1      -5.303  90.976 117.494  0.00  0.00     0.028 C 
ATOM      5  C   LIG d   1      -4.308  92.092 117.791  0.00  0.00    -0.047 C 
ATOM      6  C   LIG d   1      -4.908  93.025 118.868  0.00  0.00     0.091 C 
ENDROOT
BRANCH   1   7
ATOM      7  O   LIG d   1      -7.013  94.047 119.595  0.00  0.00    -0.368 OA
BRANCH   7   8
ATOM      8  C   LIG d   1      -7.818  95.235 119.393  0.00  0.00     0.119 C 
BRANCH   8   9
ATOM      9  C   LIG d   1      -7.196  96.366 120.234  0.00  0.00     0.028 C 
ATOM     10  C   LIG d   1      -6.242  97.250 119.414  0.00  0.00     0.006 C 
ENDBRANCH   8   9
BRANCH   8  11
ATOM     11  C   LIG d   1      -9.234  95.049 119.947  0.00  0.00     0.028 C 
ATOM     12  C   LIG d   1      -9.255  94.842 121.470  0.00  0.00     0.006 C 
ENDBRANCH   8  11
ENDBRANCH   7   8
ENDBRANCH   1   7
BRANCH   6  13
ATOM     13  N   LIG d   1      -4.035  94.192 119.157  0.00  0.00    -0.311 N 
ATOM     14  C   LIG d   1      -3.745  94.603 120.391  0.00  0.00     0.210 C 
ATOM     15  C   LIG d   1      -2.843  95.839 120.465  0.00  0.00     0.109 C 
ATOM     16  O   LIG d   1      -4.124  94.043 121.430  0.00  0.00    -0.276 OA
ATOM     17  H   LIG d   1      -3.659  94.687 118.372  0.00  0.00     0.149 HD
ENDBRANCH   6  13
BRANCH   5  18
ATOM     18  N   LIG d   1      -3.043  91.462 118.213  0.00  0.00     0.381 N 
ATOM     19  H   LIG d   1      -3.098  91.204 119.178  0.00  0.00    -0.090 HD
ATOM     20  H   LIG d   1      -2.297  92.126 118.105  0.00  0.00    -0.090 HD
ATOM     21  H   LIG d   1      -2.862  90.655 117.656  0.00  0.00    -0.090 HD
ENDBRANCH   5  18
BRANCH   3  22
ATOM     22  C   LIG d   1      -7.385  90.695 116.343  0.00  0.00     0.382 C 
ATOM     23  O   LIG d   1      -8.308  91.250 115.700  0.00  0.00    -0.241 OA
ATOM     24  O   LIG d   1      -7.216  89.466 116.236  0.00  0.00    -0.241 OA
ENDBRANCH   3  22
TORSDOF 7
ENDMDL
MODEL 5
REMARK VINA RESULT:      -5.1      2.342      5.663
REMARK  7 active torsions:
REMARK  status: ('A' for Active; 'I' for Inactive)
REMARK    1  A    between atoms: C_2  and  C_3 
REMARK    2  A    between atoms: C_3  and  O_6 
REMARK    3  A    between atoms: C_3  and  C_4 
REMARK    4  A    between atoms: C_7  and  O_6 
REMARK    5  A    between atoms: C_9  and  C_10 
REMARK    6  A    between atoms: N_15  and  C_14 
REMARK    7  A    between atoms: N_20  and  C_19 
REMARK       I    between atoms: C_22  and  N_20 
ROOT
ATOM      1  C   LIG d   1      -4.481  92.300 118.453  0.00  0.00     0.161 C 
ATOM      2  C   LIG d   1      -4.777  91.293 117.518  0.00  0.00     0.016 C 
ATOM      3  C   LIG d   1      -6.032  91.168 116.880  0.00  0.00     0.038 C 
ATOM      4  C   LIG d   1      -7.035  92.139 117.020  0.00  0.00     0.028 C 
ATOM      5  C   LIG d   1      -6.963  92.898 118.341  0.00  0.00    -0.047 C 
ATOM      6  C   LIG d   1      -5.525  93.432 118.535  0.00  0.00     0.091 C 
ENDROOT
BRANCH   1   7
ATOM      7  O   LIG d   1      -3.172  92.843 118.188  0.00  0.00    -0.368 OA
BRANCH   7   8
ATOM      8  C   LIG d   1      -2.066  92.201 118.869  0.00  0.00     0.119 C 
BRANCH   8   9
ATOM      9  C   LIG d   1      -2.211  92.503 120.373  0.00  0.00     0.028 C 
ATOM     10  C   LIG d   1      -1.826  93.951 120.721  0.00  0.00     0.006 C 
ENDBRANCH   8   9
BRANCH   8  11
ATOM     11  C   LIG d   1      -0.726  92.818 118.459  0.00  0.00     0.028 C 
ATOM     12  C   LIG d   1       0.449  91.837 118.598  0.00  0.00     0.006 C 
ENDBRANCH   8  11
ENDBRANCH   7   8
ENDBRANCH   1   7
BRANCH   6  13
ATOM     13  N   LIG d   1      -5.346  94.115 119.843  0.00  0.00    -0.311 N 
ATOM     14  C   LIG d   1      -5.606  95.407 120.037  0.00  0.00     0.210 C 
ATOM     15  C   LIG d   1      -5.334  95.915 121.456  0.00  0.00     0.109 C 
ATOM     16  O   LIG d   1      -6.067  96.173 119.177  0.00  0.00    -0.276 OA
ATOM     17  H   LIG d   1      -5.005  93.561 120.604  0.00  0.00     0.149 HD
ENDBRANCH   6  13
BRANCH   5  18
ATOM     18  N   LIG d   1      -7.977  93.968 118.296  0.00  0.00     0.381 N 
ATOM     19  H   LIG d   1      -8.705  93.773 118.953  0.00  0.00    -0.090 HD
ATOM     20  H   LIG d   1      -8.380  93.995 117.376  0.00  0.00    -0.090 HD
ATOM     21  H   LIG d   1      -7.555  94.846 118.508  0.00  0.00    -0.090 HD
ENDBRANCH   5  18
BRANCH   3  22
ATOM     22  C   LIG d   1      -6.308  90.041 116.121  0.00  0.00     0.382 C 
ATOM     23  O   LIG d   1      -7.420  89.471 116.227  0.00  0.00    -0.241 OA
ATOM     24  O   LIG d   1      -5.443  89.562 115.363  0.00  0.00    -0.241 OA
ENDBRANCH   3  22
TORSDOF 7
ENDMDL
MODEL 6
REMARK VINA RESULT:      -5.0      2.769      5.107
REMARK  7 active torsions:
REMARK  status: ('A' for Active; 'I' for Inactive)
REMARK    1  A    between atoms: C_2  and  C_3 
REMARK    2  A    between atoms: C_3  and  O_6 
REMARK    3  A    between atoms: C_3  and  C_4 
REMARK    4  A    between atoms: C_7  and  O_6 
REMARK    5  A    between atoms: C_9  and  C_10 
REMARK    6  A    between atoms: N_15  and  C_14 
REMARK    7  A    between atoms: N_20  and  C_19 
REMARK       I    between atoms: C_22  and  N_20 
ROOT
ATOM      1  C   LIG d   1      -3.254  90.253 118.336  0.00  0.00     0.161 C 
ATOM      2  C   LIG d   1      -4.465  90.071 117.648  0.00  0.00     0.016 C 
ATOM      3  C   LIG d   1      -5.387  91.116 117.407  0.00  0.00     0.038 C 
ATOM      4  C   LIG d   1      -5.088  92.453 117.708  0.00  0.00     0.028 C 
ATOM      5  C   LIG d   1      -4.097  92.608 118.857  0.00  0.00    -0.047 C 
ATOM      6  C   LIG d   1      -2.860  91.726 118.575  0.00  0.00     0.091 C 
ENDROOT
BRANCH   1   7
ATOM      7  O   LIG d   1      -2.194  89.555 117.653  0.00  0.00    -0.368 OA
BRANCH   7   8
ATOM      8  C   LIG d   1      -1.942  88.196 118.087  0.00  0.00     0.119 C 
BRANCH   8   9
ATOM      9  C   LIG d   1      -2.231  88.132 119.599  0.00  0.00     0.028 C 
ATOM     10  C   LIG d   1      -1.848  86.775 120.212  0.00  0.00     0.006 C 
ENDBRANCH   8   9
BRANCH   8  11
ATOM     11  C   LIG d   1      -0.462  87.830 117.941  0.00  0.00     0.028 C 
ATOM     12  C   LIG d   1       0.478  88.950 118.415  0.00  0.00     0.006 C 
ENDBRANCH   8  11
ENDBRANCH   7   8
ENDBRANCH   1   7
BRANCH   6  13
ATOM     13  N   LIG d   1      -1.878  91.754 119.690  0.00  0.00    -0.311 N 
ATOM     14  C   LIG d   1      -0.796  92.531 119.695  0.00  0.00     0.210 C 
ATOM     15  C   LIG d   1       0.095  92.391 120.933  0.00  0.00     0.109 C 
ATOM     16  O   LIG d   1      -0.508  93.348 118.807  0.00  0.00    -0.276 OA
ATOM     17  H   LIG d   1      -2.051  91.145 120.466  0.00  0.00     0.149 HD
ENDBRANCH   6  13
BRANCH   5  18
ATOM     18  N   LIG d   1      -3.771  94.042 118.973  0.00  0.00     0.381 N 
ATOM     19  H   LIG d   1      -2.925  94.155 119.495  0.00  0.00    -0.090 HD
ATOM     20  H   LIG d   1      -4.512  94.505 119.469  0.00  0.00    -0.090 HD
ATOM     21  H   LIG d   1      -3.666  94.442 118.067  0.00  0.00    -0.090 HD
ENDBRANCH   5  18
BRANCH   3  22
ATOM     22  C   LIG d   1      -6.641  90.820 116.894  0.00  0.00     0.382 C 
ATOM     23  O   LIG d   1      -7.540  91.696 116.893  0.00  0.00    -0.241 OA
ATOM     24  O   LIG d   1      -6.898  89.676 116.474  0.00  0.00    -0.241 OA
ENDBRANCH   3  22
TORSDOF 7
ENDMDL
MODEL 7
REMARK VINA RESULT:      -5.0      2.145      5.533
REMARK  7 active torsions:
REMARK  status: ('A' for Active; 'I' for Inactive)
REMARK    1  A    between atoms: C_2  and  C_3 
REMARK    2  A    between atoms: C_3  and  O_6 
REMARK    3  A    between atoms: C_3  and  C_4 
REMARK    4  A    between atoms: C_7  and  O_6 
REMARK    5  A    between atoms: C_9  and  C_10 
REMARK    6  A    between atoms: N_15  and  C_14 
REMARK    7  A    between atoms: N_20  and  C_19 
REMARK       I    between atoms: C_22  and  N_20 
ROOT
ATOM      1  C   LIG d   1      -5.740  92.482 119.041  0.00  0.00     0.161 C 
ATOM      2  C   LIG d   1      -4.705  92.810 119.933  0.00  0.00     0.016 C 
ATOM      3  C   LIG d   1      -3.424  92.213 119.892  0.00  0.00     0.038 C 
ATOM      4  C   LIG d   1      -3.042  91.349 118.855  0.00  0.00     0.028 C 
ATOM      5  C   LIG d   1      -4.213  90.604 118.224  0.00  0.00    -0.047 C 
ATOM      6  C   LIG d   1      -5.306  91.625 117.834  0.00  0.00     0.091 C 
ENDROOT
BRANCH   1   7
ATOM      7  O   LIG d   1      -6.397  93.684 118.592  0.00  0.00    -0.368 OA
BRANCH   7   8
ATOM      8  C   LIG d   1      -6.880  94.572 119.629  0.00  0.00     0.119 C 
BRANCH   8   9
ATOM      9  C   LIG d   1      -8.403  94.715 119.444  0.00  0.00     0.028 C 
ATOM     10  C   LIG d   1      -8.773  95.840 118.464  0.00  0.00     0.006 C 
ENDBRANCH   8   9
BRANCH   8  11
ATOM     11  C   LIG d   1      -6.317  95.986 119.459  0.00  0.00     0.028 C 
ATOM     12  C   LIG d   1      -5.378  96.396 120.605  0.00  0.00     0.006 C 
ENDBRANCH   8  11
ENDBRANCH   7   8
ENDBRANCH   1   7
BRANCH   6  13
ATOM     13  N   LIG d   1      -6.523  90.970 117.287  0.00  0.00    -0.311 N 
ATOM     14  C   LIG d   1      -6.964  91.164 116.045  0.00  0.00     0.210 C 
ATOM     15  C   LIG d   1      -8.249  90.408 115.690  0.00  0.00     0.109 C 
ATOM     16  O   LIG d   1      -6.395  91.864 115.194  0.00  0.00    -0.276 OA
ATOM     17  H   LIG d   1      -7.029  90.361 117.900  0.00  0.00     0.149 HD
ENDBRANCH   6  13
BRANCH   5  18
ATOM     18  N   LIG d   1      -3.691  89.847 117.070  0.00  0.00     0.381 N 
ATOM     19  H   LIG d   1      -3.125  89.087 117.392  0.00  0.00    -0.090 HD
ATOM     20  H   LIG d   1      -3.115  90.456 116.516  0.00  0.00    -0.090 HD
ATOM     21  H   LIG d   1      -4.445  89.500 116.520  0.00  0.00    -0.090 HD
ENDBRANCH   5  18
BRANCH   3  22
ATOM     22  C   LIG d   1      -2.524  92.446 120.920  0.00  0.00     0.382 C 
ATOM     23  O   LIG d   1      -1.762  91.528 121.307  0.00  0.00    -0.241 OA
ATOM     24  O   LIG d   1      -2.494  93.551 121.495  0.00  0.00    -0.241 OA
ENDBRANCH   3  22
TORSDOF 7
ENDMDL
MODEL 8
REMARK VINA RESULT:      -4.9      1.491      2.475
REMARK  7 active torsions:
REMARK  status: ('A' for Active; 'I' for Inactive)
REMARK    1  A    between atoms: C_2  and  C_3 
REMARK    2  A    between atoms: C_3  and  O_6 
REMARK    3  A    between atoms: C_3  and  C_4 
REMARK    4  A    between atoms: C_7  and  O_6 
REMARK    5  A    between atoms: C_9  and  C_10 
REMARK    6  A    between atoms: N_15  and  C_14 
REMARK    7  A    between atoms: N_20  and  C_19 
REMARK       I    between atoms: C_22  and  N_20 
ROOT
ATOM      1  C   LIG d   1      -6.077  93.355 118.890  0.00  0.00     0.161 C 
ATOM      2  C   LIG d   1      -7.335  93.941 118.667  0.00  0.00     0.016 C 
ATOM      3  C   LIG d   1      -7.645  95.275 119.018  0.00  0.00     0.038 C 
ATOM      4  C   LIG d   1      -6.665  96.166 119.481  0.00  0.00     0.028 C 
ATOM      5  C   LIG d   1      -5.507  95.477 120.194  0.00  0.00    -0.047 C 
ATOM      6  C   LIG d   1      -4.964  94.345 119.292  0.00  0.00     0.091 C 
ENDROOT
BRANCH   1   7
ATOM      7  O   LIG d   1      -5.679  92.597 117.731  0.00  0.00    -0.368 OA
BRANCH   7   8
ATOM      8  C   LIG d   1      -5.934  91.172 117.782  0.00  0.00     0.119 C 
BRANCH   8   9
ATOM      9  C   LIG d   1      -4.715  90.461 117.164  0.00  0.00     0.028 C 
ATOM     10  C   LIG d   1      -3.641  90.120 118.210  0.00  0.00     0.006 C 
ENDBRANCH   8   9
BRANCH   8  11
ATOM     11  C   LIG d   1      -7.122  90.786 116.896  0.00  0.00     0.028 C 
ATOM     12  C   LIG d   1      -7.196  91.616 115.604  0.00  0.00     0.006 C 
ENDBRANCH   8  11
ENDBRANCH   7   8
ENDBRANCH   1   7
BRANCH   6  13
ATOM     13  N   LIG d   1      -3.884  93.565 119.950  0.00  0.00    -0.311 N 
ATOM     14  C   LIG d   1      -2.656  93.447 119.449  0.00  0.00     0.210 C 
ATOM     15  C   LIG d   1      -1.700  92.581 120.276  0.00  0.00     0.109 C 
ATOM     16  O   LIG d   1      -2.257  94.004 118.415  0.00  0.00    -0.276 OA
ATOM     17  H   LIG d   1      -4.112  93.106 120.810  0.00  0.00     0.149 HD
ENDBRANCH   6  13
BRANCH   5  18
ATOM     18  N   LIG d   1      -4.497  96.507 120.501  0.00  0.00     0.381 N 
ATOM     19  H   LIG d   1      -4.233  96.983 119.662  0.00  0.00    -0.090 HD
ATOM     20  H   LIG d   1      -3.680  96.059 120.879  0.00  0.00    -0.090 HD
ATOM     21  H   LIG d   1      -4.862  97.158 121.161  0.00  0.00    -0.090 HD
ENDBRANCH   5  18
BRANCH   3  22
ATOM     22  C   LIG d   1      -8.956  95.718 118.944  0.00  0.00     0.382 C 
ATOM     23  O   LIG d   1      -9.224  96.924 119.161  0.00  0.00    -0.241 OA
ATOM     24  O   LIG d   1      -9.881  94.918 118.707  0.00  0.00    -0.241 OA
ENDBRANCH   3  22
TORSDOF 7
ENDMDL
MODEL 9
REMARK VINA RESULT:      -4.8      2.336      6.378
REMARK  7 active torsions:
REMARK  status: ('A' for Active; 'I' for Inactive)
REMARK    1  A    between atoms: C_2  and  C_3 
REMARK    2  A    between atoms: C_3  and  O_6 
REMARK    3  A    between atoms: C_3  and  C_4 
REMARK    4  A    between atoms: C_7  and  O_6 
REMARK    5  A    between atoms: C_9  and  C_10 
REMARK    6  A    between atoms: N_15  and  C_14 
REMARK    7  A    between atoms: N_20  and  C_19 
REMARK       I    between atoms: C_22  and  N_20 
ROOT
ATOM      1  C   LIG d   1      -5.582  92.885 120.012  0.00  0.00     0.161 C 
ATOM      2  C   LIG d   1      -4.544  91.978 119.741  0.00  0.00     0.016 C 
ATOM      3  C   LIG d   1      -4.428  91.269 118.524  0.00  0.00     0.038 C 
ATOM      4  C   LIG d   1      -5.264  91.534 117.429  0.00  0.00     0.028 C 
ATOM      5  C   LIG d   1      -6.633  92.072 117.829  0.00  0.00    -0.047 C 
ATOM      6  C   LIG d   1      -6.441  93.269 118.789  0.00  0.00     0.091 C 
ENDROOT
BRANCH   1   7
ATOM      7  O   LIG d   1      -5.048  94.067 120.641  0.00  0.00    -0.368 OA
BRANCH   7   8
ATOM      8  C   LIG d   1      -4.462  95.051 119.753  0.00  0.00     0.119 C 
BRANCH   8   9
ATOM      9  C   LIG d   1      -2.935  95.004 119.954  0.00  0.00     0.028 C 
ATOM     10  C   LIG d   1      -2.185  94.617 118.669  0.00  0.00     0.006 C 
ENDBRANCH   8   9
BRANCH   8  11
ATOM     11  C   LIG d   1      -4.880  96.472 120.144  0.00  0.00     0.028 C 
ATOM     12  C   LIG d   1      -5.813  96.504 121.364  0.00  0.00     0.006 C 
ENDBRANCH   8  11
ENDBRANCH   7   8
ENDBRANCH   1   7
BRANCH   6  13
ATOM     13  N   LIG d   1      -7.732  93.803 119.296  0.00  0.00    -0.311 N 
ATOM     14  C   LIG d   1      -8.193  95.016 118.994  0.00  0.00     0.210 C 
ATOM     15  C   LIG d   1      -9.535  95.376 119.638  0.00  0.00     0.109 C 
ATOM     16  O   LIG d   1      -7.632  95.815 118.229  0.00  0.00    -0.276 OA
ATOM     17  H   LIG d   1      -8.267  93.208 119.898  0.00  0.00     0.149 HD
ENDBRANCH   6  13
BRANCH   5  18
ATOM     18  N   LIG d   1      -7.349  92.434 116.591  0.00  0.00     0.381 N 
ATOM     19  H   LIG d   1      -7.287  91.683 115.933  0.00  0.00    -0.090 HD
ATOM     20  H   LIG d   1      -6.913  93.244 116.188  0.00  0.00    -0.090 HD
ATOM     21  H   LIG d   1      -8.305  92.629 116.795  0.00  0.00    -0.090 HD
ENDBRANCH   5  18
BRANCH   3  22
ATOM     22  C   LIG d   1      -3.490  90.254 118.406  0.00  0.00     0.382 C 
ATOM     23  O   LIG d   1      -3.613  89.388 117.507  0.00  0.00    -0.241 OA
ATOM     24  O   LIG d   1      -2.547  90.169 119.216  0.00  0.00    -0.241 OA
ENDBRANCH   3  22
TORSDOF 7
ENDMDL
