MODEL 1
REMARK VINA RESULT:      -5.6      0.000      0.000
REMARK  7 active torsions:
REMARK  status: ('A' for Active; 'I' for Inactive)
REMARK    1  A    between atoms: C_2  and  C_3 
REMARK    2  A    between atoms: C_3  and  O_6 
REMARK    3  A    between atoms: C_3  and  C_4 
REMARK    4  A    between atoms: C_7  and  O_6 
REMARK    5  A    between atoms: C_9  and  C_10 
REMARK    6  A    between atoms: N_15  and  C_14 
REMARK    7  A    between atoms: N_20  and  C_19 
REMARK       I    between atoms: C_22  and  N_20 
ROOT
ATOM      1  C   LIG d   1      -3.698  90.950 117.422  0.00  0.00     0.161 C 
ATOM      2  C   LIG d   1      -4.517  90.517 116.366  0.00  0.00     0.016 C 
ATOM      3  C   LIG d   1      -5.752  91.122 116.040  0.00  0.00     0.038 C 
ATOM      4  C   LIG d   1      -6.184  92.305 116.658  0.00  0.00     0.028 C 
ATOM      5  C   LIG d   1      -5.634  92.487 118.069  0.00  0.00    -0.047 C 
ATOM      6  C   LIG d   1      -4.099  92.308 118.036  0.00  0.00     0.091 C 
ENDROOT
BRANCH   1   7
ATOM      7  O   LIG d   1      -2.322  90.982 116.993  0.00  0.00    -0.368 OA
BRANCH   7   8
ATOM      8  C   LIG d   1      -1.520  89.827 117.340  0.00  0.00     0.119 C 
BRANCH   8   9
ATOM      9  C   LIG d   1      -2.123  89.212 118.618  0.00  0.00     0.028 C 
ATOM     10  C   LIG d   1      -1.295  89.538 119.873  0.00  0.00     0.006 C 
ENDBRANCH   8   9
BRANCH   8  11
ATOM     11  C   LIG d   1      -0.093  90.233 117.720  0.00  0.00     0.028 C 
ATOM     12  C   LIG d   1       0.293  91.622 117.186  0.00  0.00     0.006 C 
ENDBRANCH   8  11
ENDBRANCH   7   8
ENDBRANCH   1   7
BRANCH   6  13
ATOM     13  N   LIG d   1      -3.490  92.387 119.390  0.00  0.00    -0.311 N 
ATOM     14  C   LIG d   1      -2.438  93.150 119.677  0.00  0.00     0.210 C 
ATOM     15  C   LIG d   1      -1.956  93.069 121.129  0.00  0.00     0.109 C 
ATOM     16  O   LIG d   1      -1.877  93.912 118.874  0.00  0.00    -0.276 OA
ATOM     17  H   LIG d   1      -3.903  91.825 120.109  0.00  0.00     0.149 HD
ENDBRANCH   6  13
BRANCH   5  18
ATOM     18  N   LIG d   1      -6.051  93.821 118.541  0.00  0.00     0.381 N 
ATOM     19  H   LIG d   1      -7.002  93.789 118.849  0.00  0.00    -0.090 HD
ATOM     20  H   LIG d   1      -5.989  94.470 117.777  0.00  0.00    -0.090 HD
ATOM     21  H   LIG d   1      -5.462  94.118 119.287  0.00  0.00    -0.090 HD
ENDBRANCH   5  18
BRANCH   3  22
ATOM     22  C   LIG d   1      -6.589  90.520 115.113  0.00  0.00     0.382 C 
ATOM     23  O   LIG d   1      -6.175  89.552 114.430  0.00  0.00    -0.241 OA
ATOM     24  O   LIG d   1      -7.738  90.960 114.920  0.00  0.00    -0.241 OA
ENDBRANCH   3  22
TORSDOF 7
ENDMDL
MODEL 2
REMARK VINA RESULT:      -5.5      1.191      1.743
REMARK  7 active torsions:
REMARK  status: ('A' for Active; 'I' for Inactive)
REMARK    1  A    between atoms: C_2  and  C_3 
REMARK    2  A    between atoms: C_3  and  O_6 
REMARK    3  A    between atoms: C_3  and  C_4 
REMARK    4  A    between atoms: C_7  and  O_6 
REMARK    5  A    between atoms: C_9  and  C_10 
REMARK    6  A    between atoms: N_15  and  C_14 
REMARK    7  A    between atoms: N_20  and  C_19 
REMARK       I    between atoms: C_22  and  N_20 
ROOT
ATOM      1  C   LIG d   1      -3.426  91.393 117.667  0.00  0.00     0.161 C 
ATOM      2  C   LIG d   1      -3.881  90.617 116.588  0.00  0.00     0.016 C 
ATOM      3  C   LIG d   1      -5.144  90.796 115.979  0.00  0.00     0.038 C 
ATOM      4  C   LIG d   1      -5.983  91.870 116.313  0.00  0.00     0.028 C 
ATOM      5  C   LIG d   1      -5.784  92.372 117.739  0.00  0.00    -0.047 C 
ATOM      6  C   LIG d   1      -4.280  92.641 117.972  0.00  0.00     0.091 C 
ENDROOT
BRANCH   1   7
ATOM      7  O   LIG d   1      -2.050  91.767 117.453  0.00  0.00    -0.368 OA
BRANCH   7   8
ATOM      8  C   LIG d   1      -1.111  91.351 118.475  0.00  0.00     0.119 C 
BRANCH   8   9
ATOM      9  C   LIG d   1       0.008  92.409 118.534  0.00  0.00     0.028 C 
ATOM     10  C   LIG d   1       0.246  92.933 119.960  0.00  0.00     0.006 C 
ENDBRANCH   8   9
BRANCH   8  11
ATOM     11  C   LIG d   1      -0.412  90.043 118.090  0.00  0.00     0.028 C 
ATOM     12  C   LIG d   1       0.212  90.092 116.687  0.00  0.00     0.006 C 
ENDBRANCH   8  11
ENDBRANCH   7   8
ENDBRANCH   1   7
BRANCH   6  13
ATOM     13  N   LIG d   1      -3.988  93.055 119.369  0.00  0.00    -0.311 N 
ATOM     14  C   LIG d   1      -3.299  94.153 119.679  0.00  0.00     0.210 C 
ATOM     15  C   LIG d   1      -3.094  94.385 121.179  0.00  0.00     0.109 C 
ATOM     16  O   LIG d   1      -2.867  94.973 118.855  0.00  0.00    -0.276 OA
ATOM     17  H   LIG d   1      -4.328  92.464 120.101  0.00  0.00     0.149 HD
ENDBRANCH   6  13
BRANCH   5  18
ATOM     18  N   LIG d   1      -6.619  93.577 117.907  0.00  0.00     0.381 N 
ATOM     19  H   LIG d   1      -7.516  93.428 117.490  0.00  0.00    -0.090 HD
ATOM     20  H   LIG d   1      -6.177  94.347 117.437  0.00  0.00    -0.090 HD
ATOM     21  H   LIG d   1      -6.726  93.786 118.876  0.00  0.00    -0.090 HD
ENDBRANCH   5  18
BRANCH   3  22
ATOM     22  C   LIG d   1      -5.598  89.870 115.052  0.00  0.00     0.382 C 
ATOM     23  O   LIG d   1      -6.830  89.720 114.867  0.00  0.00    -0.241 OA
ATOM     24  O   LIG d   1      -4.792  89.151 114.430  0.00  0.00    -0.241 OA
ENDBRANCH   3  22
TORSDOF 7
ENDMDL
MODEL 3
REMARK VINA RESULT:      -5.5      1.594      4.615
REMARK  7 active torsions:
REMARK  status: ('A' for Active; 'I' for Inactive)
REMARK    1  A    between atoms: C_2  and  C_3 
REMARK    2  A    between atoms: C_3  and  O_6 
REMARK    3  A    between atoms: C_3  and  C_4 
REMARK    4  A    between atoms: C_7  and  O_6 
REMARK    5  A    between atoms: C_9  and  C_10 
REMARK    6  A    between atoms: N_15  and  C_14 
REMARK    7  A    between atoms: N_20  and  C_19 
REMARK       I    between atoms: C_22  and  N_20 
ROOT
ATOM      1  C   LIG d   1      -3.825  91.720 117.024  0.00  0.00     0.161 C 
ATOM      2  C   LIG d   1      -3.025  92.742 117.561  0.00  0.00     0.016 C 
ATOM      3  C   LIG d   1      -3.469  93.633 118.564  0.00  0.00     0.038 C 
ATOM      4  C   LIG d   1      -4.703  93.466 119.210  0.00  0.00     0.028 C 
ATOM      5  C   LIG d   1      -5.746  92.759 118.351  0.00  0.00    -0.047 C 
ATOM      6  C   LIG d   1      -5.135  91.453 117.794  0.00  0.00     0.091 C 
ENDROOT
BRANCH   1   7
ATOM      7  O   LIG d   1      -3.056  90.507 116.906  0.00  0.00    -0.368 OA
BRANCH   7   8
ATOM      8  C   LIG d   1      -1.973  90.345 117.854  0.00  0.00     0.119 C 
BRANCH   8   9
ATOM      9  C   LIG d   1      -0.734  89.878 117.066  0.00  0.00     0.028 C 
ATOM     10  C   LIG d   1       0.233  91.033 116.754  0.00  0.00     0.006 C 
ENDBRANCH   8   9
BRANCH   8  11
ATOM     11  C   LIG d   1      -2.268  89.220 118.851  0.00  0.00     0.028 C 
ATOM     12  C   LIG d   1      -1.578  89.430 120.208  0.00  0.00     0.006 C 
ENDBRANCH   8  11
ENDBRANCH   7   8
ENDBRANCH   1   7
BRANCH   6  13
ATOM     13  N   LIG d   1      -6.061  90.741 116.875  0.00  0.00    -0.311 N 
ATOM     14  C   LIG d   1      -6.456  91.238 115.704  0.00  0.00     0.210 C 
ATOM     15  C   LIG d   1      -7.428  90.350 114.920  0.00  0.00     0.109 C 
ATOM     16  O   LIG d   1      -6.069  92.314 115.225  0.00  0.00    -0.276 OA
ATOM     17  H   LIG d   1      -6.399  89.846 117.170  0.00  0.00     0.149 HD
ENDBRANCH   6  13
BRANCH   5  18
ATOM     18  N   LIG d   1      -6.935  92.528 119.193  0.00  0.00     0.381 N 
ATOM     19  H   LIG d   1      -7.726  92.996 118.798  0.00  0.00    -0.090 HD
ATOM     20  H   LIG d   1      -6.766  92.911 120.106  0.00  0.00    -0.090 HD
ATOM     21  H   LIG d   1      -7.119  91.551 119.263  0.00  0.00    -0.090 HD
ENDBRANCH   5  18
BRANCH   3  22
ATOM     22  C   LIG d   1      -2.692  94.730 118.903  0.00  0.00     0.382 C 
ATOM     23  O   LIG d   1      -1.442  94.660 118.828  0.00  0.00    -0.241 OA
ATOM     24  O   LIG d   1      -3.223  95.775 119.325  0.00  0.00    -0.241 OA
ENDBRANCH   3  22
TORSDOF 7
ENDMDL
MODEL 4
REMARK VINA RESULT:      -5.2      1.538      1.865
REMARK  7 active torsions:
REMARK  status: ('A' for Active; 'I' for Inactive)
REMARK    1  A    between atoms: C_2  and  C_3 
REMARK    2  A    between atoms: C_3  and  O_6 
REMARK    3  A    between atoms: C_3  and  C_4 
REMARK    4  A    between atoms: C_7  and  O_6 
REMARK    5  A    between atoms: C_9  and  C_10 
REMARK    6  A    between atoms: N_15  and  C_14 
REMARK    7  A    between atoms: N_20  and  C_19 
REMARK       I    between atoms: C_22  and  N_20 
ROOT
ATOM      1  C   LIG d   1      -3.887  91.312 118.485  0.00  0.00     0.161 C 
ATOM      2  C   LIG d   1      -4.177  90.540 117.348  0.00  0.00     0.016 C 
ATOM      3  C   LIG d   1      -5.227  90.839 116.450  0.00  0.00     0.038 C 
ATOM      4  C   LIG d   1      -5.969  92.025 116.547  0.00  0.00     0.028 C 
ATOM      5  C   LIG d   1      -6.045  92.579 117.966  0.00  0.00    -0.047 C 
ATOM      6  C   LIG d   1      -4.615  92.672 118.545  0.00  0.00     0.091 C 
ENDROOT
BRANCH   1   7
ATOM      7  O   LIG d   1      -2.463  91.501 118.598  0.00  0.00    -0.368 OA
BRANCH   7   8
ATOM      8  C   LIG d   1      -1.785  91.968 117.405  0.00  0.00     0.119 C 
BRANCH   8   9
ATOM      9  C   LIG d   1      -0.599  91.019 117.145  0.00  0.00     0.028 C 
ATOM     10  C   LIG d   1      -0.520  89.882 118.178  0.00  0.00     0.006 C 
ENDBRANCH   8   9
BRANCH   8  11
ATOM     11  C   LIG d   1      -1.160  93.349 117.624  0.00  0.00     0.028 C 
ATOM     12  C   LIG d   1      -0.649  93.551 119.059  0.00  0.00     0.006 C 
ENDBRANCH   8  11
ENDBRANCH   7   8
ENDBRANCH   1   7
BRANCH   6  13
ATOM     13  N   LIG d   1      -4.606  93.124 119.961  0.00  0.00    -0.311 N 
ATOM     14  C   LIG d   1      -4.151  94.316 120.346  0.00  0.00     0.210 C 
ATOM     15  C   LIG d   1      -4.213  94.574 121.855  0.00  0.00     0.109 C 
ATOM     16  O   LIG d   1      -3.733  95.195 119.578  0.00  0.00    -0.276 OA
ATOM     17  H   LIG d   1      -4.956  92.485 120.646  0.00  0.00     0.149 HD
ENDBRANCH   6  13
BRANCH   5  18
ATOM     18  N   LIG d   1      -6.728  93.884 117.899  0.00  0.00     0.381 N 
ATOM     19  H   LIG d   1      -7.070  94.041 116.972  0.00  0.00    -0.090 HD
ATOM     20  H   LIG d   1      -6.067  94.609 118.118  0.00  0.00    -0.090 HD
ATOM     21  H   LIG d   1      -7.484  93.907 118.548  0.00  0.00    -0.090 HD
ENDBRANCH   5  18
BRANCH   3  22
ATOM     22  C   LIG d   1      -5.570  89.926 115.465  0.00  0.00     0.382 C 
ATOM     23  O   LIG d   1      -4.674  89.381 114.775  0.00  0.00    -0.241 OA
ATOM     24  O   LIG d   1      -6.766  89.673 115.226  0.00  0.00    -0.241 OA
ENDBRANCH   3  22
TORSDOF 7
ENDMDL
MODEL 5
REMARK VINA RESULT:      -5.2      2.572      3.901
REMARK  7 active torsions:
REMARK  status: ('A' for Active; 'I' for Inactive)
REMARK    1  A    between atoms: C_2  and  C_3 
REMARK    2  A    between atoms: C_3  and  O_6 
REMARK    3  A    between atoms: C_3  and  C_4 
REMARK    4  A    between atoms: C_7  and  O_6 
REMARK    5  A    between atoms: C_9  and  C_10 
REMARK    6  A    between atoms: N_15  and  C_14 
REMARK    7  A    between atoms: N_20  and  C_19 
REMARK       I    between atoms: C_22  and  N_20 
ROOT
ATOM      1  C   LIG d   1      -4.817  92.610 118.479  0.00  0.00     0.161 C 
ATOM      2  C   LIG d   1      -6.209  92.784 118.560  0.00  0.00     0.016 C 
ATOM      3  C   LIG d   1      -6.819  93.898 119.181  0.00  0.00     0.038 C 
ATOM      4  C   LIG d   1      -6.072  94.996 119.632  0.00  0.00     0.028 C 
ATOM      5  C   LIG d   1      -4.643  94.636 120.025  0.00  0.00    -0.047 C 
ATOM      6  C   LIG d   1      -3.987  93.851 118.867  0.00  0.00     0.091 C 
ENDROOT
BRANCH   1   7
ATOM      7  O   LIG d   1      -4.458  92.159 117.157  0.00  0.00    -0.368 OA
BRANCH   7   8
ATOM      8  C   LIG d   1      -4.277  90.731 116.998  0.00  0.00     0.119 C 
BRANCH   8   9
ATOM      9  C   LIG d   1      -2.761  90.459 116.947  0.00  0.00     0.028 C 
ATOM     10  C   LIG d   1      -2.273  89.630 118.147  0.00  0.00     0.006 C 
ENDBRANCH   8   9
BRANCH   8  11
ATOM     11  C   LIG d   1      -4.822  90.247 115.651  0.00  0.00     0.028 C 
ATOM     12  C   LIG d   1      -6.358  90.205 115.610  0.00  0.00     0.006 C 
ENDBRANCH   8  11
ENDBRANCH   7   8
ENDBRANCH   1   7
BRANCH   6  13
ATOM     13  N   LIG d   1      -2.615  93.387 119.201  0.00  0.00    -0.311 N 
ATOM     14  C   LIG d   1      -1.548  93.651 118.449  0.00  0.00     0.210 C 
ATOM     15  C   LIG d   1      -0.231  93.062 118.965  0.00  0.00     0.109 C 
ATOM     16  O   LIG d   1      -1.561  94.345 117.421  0.00  0.00    -0.276 OA
ATOM     17  H   LIG d   1      -2.508  92.845 120.036  0.00  0.00     0.149 HD
ENDBRANCH   6  13
BRANCH   5  18
ATOM     18  N   LIG d   1      -3.938  95.893 120.343  0.00  0.00     0.381 N 
ATOM     19  H   LIG d   1      -3.869  96.460 119.522  0.00  0.00    -0.090 HD
ATOM     20  H   LIG d   1      -3.009  95.674 120.656  0.00  0.00    -0.090 HD
ATOM     21  H   LIG d   1      -4.428  96.387 121.056  0.00  0.00    -0.090 HD
ENDBRANCH   5  18
BRANCH   3  22
ATOM     22  C   LIG d   1      -8.189  93.902 119.392  0.00  0.00     0.382 C 
ATOM     23  O   LIG d   1      -8.717  93.014 120.102  0.00  0.00    -0.241 OA
ATOM     24  O   LIG d   1      -8.910  94.758 118.844  0.00  0.00    -0.241 OA
ENDBRANCH   3  22
TORSDOF 7
ENDMDL
MODEL 6
REMARK VINA RESULT:      -5.0      2.343      4.558
REMARK  7 active torsions:
REMARK  status: ('A' for Active; 'I' for Inactive)
REMARK    1  A    between atoms: C_2  and  C_3 
REMARK    2  A    between atoms: C_3  and  O_6 
REMARK    3  A    between atoms: C_3  and  C_4 
REMARK    4  A    between atoms: C_7  and  O_6 
REMARK    5  A    between atoms: C_9  and  C_10 
REMARK    6  A    between atoms: N_15  and  C_14 
REMARK    7  A    between atoms: N_20  and  C_19 
REMARK       I    between atoms: C_22  and  N_20 
ROOT
ATOM      1  C   LIG d   1      -4.798  92.017 118.134  0.00  0.00     0.161 C 
ATOM      2  C   LIG d   1      -5.841  92.032 117.193  0.00  0.00     0.016 C 
ATOM      3  C   LIG d   1      -5.857  91.220 116.036  0.00  0.00     0.038 C 
ATOM      4  C   LIG d   1      -4.896  90.222 115.817  0.00  0.00     0.028 C 
ATOM      5  C   LIG d   1      -3.555  90.517 116.481  0.00  0.00    -0.047 C 
ATOM      6  C   LIG d   1      -3.796  90.856 117.970  0.00  0.00     0.091 C 
ENDROOT
BRANCH   1   7
ATOM      7  O   LIG d   1      -5.343  92.024 119.468  0.00  0.00    -0.368 OA
BRANCH   7   8
ATOM      8  C   LIG d   1      -5.952  93.265 119.902  0.00  0.00     0.119 C 
BRANCH   8   9
ATOM      9  C   LIG d   1      -4.856  94.104 120.587  0.00  0.00     0.028 C 
ATOM     10  C   LIG d   1      -5.157  95.611 120.542  0.00  0.00     0.006 C 
ENDBRANCH   8   9
BRANCH   8  11
ATOM     11  C   LIG d   1      -7.009  93.019 120.983  0.00  0.00     0.028 C 
ATOM     12  C   LIG d   1      -8.437  93.321 120.500  0.00  0.00     0.006 C 
ENDBRANCH   8  11
ENDBRANCH   7   8
ENDBRANCH   1   7
BRANCH   6  13
ATOM     13  N   LIG d   1      -2.544  91.239 118.674  0.00  0.00    -0.311 N 
ATOM     14  C   LIG d   1      -1.793  90.376 119.356  0.00  0.00     0.210 C 
ATOM     15  C   LIG d   1      -0.555  90.983 120.023  0.00  0.00     0.109 C 
ATOM     16  O   LIG d   1      -2.018  89.160 119.446  0.00  0.00    -0.276 OA
ATOM     17  H   LIG d   1      -2.270  92.201 118.627  0.00  0.00     0.149 HD
ENDBRANCH   6  13
BRANCH   5  18
ATOM     18  N   LIG d   1      -2.693  89.335 116.289  0.00  0.00     0.381 N 
ATOM     19  H   LIG d   1      -1.892  89.585 115.744  0.00  0.00    -0.090 HD
ATOM     20  H   LIG d   1      -3.210  88.634 115.787  0.00  0.00    -0.090 HD
ATOM     21  H   LIG d   1      -2.404  88.976 117.173  0.00  0.00    -0.090 HD
ENDBRANCH   5  18
BRANCH   3  22
ATOM     22  C   LIG d   1      -6.821  91.431 115.062  0.00  0.00     0.382 C 
ATOM     23  O   LIG d   1      -7.249  92.590 114.843  0.00  0.00    -0.241 OA
ATOM     24  O   LIG d   1      -7.301  90.470 114.430  0.00  0.00    -0.241 OA
ENDBRANCH   3  22
TORSDOF 7
ENDMDL
MODEL 7
REMARK VINA RESULT:      -4.9      2.202      4.092
REMARK  7 active torsions:
REMARK  status: ('A' for Active; 'I' for Inactive)
REMARK    1  A    between atoms: C_2  and  C_3 
REMARK    2  A    between atoms: C_3  and  O_6 
REMARK    3  A    between atoms: C_3  and  C_4 
REMARK    4  A    between atoms: C_7  and  O_6 
REMARK    5  A    between atoms: C_9  and  C_10 
REMARK    6  A    between atoms: N_15  and  C_14 
REMARK    7  A    between atoms: N_20  and  C_19 
REMARK       I    between atoms: C_22  and  N_20 
ROOT
ATOM      1  C   LIG d   1      -4.926  92.114 118.273  0.00  0.00     0.161 C 
ATOM      2  C   LIG d   1      -5.943  92.103 117.304  0.00  0.00     0.016 C 
ATOM      3  C   LIG d   1      -5.895  91.311 116.134  0.00  0.00     0.038 C 
ATOM      4  C   LIG d   1      -4.889  90.355 115.927  0.00  0.00     0.028 C 
ATOM      5  C   LIG d   1      -3.579  90.691 116.632  0.00  0.00    -0.047 C 
ATOM      6  C   LIG d   1      -3.874  90.996 118.119  0.00  0.00     0.091 C 
ENDROOT
BRANCH   1   7
ATOM      7  O   LIG d   1      -5.506  92.078 119.591  0.00  0.00    -0.368 OA
BRANCH   7   8
ATOM      8  C   LIG d   1      -5.421  93.303 120.360  0.00  0.00     0.119 C 
BRANCH   8   9
ATOM      9  C   LIG d   1      -6.825  93.937 120.378  0.00  0.00     0.028 C 
ATOM     10  C   LIG d   1      -7.855  93.063 121.112  0.00  0.00     0.006 C 
ENDBRANCH   8   9
BRANCH   8  11
ATOM     11  C   LIG d   1      -4.519  94.331 119.670  0.00  0.00     0.028 C 
ATOM     12  C   LIG d   1      -3.268  94.674 120.494  0.00  0.00     0.006 C 
ENDBRANCH   8  11
ENDBRANCH   7   8
ENDBRANCH   1   7
BRANCH   6  13
ATOM     13  N   LIG d   1      -2.658  91.417 118.862  0.00  0.00    -0.311 N 
ATOM     14  C   LIG d   1      -1.881  90.570 119.536  0.00  0.00     0.210 C 
ATOM     15  C   LIG d   1      -0.688  91.215 120.249  0.00  0.00     0.109 C 
ATOM     16  O   LIG d   1      -2.047  89.342 119.583  0.00  0.00    -0.276 OA
ATOM     17  H   LIG d   1      -2.430  92.392 118.851  0.00  0.00     0.149 HD
ENDBRANCH   6  13
BRANCH   5  18
ATOM     18  N   LIG d   1      -2.666  89.548 116.446  0.00  0.00     0.381 N 
ATOM     19  H   LIG d   1      -1.934  89.799 115.813  0.00  0.00    -0.090 HD
ATOM     20  H   LIG d   1      -3.181  88.783 116.046  0.00  0.00    -0.090 HD
ATOM     21  H   LIG d   1      -2.279  89.275 117.322  0.00  0.00    -0.090 HD
ENDBRANCH   5  18
BRANCH   3  22
ATOM     22  C   LIG d   1      -6.840  91.499 115.137  0.00  0.00     0.382 C 
ATOM     23  O   LIG d   1      -7.207  90.529 114.430  0.00  0.00    -0.241 OA
ATOM     24  O   LIG d   1      -7.298  92.634 114.907  0.00  0.00    -0.241 OA
ENDBRANCH   3  22
TORSDOF 7
ENDMDL
MODEL 8
REMARK VINA RESULT:      -4.6      2.377      4.822
REMARK  7 active torsions:
REMARK  status: ('A' for Active; 'I' for Inactive)
REMARK    1  A    between atoms: C_2  and  C_3 
REMARK    2  A    between atoms: C_3  and  O_6 
REMARK    3  A    between atoms: C_3  and  C_4 
REMARK    4  A    between atoms: C_7  and  O_6 
REMARK    5  A    between atoms: C_9  and  C_10 
REMARK    6  A    between atoms: N_15  and  C_14 
REMARK    7  A    between atoms: N_20  and  C_19 
REMARK       I    between atoms: C_22  and  N_20 
ROOT
ATOM      1  C   LIG d   1      -3.977  92.086 119.608  0.00  0.00     0.161 C 
ATOM      2  C   LIG d   1      -2.932  91.415 118.951  0.00  0.00     0.016 C 
ATOM      3  C   LIG d   1      -3.078  90.798 117.687  0.00  0.00     0.038 C 
ATOM      4  C   LIG d   1      -4.245  90.941 116.922  0.00  0.00     0.028 C 
ATOM      5  C   LIG d   1      -5.495  91.182 117.762  0.00  0.00    -0.047 C 
ATOM      6  C   LIG d   1      -5.225  92.349 118.740  0.00  0.00     0.091 C 
ENDROOT
BRANCH   1   7
ATOM      7  O   LIG d   1      -3.487  93.321 120.168  0.00  0.00    -0.368 OA
BRANCH   7   8
ATOM      8  C   LIG d   1      -3.489  94.468 119.283  0.00  0.00     0.119 C 
BRANCH   8   9
ATOM      9  C   LIG d   1      -2.022  94.878 119.054  0.00  0.00     0.028 C 
ATOM     10  C   LIG d   1      -1.583  94.698 117.591  0.00  0.00     0.006 C 
ENDBRANCH   8   9
BRANCH   8  11
ATOM     11  C   LIG d   1      -4.152  95.680 119.943  0.00  0.00     0.028 C 
ATOM     12  C   LIG d   1      -4.668  95.380 121.359  0.00  0.00     0.006 C 
ENDBRANCH   8  11
ENDBRANCH   7   8
ENDBRANCH   1   7
BRANCH   6  13
ATOM     13  N   LIG d   1      -6.367  92.595 119.657  0.00  0.00    -0.311 N 
ATOM     14  C   LIG d   1      -7.306  93.512 119.429  0.00  0.00     0.210 C 
ATOM     15  C   LIG d   1      -8.384  93.617 120.512  0.00  0.00     0.109 C 
ATOM     16  O   LIG d   1      -7.366  94.227 118.417  0.00  0.00    -0.276 OA
ATOM     17  H   LIG d   1      -6.414  92.038 120.488  0.00  0.00     0.149 HD
ENDBRANCH   6  13
BRANCH   5  18
ATOM     18  N   LIG d   1      -6.610  91.450 116.835  0.00  0.00     0.381 N 
ATOM     19  H   LIG d   1      -6.858  92.419 116.875  0.00  0.00    -0.090 HD
ATOM     20  H   LIG d   1      -7.407  90.909 117.120  0.00  0.00    -0.090 HD
ATOM     21  H   LIG d   1      -6.348  91.205 115.906  0.00  0.00    -0.090 HD
ENDBRANCH   5  18
BRANCH   3  22
ATOM     22  C   LIG d   1      -2.062  89.993 117.194  0.00  0.00     0.382 C 
ATOM     23  O   LIG d   1      -2.326  88.847 116.756  0.00  0.00    -0.241 OA
ATOM     24  O   LIG d   1      -0.879  90.381 117.223  0.00  0.00    -0.241 OA
ENDBRANCH   3  22
TORSDOF 7
ENDMDL
MODEL 9
REMARK VINA RESULT:      -4.5      2.438      5.287
REMARK  7 active torsions:
REMARK  status: ('A' for Active; 'I' for Inactive)
REMARK    1  A    between atoms: C_2  and  C_3 
REMARK    2  A    between atoms: C_3  and  O_6 
REMARK    3  A    between atoms: C_3  and  C_4 
REMARK    4  A    between atoms: C_7  and  O_6 
REMARK    5  A    between atoms: C_9  and  C_10 
REMARK    6  A    between atoms: N_15  and  C_14 
REMARK    7  A    between atoms: N_20  and  C_19 
REMARK       I    between atoms: C_22  and  N_20 
ROOT
ATOM      1  C   LIG d   1      -2.467  93.383 117.745  0.00  0.00     0.161 C 
ATOM      2  C   LIG d   1      -1.243  92.707 117.605  0.00  0.00     0.016 C 
ATOM      3  C   LIG d   1      -0.231  92.717 118.592  0.00  0.00     0.038 C 
ATOM      4  C   LIG d   1      -0.436  93.284 119.858  0.00  0.00     0.028 C 
ATOM      5  C   LIG d   1      -1.464  94.411 119.858  0.00  0.00    -0.047 C 
ATOM      6  C   LIG d   1      -2.753  93.914 119.165  0.00  0.00     0.091 C 
ENDROOT
BRANCH   1   7
ATOM      7  O   LIG d   1      -3.546  92.538 117.299  0.00  0.00    -0.368 OA
BRANCH   7   8
ATOM      8  C   LIG d   1      -3.231  91.132 117.140  0.00  0.00     0.119 C 
BRANCH   8   9
ATOM      9  C   LIG d   1      -4.229  90.546 116.123  0.00  0.00     0.028 C 
ATOM     10  C   LIG d   1      -5.514  91.384 116.012  0.00  0.00     0.006 C 
ENDBRANCH   8   9
BRANCH   8  11
ATOM     11  C   LIG d   1      -3.473  90.357 118.439  0.00  0.00     0.028 C 
ATOM     12  C   LIG d   1      -2.338  89.374 118.767  0.00  0.00     0.006 C 
ENDBRANCH   8  11
ENDBRANCH   7   8
ENDBRANCH   1   7
BRANCH   6  13
ATOM     13  N   LIG d   1      -3.781  94.982 119.047  0.00  0.00    -0.311 N 
ATOM     14  C   LIG d   1      -4.743  95.176 119.947  0.00  0.00     0.210 C 
ATOM     15  C   LIG d   1      -5.711  96.318 119.623  0.00  0.00     0.109 C 
ATOM     16  O   LIG d   1      -4.867  94.531 120.999  0.00  0.00    -0.276 OA
ATOM     17  H   LIG d   1      -3.735  95.571 118.239  0.00  0.00     0.149 HD
ENDBRANCH   6  13
BRANCH   5  18
ATOM     18  N   LIG d   1      -1.681  94.817 121.260  0.00  0.00     0.381 N 
ATOM     19  H   LIG d   1      -0.868  94.605 121.803  0.00  0.00    -0.090 HD
ATOM     20  H   LIG d   1      -2.455  94.295 121.633  0.00  0.00    -0.090 HD
ATOM     21  H   LIG d   1      -1.875  95.793 121.306  0.00  0.00    -0.090 HD
ENDBRANCH   5  18
BRANCH   3  22
ATOM     22  C   LIG d   1       1.018  92.190 118.300  0.00  0.00     0.382 C 
ATOM     23  O   LIG d   1       1.827  91.946 119.228  0.00  0.00    -0.241 OA
ATOM     24  O   LIG d   1       1.363  91.997 117.119  0.00  0.00    -0.241 OA
ENDBRANCH   3  22
TORSDOF 7
ENDMDL
