MODEL 1
REMARK VINA RESULT:      -5.8      0.000      0.000
REMARK  7 active torsions:
REMARK  status: ('A' for Active; 'I' for Inactive)
REMARK    1  A    between atoms: C_2  and  C_3 
REMARK    2  A    between atoms: C_3  and  O_6 
REMARK    3  A    between atoms: C_3  and  C_4 
REMARK    4  A    between atoms: C_7  and  O_6 
REMARK    5  A    between atoms: C_9  and  C_10 
REMARK    6  A    between atoms: N_15  and  C_14 
REMARK    7  A    between atoms: N_20  and  C_19 
REMARK       I    between atoms: C_22  and  N_20 
ROOT
ATOM      1  C   LIG d   1      -6.927  92.810 118.209  0.00  0.00     0.161 C 
ATOM      2  C   LIG d   1      -7.376  91.779 117.366  0.00  0.00     0.016 C 
ATOM      3  C   LIG d   1      -6.508  90.967 116.601  0.00  0.00     0.038 C 
ATOM      4  C   LIG d   1      -5.114  91.031 116.745  0.00  0.00     0.028 C 
ATOM      5  C   LIG d   1      -4.614  92.396 117.206  0.00  0.00    -0.047 C 
ATOM      6  C   LIG d   1      -5.406  92.821 118.463  0.00  0.00     0.091 C 
ENDROOT
BRANCH   1   7
ATOM      7  O   LIG d   1      -7.644  92.765 119.459  0.00  0.00    -0.368 OA
BRANCH   7   8
ATOM      8  C   LIG d   1      -8.488  93.906 119.751  0.00  0.00     0.119 C 
BRANCH   8   9
ATOM      9  C   LIG d   1      -9.887  93.368 120.109  0.00  0.00     0.028 C 
ATOM     10  C   LIG d   1     -10.475  94.047 121.357  0.00  0.00     0.006 C 
ENDBRANCH   8   9
BRANCH   8  11
ATOM     11  C   LIG d   1      -8.694  94.779 118.510  0.00  0.00     0.028 C 
ATOM     12  C   LIG d   1      -8.132  96.199 118.679  0.00  0.00     0.006 C 
ENDBRANCH   8  11
ENDBRANCH   7   8
ENDBRANCH   1   7
BRANCH   6  13
ATOM     13  N   LIG d   1      -5.038  94.183 118.931  0.00  0.00    -0.311 N 
ATOM     14  C   LIG d   1      -4.117  94.414 119.864  0.00  0.00     0.210 C 
ATOM     15  C   LIG d   1      -3.906  95.891 120.213  0.00  0.00     0.109 C 
ATOM     16  O   LIG d   1      -3.431  93.538 120.414  0.00  0.00    -0.276 OA
ATOM     17  H   LIG d   1      -5.523  94.954 118.515  0.00  0.00     0.149 HD
ENDBRANCH   6  13
BRANCH   5  18
ATOM     18  N   LIG d   1      -3.163  92.282 117.446  0.00  0.00     0.381 N 
ATOM     19  H   LIG d   1      -2.932  92.699 118.326  0.00  0.00    -0.090 HD
ATOM     20  H   LIG d   1      -2.674  92.779 116.723  0.00  0.00    -0.090 HD
ATOM     21  H   LIG d   1      -2.892  91.323 117.443  0.00  0.00    -0.090 HD
ENDBRANCH   5  18
BRANCH   3  22
ATOM     22  C   LIG d   1      -7.033  90.104 115.651  0.00  0.00     0.382 C 
ATOM     23  O   LIG d   1      -8.256  89.825 115.665  0.00  0.00    -0.241 OA
ATOM     24  O   LIG d   1      -6.291  89.568 114.806  0.00  0.00    -0.241 OA
ENDBRANCH   3  22
TORSDOF 7
ENDMDL
MODEL 2
REMARK VINA RESULT:      -5.7      0.340      1.501
REMARK  7 active torsions:
REMARK  status: ('A' for Active; 'I' for Inactive)
REMARK    1  A    between atoms: C_2  and  C_3 
REMARK    2  A    between atoms: C_3  and  O_6 
REMARK    3  A    between atoms: C_3  and  C_4 
REMARK    4  A    between atoms: C_7  and  O_6 
REMARK    5  A    between atoms: C_9  and  C_10 
REMARK    6  A    between atoms: N_15  and  C_14 
REMARK    7  A    between atoms: N_20  and  C_19 
REMARK       I    between atoms: C_22  and  N_20 
ROOT
ATOM      1  C   LIG d   1      -6.887  92.919 118.115  0.00  0.00     0.161 C 
ATOM      2  C   LIG d   1      -7.356  91.879 117.296  0.00  0.00     0.016 C 
ATOM      3  C   LIG d   1      -6.504  90.990 116.602  0.00  0.00     0.038 C 
ATOM      4  C   LIG d   1      -5.116  90.986 116.801  0.00  0.00     0.028 C 
ATOM      5  C   LIG d   1      -4.561  92.342 117.228  0.00  0.00    -0.047 C 
ATOM      6  C   LIG d   1      -5.378  92.861 118.433  0.00  0.00     0.091 C 
ENDROOT
BRANCH   1   7
ATOM      7  O   LIG d   1      -7.654  92.965 119.335  0.00  0.00    -0.368 OA
BRANCH   7   8
ATOM      8  C   LIG d   1      -8.849  93.784 119.305  0.00  0.00     0.119 C 
BRANCH   8   9
ATOM      9  C   LIG d   1      -8.489  95.151 119.919  0.00  0.00     0.028 C 
ATOM     10  C   LIG d   1      -8.236  96.226 118.850  0.00  0.00     0.006 C 
ENDBRANCH   8   9
BRANCH   8  11
ATOM     11  C   LIG d   1      -9.942  93.208 120.211  0.00  0.00     0.028 C 
ATOM     12  C   LIG d   1     -10.229  94.092 121.435  0.00  0.00     0.006 C 
ENDBRANCH   8  11
ENDBRANCH   7   8
ENDBRANCH   1   7
BRANCH   6  13
ATOM     13  N   LIG d   1      -4.956  94.220 118.861  0.00  0.00    -0.311 N 
ATOM     14  C   LIG d   1      -4.063  94.441 119.824  0.00  0.00     0.210 C 
ATOM     15  C   LIG d   1      -3.785  95.918 120.122  0.00  0.00     0.109 C 
ATOM     16  O   LIG d   1      -3.450  93.555 120.438  0.00  0.00    -0.276 OA
ATOM     17  H   LIG d   1      -5.380  94.998 118.394  0.00  0.00     0.149 HD
ENDBRANCH   6  13
BRANCH   5  18
ATOM     18  N   LIG d   1      -3.130  92.161 117.534  0.00  0.00     0.381 N 
ATOM     19  H   LIG d   1      -2.596  92.884 117.095  0.00  0.00    -0.090 HD
ATOM     20  H   LIG d   1      -2.827  91.277 117.165  0.00  0.00    -0.090 HD
ATOM     21  H   LIG d   1      -2.986  92.184 118.520  0.00  0.00    -0.090 HD
ENDBRANCH   5  18
BRANCH   3  22
ATOM     22  C   LIG d   1      -7.037  90.117 115.665  0.00  0.00     0.382 C 
ATOM     23  O   LIG d   1      -8.253  89.811 115.715  0.00  0.00    -0.241 OA
ATOM     24  O   LIG d   1      -6.308  89.599 114.798  0.00  0.00    -0.241 OA
ENDBRANCH   3  22
TORSDOF 7
ENDMDL
MODEL 3
REMARK VINA RESULT:      -5.4      2.507      5.141
REMARK  7 active torsions:
REMARK  status: ('A' for Active; 'I' for Inactive)
REMARK    1  A    between atoms: C_2  and  C_3 
REMARK    2  A    between atoms: C_3  and  O_6 
REMARK    3  A    between atoms: C_3  and  C_4 
REMARK    4  A    between atoms: C_7  and  O_6 
REMARK    5  A    between atoms: C_9  and  C_10 
REMARK    6  A    between atoms: N_15  and  C_14 
REMARK    7  A    between atoms: N_20  and  C_19 
REMARK       I    between atoms: C_22  and  N_20 
ROOT
ATOM      1  C   LIG d   1      -4.546  91.244 117.761  0.00  0.00     0.161 C 
ATOM      2  C   LIG d   1      -5.415  90.683 116.810  0.00  0.00     0.016 C 
ATOM      3  C   LIG d   1      -6.612  91.305 116.388  0.00  0.00     0.038 C 
ATOM      4  C   LIG d   1      -6.947  92.610 116.779  0.00  0.00     0.028 C 
ATOM      5  C   LIG d   1      -6.356  93.010 118.126  0.00  0.00    -0.047 C 
ATOM      6  C   LIG d   1      -4.838  92.717 118.115  0.00  0.00     0.091 C 
ENDROOT
BRANCH   1   7
ATOM      7  O   LIG d   1      -3.181  91.096 117.322  0.00  0.00    -0.368 OA
BRANCH   7   8
ATOM      8  C   LIG d   1      -2.325  90.285 118.164  0.00  0.00     0.119 C 
BRANCH   8   9
ATOM      9  C   LIG d   1      -0.891  90.396 117.610  0.00  0.00     0.028 C 
ATOM     10  C   LIG d   1      -0.360  91.838 117.641  0.00  0.00     0.006 C 
ENDBRANCH   8   9
BRANCH   8  11
ATOM     11  C   LIG d   1      -2.686  88.800 118.061  0.00  0.00     0.028 C 
ATOM     12  C   LIG d   1      -2.786  88.115 119.433  0.00  0.00     0.006 C 
ENDBRANCH   8  11
ENDBRANCH   7   8
ENDBRANCH   1   7
BRANCH   6  13
ATOM     13  N   LIG d   1      -4.196  93.001 119.425  0.00  0.00    -0.311 N 
ATOM     14  C   LIG d   1      -3.150  93.813 119.568  0.00  0.00     0.210 C 
ATOM     15  C   LIG d   1      -2.630  93.951 121.002  0.00  0.00     0.109 C 
ATOM     16  O   LIG d   1      -2.624  94.457 118.648  0.00  0.00    -0.276 OA
ATOM     17  H   LIG d   1      -4.580  92.544 120.229  0.00  0.00     0.149 HD
ENDBRANCH   6  13
BRANCH   5  18
ATOM     18  N   LIG d   1      -6.668  94.435 118.345  0.00  0.00     0.381 N 
ATOM     19  H   LIG d   1      -6.634  94.643 119.323  0.00  0.00    -0.090 HD
ATOM     20  H   LIG d   1      -7.600  94.617 118.016  0.00  0.00    -0.090 HD
ATOM     21  H   LIG d   1      -6.017  95.006 117.853  0.00  0.00    -0.090 HD
ENDBRANCH   5  18
BRANCH   3  22
ATOM     22  C   LIG d   1      -7.509  90.604 115.596  0.00  0.00     0.382 C 
ATOM     23  O   LIG d   1      -7.893  91.088 114.505  0.00  0.00    -0.241 OA
ATOM     24  O   LIG d   1      -7.973  89.513 115.981  0.00  0.00    -0.241 OA
ENDBRANCH   3  22
TORSDOF 7
ENDMDL
MODEL 4
REMARK VINA RESULT:      -4.8      2.485      5.191
REMARK  7 active torsions:
REMARK  status: ('A' for Active; 'I' for Inactive)
REMARK    1  A    between atoms: C_2  and  C_3 
REMARK    2  A    between atoms: C_3  and  O_6 
REMARK    3  A    between atoms: C_3  and  C_4 
REMARK    4  A    between atoms: C_7  and  O_6 
REMARK    5  A    between atoms: C_9  and  C_10 
REMARK    6  A    between atoms: N_15  and  C_14 
REMARK    7  A    between atoms: N_20  and  C_19 
REMARK       I    between atoms: C_22  and  N_20 
ROOT
ATOM      1  C   LIG d   1      -4.366  92.417 118.760  0.00  0.00     0.161 C 
ATOM      2  C   LIG d   1      -5.672  92.860 119.028  0.00  0.00     0.016 C 
ATOM      3  C   LIG d   1      -6.797  92.473 118.265  0.00  0.00     0.038 C 
ATOM      4  C   LIG d   1      -6.713  91.490 117.267  0.00  0.00     0.028 C 
ATOM      5  C   LIG d   1      -5.332  91.391 116.629  0.00  0.00    -0.047 C 
ATOM      6  C   LIG d   1      -4.271  91.258 117.746  0.00  0.00     0.091 C 
ENDROOT
BRANCH   1   7
ATOM      7  O   LIG d   1      -3.709  92.059 119.992  0.00  0.00    -0.368 OA
BRANCH   7   8
ATOM      8  C   LIG d   1      -2.750  93.017 120.505  0.00  0.00     0.119 C 
BRANCH   8   9
ATOM      9  C   LIG d   1      -2.464  94.033 119.382  0.00  0.00     0.028 C 
ATOM     10  C   LIG d   1      -2.836  95.470 119.782  0.00  0.00     0.006 C 
ENDBRANCH   8   9
BRANCH   8  11
ATOM     11  C   LIG d   1      -1.403  92.352 120.802  0.00  0.00     0.028 C 
ATOM     12  C   LIG d   1      -0.269  92.877 119.908  0.00  0.00     0.006 C 
ENDBRANCH   8  11
ENDBRANCH   7   8
ENDBRANCH   1   7
BRANCH   6  13
ATOM     13  N   LIG d   1      -2.885  91.240 117.212  0.00  0.00    -0.311 N 
ATOM     14  C   LIG d   1      -1.942  90.407 117.648  0.00  0.00     0.210 C 
ATOM     15  C   LIG d   1      -0.575  90.568 116.976  0.00  0.00     0.109 C 
ATOM     16  O   LIG d   1      -2.116  89.528 118.505  0.00  0.00    -0.276 OA
ATOM     17  H   LIG d   1      -2.665  91.900 116.491  0.00  0.00     0.149 HD
ENDBRANCH   6  13
BRANCH   5  18
ATOM     18  N   LIG d   1      -5.348  90.239 115.708  0.00  0.00     0.381 N 
ATOM     19  H   LIG d   1      -5.339  90.562 114.761  0.00  0.00    -0.090 HD
ATOM     20  H   LIG d   1      -6.194  89.717 115.855  0.00  0.00    -0.090 HD
ATOM     21  H   LIG d   1      -4.557  89.657 115.876  0.00  0.00    -0.090 HD
ENDBRANCH   5  18
BRANCH   3  22
ATOM     22  C   LIG d   1      -8.016  93.100 118.470  0.00  0.00     0.382 C 
ATOM     23  O   LIG d   1      -8.391  94.012 117.694  0.00  0.00    -0.241 OA
ATOM     24  O   LIG d   1      -8.726  92.798 119.448  0.00  0.00    -0.241 OA
ENDBRANCH   3  22
TORSDOF 7
ENDMDL
MODEL 5
REMARK VINA RESULT:      -4.7      2.304      4.574
REMARK  7 active torsions:
REMARK  status: ('A' for Active; 'I' for Inactive)
REMARK    1  A    between atoms: C_2  and  C_3 
REMARK    2  A    between atoms: C_3  and  O_6 
REMARK    3  A    between atoms: C_3  and  C_4 
REMARK    4  A    between atoms: C_7  and  O_6 
REMARK    5  A    between atoms: C_9  and  C_10 
REMARK    6  A    between atoms: N_15  and  C_14 
REMARK    7  A    between atoms: N_20  and  C_19 
REMARK       I    between atoms: C_22  and  N_20 
ROOT
ATOM      1  C   LIG d   1      -5.045  92.253 118.254  0.00  0.00     0.161 C 
ATOM      2  C   LIG d   1      -5.252  91.434 117.131  0.00  0.00     0.016 C 
ATOM      3  C   LIG d   1      -6.380  91.545 116.285  0.00  0.00     0.038 C 
ATOM      4  C   LIG d   1      -7.308  92.589 116.420  0.00  0.00     0.028 C 
ATOM      5  C   LIG d   1      -7.409  93.131 117.841  0.00  0.00    -0.047 C 
ATOM      6  C   LIG d   1      -5.989  93.469 118.351  0.00  0.00     0.091 C 
ENDROOT
BRANCH   1   7
ATOM      7  O   LIG d   1      -3.669  92.682 118.298  0.00  0.00    -0.368 OA
BRANCH   7   8
ATOM      8  C   LIG d   1      -2.788  91.910 119.151  0.00  0.00     0.119 C 
BRANCH   8   9
ATOM      9  C   LIG d   1      -2.519  92.748 120.417  0.00  0.00     0.028 C 
ATOM     10  C   LIG d   1      -1.685  94.006 120.122  0.00  0.00     0.006 C 
ENDBRANCH   8   9
BRANCH   8  11
ATOM     11  C   LIG d   1      -1.417  91.709 118.500  0.00  0.00     0.028 C 
ATOM     12  C   LIG d   1      -1.332  90.412 117.679  0.00  0.00     0.006 C 
ENDBRANCH   8  11
ENDBRANCH   7   8
ENDBRANCH   1   7
BRANCH   6  13
ATOM     13  N   LIG d   1      -5.989  93.927 119.765  0.00  0.00    -0.311 N 
ATOM     14  C   LIG d   1      -6.000  95.210 120.120  0.00  0.00     0.210 C 
ATOM     15  C   LIG d   1      -5.977  95.464 121.631  0.00  0.00     0.109 C 
ATOM     16  O   LIG d   1      -6.059  96.163 119.328  0.00  0.00    -0.276 OA
ATOM     17  H   LIG d   1      -5.973  93.219 120.473  0.00  0.00     0.149 HD
ENDBRANCH   6  13
BRANCH   5  18
ATOM     18  N   LIG d   1      -8.306  94.301 117.810  0.00  0.00     0.381 N 
ATOM     19  H   LIG d   1      -8.530  94.530 116.862  0.00  0.00    -0.090 HD
ATOM     20  H   LIG d   1      -7.831  95.086 118.220  0.00  0.00    -0.090 HD
ATOM     21  H   LIG d   1      -9.140  94.105 118.318  0.00  0.00    -0.090 HD
ENDBRANCH   5  18
BRANCH   3  22
ATOM     22  C   LIG d   1      -6.610  90.580 115.317  0.00  0.00     0.382 C 
ATOM     23  O   LIG d   1      -7.477  90.775 114.431  0.00  0.00    -0.241 OA
ATOM     24  O   LIG d   1      -5.993  89.498 115.343  0.00  0.00    -0.241 OA
ENDBRANCH   3  22
TORSDOF 7
ENDMDL
MODEL 6
REMARK VINA RESULT:      -4.7      2.549      6.711
REMARK  7 active torsions:
REMARK  status: ('A' for Active; 'I' for Inactive)
REMARK    1  A    between atoms: C_2  and  C_3 
REMARK    2  A    between atoms: C_3  and  O_6 
REMARK    3  A    between atoms: C_3  and  C_4 
REMARK    4  A    between atoms: C_7  and  O_6 
REMARK    5  A    between atoms: C_9  and  C_10 
REMARK    6  A    between atoms: N_15  and  C_14 
REMARK    7  A    between atoms: N_20  and  C_19 
REMARK       I    between atoms: C_22  and  N_20 
ROOT
ATOM      1  C   LIG d   1      -4.294  92.499 117.516  0.00  0.00     0.161 C 
ATOM      2  C   LIG d   1      -3.741  93.059 118.679  0.00  0.00     0.016 C 
ATOM      3  C   LIG d   1      -4.511  93.437 119.803  0.00  0.00     0.038 C 
ATOM      4  C   LIG d   1      -5.878  93.137 119.900  0.00  0.00     0.028 C 
ATOM      5  C   LIG d   1      -6.572  93.029 118.546  0.00  0.00    -0.047 C 
ATOM      6  C   LIG d   1      -5.768  92.062 117.646  0.00  0.00     0.091 C 
ENDROOT
BRANCH   1   7
ATOM      7  O   LIG d   1      -3.482  91.394 117.072  0.00  0.00    -0.368 OA
BRANCH   7   8
ATOM      8  C   LIG d   1      -2.688  90.737 118.090  0.00  0.00     0.119 C 
BRANCH   8   9
ATOM      9  C   LIG d   1      -1.271  90.540 117.517  0.00  0.00     0.028 C 
ATOM     10  C   LIG d   1      -0.329  91.705 117.866  0.00  0.00     0.006 C 
ENDBRANCH   8   9
BRANCH   8  11
ATOM     11  C   LIG d   1      -3.208  89.326 118.379  0.00  0.00     0.028 C 
ATOM     12  C   LIG d   1      -2.129  88.402 118.966  0.00  0.00     0.006 C 
ENDBRANCH   8  11
ENDBRANCH   7   8
ENDBRANCH   1   7
BRANCH   6  13
ATOM     13  N   LIG d   1      -6.332  91.964 116.274  0.00  0.00    -0.311 N 
ATOM     14  C   LIG d   1      -7.221  91.042 115.911  0.00  0.00     0.210 C 
ATOM     15  C   LIG d   1      -7.657  91.106 114.444  0.00  0.00     0.109 C 
ATOM     16  O   LIG d   1      -7.715  90.197 116.673  0.00  0.00    -0.276 OA
ATOM     17  H   LIG d   1      -6.009  92.631 115.600  0.00  0.00     0.149 HD
ENDBRANCH   6  13
BRANCH   5  18
ATOM     18  N   LIG d   1      -7.955  92.578 118.788  0.00  0.00     0.381 N 
ATOM     19  H   LIG d   1      -8.577  93.361 118.755  0.00  0.00    -0.090 HD
ATOM     20  H   LIG d   1      -8.009  92.172 119.706  0.00  0.00    -0.090 HD
ATOM     21  H   LIG d   1      -8.220  91.905 118.103  0.00  0.00    -0.090 HD
ENDBRANCH   5  18
BRANCH   3  22
ATOM     22  C   LIG d   1      -3.921  94.157 120.830  0.00  0.00     0.382 C 
ATOM     23  O   LIG d   1      -2.729  93.932 121.149  0.00  0.00    -0.241 OA
ATOM     24  O   LIG d   1      -4.579  94.999 121.471  0.00  0.00    -0.241 OA
ENDBRANCH   3  22
TORSDOF 7
ENDMDL
MODEL 7
REMARK VINA RESULT:      -4.7      2.418      4.466
REMARK  7 active torsions:
REMARK  status: ('A' for Active; 'I' for Inactive)
REMARK    1  A    between atoms: C_2  and  C_3 
REMARK    2  A    between atoms: C_3  and  O_6 
REMARK    3  A    between atoms: C_3  and  C_4 
REMARK    4  A    between atoms: C_7  and  O_6 
REMARK    5  A    between atoms: C_9  and  C_10 
REMARK    6  A    between atoms: N_15  and  C_14 
REMARK    7  A    between atoms: N_20  and  C_19 
REMARK       I    between atoms: C_22  and  N_20 
ROOT
ATOM      1  C   LIG d   1      -5.654  93.542 119.201  0.00  0.00     0.161 C 
ATOM      2  C   LIG d   1      -5.711  92.463 118.303  0.00  0.00     0.016 C 
ATOM      3  C   LIG d   1      -6.747  92.293 117.356  0.00  0.00     0.038 C 
ATOM      4  C   LIG d   1      -7.723  93.277 117.139  0.00  0.00     0.028 C 
ATOM      5  C   LIG d   1      -7.993  94.142 118.366  0.00  0.00    -0.047 C 
ATOM      6  C   LIG d   1      -6.650  94.683 118.904  0.00  0.00     0.091 C 
ENDROOT
BRANCH   1   7
ATOM      7  O   LIG d   1      -4.309  94.055 119.264  0.00  0.00    -0.368 OA
BRANCH   7   8
ATOM      8  C   LIG d   1      -3.269  93.179 118.764  0.00  0.00     0.119 C 
BRANCH   8   9
ATOM      9  C   LIG d   1      -2.388  92.776 119.962  0.00  0.00     0.028 C 
ATOM     10  C   LIG d   1      -2.623  91.320 120.400  0.00  0.00     0.006 C 
ENDBRANCH   8   9
BRANCH   8  11
ATOM     11  C   LIG d   1      -2.332  93.918 117.803  0.00  0.00     0.028 C 
ATOM     12  C   LIG d   1      -2.061  95.369 118.233  0.00  0.00     0.006 C 
ENDBRANCH   8  11
ENDBRANCH   7   8
ENDBRANCH   1   7
BRANCH   6  13
ATOM     13  N   LIG d   1      -6.816  95.471 120.153  0.00  0.00    -0.311 N 
ATOM     14  C   LIG d   1      -6.444  96.745 120.272  0.00  0.00     0.210 C 
ATOM     15  C   LIG d   1      -6.687  97.363 121.652  0.00  0.00     0.109 C 
ATOM     16  O   LIG d   1      -5.966  97.430 119.356  0.00  0.00    -0.276 OA
ATOM     17  H   LIG d   1      -7.225  95.002 120.938  0.00  0.00     0.149 HD
ENDBRANCH   6  13
BRANCH   5  18
ATOM     18  N   LIG d   1      -8.927  95.210 117.960  0.00  0.00     0.381 N 
ATOM     19  H   LIG d   1      -9.711  95.228 118.581  0.00  0.00    -0.090 HD
ATOM     20  H   LIG d   1      -9.262  95.014 117.033  0.00  0.00    -0.090 HD
ATOM     21  H   LIG d   1      -8.463  96.091 117.974  0.00  0.00    -0.090 HD
ENDBRANCH   5  18
BRANCH   3  22
ATOM     22  C   LIG d   1      -6.836  91.108 116.641  0.00  0.00     0.382 C 
ATOM     23  O   LIG d   1      -5.844  90.342 116.570  0.00  0.00    -0.241 OA
ATOM     24  O   LIG d   1      -7.881  90.816 116.029  0.00  0.00    -0.241 OA
ENDBRANCH   3  22
TORSDOF 7
ENDMDL
MODEL 8
REMARK VINA RESULT:      -4.6      2.838      4.282
REMARK  7 active torsions:
REMARK  status: ('A' for Active; 'I' for Inactive)
REMARK    1  A    between atoms: C_2  and  C_3 
REMARK    2  A    between atoms: C_3  and  O_6 
REMARK    3  A    between atoms: C_3  and  C_4 
REMARK    4  A    between atoms: C_7  and  O_6 
REMARK    5  A    between atoms: C_9  and  C_10 
REMARK    6  A    between atoms: N_15  and  C_14 
REMARK    7  A    between atoms: N_20  and  C_19 
REMARK       I    between atoms: C_22  and  N_20 
ROOT
ATOM      1  C   LIG d   1      -3.959  92.372 117.817  0.00  0.00     0.161 C 
ATOM      2  C   LIG d   1      -3.163  91.278 117.437  0.00  0.00     0.016 C 
ATOM      3  C   LIG d   1      -1.885  91.020 117.984  0.00  0.00     0.038 C 
ATOM      4  C   LIG d   1      -1.378  91.757 119.065  0.00  0.00     0.028 C 
ATOM      5  C   LIG d   1      -1.927  93.177 119.140  0.00  0.00    -0.047 C 
ATOM      6  C   LIG d   1      -3.470  93.123 119.073  0.00  0.00     0.091 C 
ENDROOT
BRANCH   1   7
ATOM      7  O   LIG d   1      -5.325  91.945 117.989  0.00  0.00    -0.368 OA
BRANCH   7   8
ATOM      8  C   LIG d   1      -6.238  92.281 116.915  0.00  0.00     0.119 C 
BRANCH   8   9
ATOM      9  C   LIG d   1      -7.313  93.219 117.497  0.00  0.00     0.028 C 
ATOM     10  C   LIG d   1      -7.812  92.754 118.876  0.00  0.00     0.006 C 
ENDBRANCH   8   9
BRANCH   8  11
ATOM     11  C   LIG d   1      -6.999  91.046 116.423  0.00  0.00     0.028 C 
ATOM     12  C   LIG d   1      -6.284  90.325 115.270  0.00  0.00     0.006 C 
ENDBRANCH   8  11
ENDBRANCH   7   8
ENDBRANCH   1   7
BRANCH   6  13
ATOM     13  N   LIG d   1      -4.085  94.476 119.056  0.00  0.00    -0.311 N 
ATOM     14  C   LIG d   1      -4.954  94.898 119.973  0.00  0.00     0.210 C 
ATOM     15  C   LIG d   1      -5.482  96.320 119.757  0.00  0.00     0.109 C 
ATOM     16  O   LIG d   1      -5.312  94.242 120.962  0.00  0.00    -0.276 OA
ATOM     17  H   LIG d   1      -3.826  95.085 118.305  0.00  0.00     0.149 HD
ENDBRANCH   6  13
BRANCH   5  18
ATOM     18  N   LIG d   1      -1.423  93.785 120.386  0.00  0.00     0.381 N 
ATOM     19  H   LIG d   1      -1.897  93.387 121.172  0.00  0.00    -0.090 HD
ATOM     20  H   LIG d   1      -1.615  94.771 120.367  0.00  0.00    -0.090 HD
ATOM     21  H   LIG d   1      -0.442  93.631 120.468  0.00  0.00    -0.090 HD
ENDBRANCH   5  18
BRANCH   3  22
ATOM     22  C   LIG d   1      -1.083  90.038 117.422  0.00  0.00     0.382 C 
ATOM     23  O   LIG d   1      -1.216  88.841 117.776  0.00  0.00    -0.241 OA
ATOM     24  O   LIG d   1      -0.198  90.339 116.599  0.00  0.00    -0.241 OA
ENDBRANCH   3  22
TORSDOF 7
ENDMDL
MODEL 9
REMARK VINA RESULT:      -4.6      2.277      5.102
REMARK  7 active torsions:
REMARK  status: ('A' for Active; 'I' for Inactive)
REMARK    1  A    between atoms: C_2  and  C_3 
REMARK    2  A    between atoms: C_3  and  O_6 
REMARK    3  A    between atoms: C_3  and  C_4 
REMARK    4  A    between atoms: C_7  and  O_6 
REMARK    5  A    between atoms: C_9  and  C_10 
REMARK    6  A    between atoms: N_15  and  C_14 
REMARK    7  A    between atoms: N_20  and  C_19 
REMARK       I    between atoms: C_22  and  N_20 
ROOT
ATOM      1  C   LIG d   1      -5.734  93.171 118.777  0.00  0.00     0.161 C 
ATOM      2  C   LIG d   1      -6.972  93.723 118.408  0.00  0.00     0.016 C 
ATOM      3  C   LIG d   1      -7.415  94.996 118.836  0.00  0.00     0.038 C 
ATOM      4  C   LIG d   1      -6.579  95.873 119.543  0.00  0.00     0.028 C 
ATOM      5  C   LIG d   1      -5.511  95.160 120.365  0.00  0.00    -0.047 C 
ATOM      6  C   LIG d   1      -4.762  94.158 119.456  0.00  0.00     0.091 C 
ENDROOT
BRANCH   1   7
ATOM      7  O   LIG d   1      -5.109  92.563 117.629  0.00  0.00    -0.368 OA
BRANCH   7   8
ATOM      8  C   LIG d   1      -5.354  91.146 117.446  0.00  0.00     0.119 C 
BRANCH   8   9
ATOM      9  C   LIG d   1      -4.066  90.399 117.843  0.00  0.00     0.028 C 
ATOM     10  C   LIG d   1      -2.797  91.211 117.532  0.00  0.00     0.006 C 
ENDBRANCH   8   9
BRANCH   8  11
ATOM     11  C   LIG d   1      -5.582  90.806 115.970  0.00  0.00     0.028 C 
ATOM     12  C   LIG d   1      -7.044  90.450 115.660  0.00  0.00     0.006 C 
ENDBRANCH   8  11
ENDBRANCH   7   8
ENDBRANCH   1   7
BRANCH   6  13
ATOM     13  N   LIG d   1      -3.756  93.358 120.202  0.00  0.00    -0.311 N 
ATOM     14  C   LIG d   1      -2.469  93.689 120.281  0.00  0.00     0.210 C 
ATOM     15  C   LIG d   1      -1.599  92.716 121.083  0.00  0.00     0.109 C 
ATOM     16  O   LIG d   1      -1.970  94.714 119.791  0.00  0.00    -0.276 OA
ATOM     17  H   LIG d   1      -4.080  92.527 120.656  0.00  0.00     0.149 HD
ENDBRANCH   6  13
BRANCH   5  18
ATOM     18  N   LIG d   1      -4.627  96.192 120.938  0.00  0.00     0.381 N 
ATOM     19  H   LIG d   1      -4.018  95.779 121.616  0.00  0.00    -0.090 HD
ATOM     20  H   LIG d   1      -5.191  96.883 121.401  0.00  0.00    -0.090 HD
ATOM     21  H   LIG d   1      -4.090  96.621 120.216  0.00  0.00    -0.090 HD
ENDBRANCH   5  18
BRANCH   3  22
ATOM     22  C   LIG d   1      -8.722  95.387 118.590  0.00  0.00     0.382 C 
ATOM     23  O   LIG d   1      -9.100  96.542 118.903  0.00  0.00    -0.241 OA
ATOM     24  O   LIG d   1      -9.540  94.585 118.100  0.00  0.00    -0.241 OA
ENDBRANCH   3  22
TORSDOF 7
ENDMDL
