MODEL 1
REMARK VINA RESULT:      -5.6      0.000      0.000
REMARK  7 active torsions:
REMARK  status: ('A' for Active; 'I' for Inactive)
REMARK    1  A    between atoms: C_2  and  C_3 
REMARK    2  A    between atoms: C_3  and  O_6 
REMARK    3  A    between atoms: C_3  and  C_4 
REMARK    4  A    between atoms: C_7  and  O_6 
REMARK    5  A    between atoms: C_9  and  C_10 
REMARK    6  A    between atoms: N_15  and  C_14 
REMARK    7  A    between atoms: N_20  and  C_19 
REMARK       I    between atoms: C_22  and  N_20 
ROOT
ATOM      1  C   LIG d   1      -5.757  92.586 117.610  0.00  0.00     0.161 C 
ATOM      2  C   LIG d   1      -6.608  91.595 117.091  0.00  0.00     0.016 C 
ATOM      3  C   LIG d   1      -6.159  90.316 116.691  0.00  0.00     0.038 C 
ATOM      4  C   LIG d   1      -4.845  89.884 116.925  0.00  0.00     0.028 C 
ATOM      5  C   LIG d   1      -3.834  91.025 116.983  0.00  0.00    -0.047 C 
ATOM      6  C   LIG d   1      -4.341  92.095 117.977  0.00  0.00     0.091 C 
ENDROOT
BRANCH   1   7
ATOM      7  O   LIG d   1      -6.379  93.216 118.747  0.00  0.00    -0.368 OA
BRANCH   7   8
ATOM      8  C   LIG d   1      -7.035  94.483 118.494  0.00  0.00     0.119 C 
BRANCH   8   9
ATOM      9  C   LIG d   1      -6.355  95.542 119.382  0.00  0.00     0.028 C 
ATOM     10  C   LIG d   1      -5.545  94.914 120.529  0.00  0.00     0.006 C 
ENDBRANCH   8   9
BRANCH   8  11
ATOM     11  C   LIG d   1      -8.498  94.454 118.946  0.00  0.00     0.028 C 
ATOM     12  C   LIG d   1      -8.833  93.220 119.799  0.00  0.00     0.006 C 
ENDBRANCH   8  11
ENDBRANCH   7   8
ENDBRANCH   1   7
BRANCH   6  13
ATOM     13  N   LIG d   1      -3.453  93.285 118.031  0.00  0.00    -0.311 N 
ATOM     14  C   LIG d   1      -2.480  93.433 118.928  0.00  0.00     0.210 C 
ATOM     15  C   LIG d   1      -1.695  94.744 118.820  0.00  0.00     0.109 C 
ATOM     16  O   LIG d   1      -2.172  92.590 119.783  0.00  0.00    -0.276 OA
ATOM     17  H   LIG d   1      -3.613  94.004 117.353  0.00  0.00     0.149 HD
ENDBRANCH   6  13
BRANCH   5  18
ATOM     18  N   LIG d   1      -2.533  90.447 117.370  0.00  0.00     0.381 N 
ATOM     19  H   LIG d   1      -1.794  90.932 116.900  0.00  0.00    -0.090 HD
ATOM     20  H   LIG d   1      -2.508  89.483 117.088  0.00  0.00    -0.090 HD
ATOM     21  H   LIG d   1      -2.409  90.516 118.356  0.00  0.00    -0.090 HD
ENDBRANCH   5  18
BRANCH   3  22
ATOM     22  C   LIG d   1      -7.019  89.466 116.012  0.00  0.00     0.382 C 
ATOM     23  O   LIG d   1      -7.857  88.783 116.648  0.00  0.00    -0.241 OA
ATOM     24  O   LIG d   1      -6.939  89.342 114.775  0.00  0.00    -0.241 OA
ENDBRANCH   3  22
TORSDOF 7
ENDMDL
MODEL 2
REMARK VINA RESULT:      -5.1      2.191      4.537
REMARK  7 active torsions:
REMARK  status: ('A' for Active; 'I' for Inactive)
REMARK    1  A    between atoms: C_2  and  C_3 
REMARK    2  A    between atoms: C_3  and  O_6 
REMARK    3  A    between atoms: C_3  and  C_4 
REMARK    4  A    between atoms: C_7  and  O_6 
REMARK    5  A    between atoms: C_9  and  C_10 
REMARK    6  A    between atoms: N_15  and  C_14 
REMARK    7  A    between atoms: N_20  and  C_19 
REMARK       I    between atoms: C_22  and  N_20 
ROOT
ATOM      1  C   LIG d   1      -3.944  90.707 117.936  0.00  0.00     0.161 C 
ATOM      2  C   LIG d   1      -4.796  89.948 117.117  0.00  0.00     0.016 C 
ATOM      3  C   LIG d   1      -6.018  90.436 116.601  0.00  0.00     0.038 C 
ATOM      4  C   LIG d   1      -6.401  91.778 116.745  0.00  0.00     0.028 C 
ATOM      5  C   LIG d   1      -5.819  92.443 117.988  0.00  0.00    -0.047 C 
ATOM      6  C   LIG d   1      -4.291  92.209 118.013  0.00  0.00     0.091 C 
ENDROOT
BRANCH   1   7
ATOM      7  O   LIG d   1      -2.577  90.530 117.517  0.00  0.00    -0.368 OA
BRANCH   7   8
ATOM      8  C   LIG d   1      -1.703  89.860 118.459  0.00  0.00     0.119 C 
BRANCH   8   9
ATOM      9  C   LIG d   1      -0.289  90.445 118.275  0.00  0.00     0.028 C 
ATOM     10  C   LIG d   1       0.309  90.961 119.594  0.00  0.00     0.006 C 
ENDBRANCH   8   9
BRANCH   8  11
ATOM     11  C   LIG d   1      -1.571  88.370 118.134  0.00  0.00     0.028 C 
ATOM     12  C   LIG d   1      -2.244  87.469 119.182  0.00  0.00     0.006 C 
ENDBRANCH   8  11
ENDBRANCH   7   8
ENDBRANCH   1   7
BRANCH   6  13
ATOM     13  N   LIG d   1      -3.654  92.755 119.240  0.00  0.00    -0.311 N 
ATOM     14  C   LIG d   1      -2.544  93.491 119.224  0.00  0.00     0.210 C 
ATOM     15  C   LIG d   1      -2.044  93.937 120.602  0.00  0.00     0.109 C 
ATOM     16  O   LIG d   1      -1.944  93.844 118.198  0.00  0.00    -0.276 OA
ATOM     17  H   LIG d   1      -4.093  92.543 120.115  0.00  0.00     0.149 HD
ENDBRANCH   6  13
BRANCH   5  18
ATOM     18  N   LIG d   1      -6.184  93.871 117.941  0.00  0.00     0.381 N 
ATOM     19  H   LIG d   1      -5.361  94.434 118.021  0.00  0.00    -0.090 HD
ATOM     20  H   LIG d   1      -6.785  94.079 118.720  0.00  0.00    -0.090 HD
ATOM     21  H   LIG d   1      -6.653  94.076 117.087  0.00  0.00    -0.090 HD
ENDBRANCH   5  18
BRANCH   3  22
ATOM     22  C   LIG d   1      -6.891  89.567 115.964  0.00  0.00     0.382 C 
ATOM     23  O   LIG d   1      -7.724  88.912 116.636  0.00  0.00    -0.241 OA
ATOM     24  O   LIG d   1      -6.827  89.397 114.732  0.00  0.00    -0.241 OA
ENDBRANCH   3  22
TORSDOF 7
ENDMDL
MODEL 3
REMARK VINA RESULT:      -4.9      1.931      4.866
REMARK  7 active torsions:
REMARK  status: ('A' for Active; 'I' for Inactive)
REMARK    1  A    between atoms: C_2  and  C_3 
REMARK    2  A    between atoms: C_3  and  O_6 
REMARK    3  A    between atoms: C_3  and  C_4 
REMARK    4  A    between atoms: C_7  and  O_6 
REMARK    5  A    between atoms: C_9  and  C_10 
REMARK    6  A    between atoms: N_15  and  C_14 
REMARK    7  A    between atoms: N_20  and  C_19 
REMARK       I    between atoms: C_22  and  N_20 
ROOT
ATOM      1  C   LIG d   1      -6.252  92.317 119.066  0.00  0.00     0.161 C 
ATOM      2  C   LIG d   1      -7.505  92.953 119.035  0.00  0.00     0.016 C 
ATOM      3  C   LIG d   1      -7.671  94.351 119.166  0.00  0.00     0.038 C 
ATOM      4  C   LIG d   1      -6.577  95.229 119.185  0.00  0.00     0.028 C 
ATOM      5  C   LIG d   1      -5.300  94.595 119.726  0.00  0.00    -0.047 C 
ATOM      6  C   LIG d   1      -5.041  93.269 118.974  0.00  0.00     0.091 C 
ENDROOT
BRANCH   1   7
ATOM      7  O   LIG d   1      -6.185  91.320 118.027  0.00  0.00    -0.368 OA
BRANCH   7   8
ATOM      8  C   LIG d   1      -5.445  91.688 116.837  0.00  0.00     0.119 C 
BRANCH   8   9
ATOM      9  C   LIG d   1      -6.466  92.161 115.784  0.00  0.00     0.028 C 
ATOM     10  C   LIG d   1      -6.478  91.265 114.535  0.00  0.00     0.006 C 
ENDBRANCH   8   9
BRANCH   8  11
ATOM     11  C   LIG d   1      -4.753  90.472 116.213  0.00  0.00     0.028 C 
ATOM     12  C   LIG d   1      -3.928  89.669 117.231  0.00  0.00     0.006 C 
ENDBRANCH   8  11
ENDBRANCH   7   8
ENDBRANCH   1   7
BRANCH   6  13
ATOM     13  N   LIG d   1      -3.857  92.542 119.500  0.00  0.00    -0.311 N 
ATOM     14  C   LIG d   1      -2.634  92.662 118.984  0.00  0.00     0.210 C 
ATOM     15  C   LIG d   1      -1.559  91.808 119.664  0.00  0.00     0.109 C 
ATOM     16  O   LIG d   1      -2.332  93.419 118.050  0.00  0.00    -0.276 OA
ATOM     17  H   LIG d   1      -4.006  91.929 120.278  0.00  0.00     0.149 HD
ENDBRANCH   6  13
BRANCH   5  18
ATOM     18  N   LIG d   1      -4.211  95.575 119.561  0.00  0.00     0.381 N 
ATOM     19  H   LIG d   1      -4.217  96.220 120.326  0.00  0.00    -0.090 HD
ATOM     20  H   LIG d   1      -4.364  96.092 118.713  0.00  0.00    -0.090 HD
ATOM     21  H   LIG d   1      -3.333  95.106 119.519  0.00  0.00    -0.090 HD
ENDBRANCH   5  18
BRANCH   3  22
ATOM     22  C   LIG d   1      -8.943  94.880 119.319  0.00  0.00     0.382 C 
ATOM     23  O   LIG d   1      -9.915  94.120 119.547  0.00  0.00    -0.241 OA
ATOM     24  O   LIG d   1      -9.139  96.103 119.188  0.00  0.00    -0.241 OA
ENDBRANCH   3  22
TORSDOF 7
ENDMDL
MODEL 4
REMARK VINA RESULT:      -4.6      2.019      4.232
REMARK  7 active torsions:
REMARK  status: ('A' for Active; 'I' for Inactive)
REMARK    1  A    between atoms: C_2  and  C_3 
REMARK    2  A    between atoms: C_3  and  O_6 
REMARK    3  A    between atoms: C_3  and  C_4 
REMARK    4  A    between atoms: C_7  and  O_6 
REMARK    5  A    between atoms: C_9  and  C_10 
REMARK    6  A    between atoms: N_15  and  C_14 
REMARK    7  A    between atoms: N_20  and  C_19 
REMARK       I    between atoms: C_22  and  N_20 
ROOT
ATOM      1  C   LIG d   1      -4.923  91.497 119.230  0.00  0.00     0.161 C 
ATOM      2  C   LIG d   1      -5.162  90.547 118.223  0.00  0.00     0.016 C 
ATOM      3  C   LIG d   1      -6.143  90.709 117.218  0.00  0.00     0.038 C 
ATOM      4  C   LIG d   1      -6.853  91.909 117.061  0.00  0.00     0.028 C 
ATOM      5  C   LIG d   1      -7.003  92.697 118.357  0.00  0.00    -0.047 C 
ATOM      6  C   LIG d   1      -5.611  92.860 119.010  0.00  0.00     0.091 C 
ENDROOT
BRANCH   1   7
ATOM      7  O   LIG d   1      -3.504  91.674 119.408  0.00  0.00    -0.368 OA
BRANCH   7   8
ATOM      8  C   LIG d   1      -2.740  91.937 118.205  0.00  0.00     0.119 C 
BRANCH   8   9
ATOM      9  C   LIG d   1      -1.527  90.986 118.211  0.00  0.00     0.028 C 
ATOM     10  C   LIG d   1      -1.490  90.090 119.460  0.00  0.00     0.006 C 
ENDBRANCH   8   9
BRANCH   8  11
ATOM     11  C   LIG d   1      -2.148  93.349 118.218  0.00  0.00     0.028 C 
ATOM     12  C   LIG d   1      -2.001  93.921 119.638  0.00  0.00     0.006 C 
ENDBRANCH   8  11
ENDBRANCH   7   8
ENDBRANCH   1   7
BRANCH   6  13
ATOM     13  N   LIG d   1      -5.679  93.548 120.326  0.00  0.00    -0.311 N 
ATOM     14  C   LIG d   1      -5.524  94.862 120.475  0.00  0.00     0.210 C 
ATOM     15  C   LIG d   1      -5.611  95.363 121.920  0.00  0.00     0.109 C 
ATOM     16  O   LIG d   1      -5.354  95.664 119.545  0.00  0.00    -0.276 OA
ATOM     17  H   LIG d   1      -5.844  92.976 121.131  0.00  0.00     0.149 HD
ENDBRANCH   6  13
BRANCH   5  18
ATOM     18  N   LIG d   1      -7.640  93.986 118.024  0.00  0.00     0.381 N 
ATOM     19  H   LIG d   1      -7.036  94.740 118.286  0.00  0.00    -0.090 HD
ATOM     20  H   LIG d   1      -8.494  94.070 118.546  0.00  0.00    -0.090 HD
ATOM     21  H   LIG d   1      -7.832  94.029 117.048  0.00  0.00    -0.090 HD
ENDBRANCH   5  18
BRANCH   3  22
ATOM     22  C   LIG d   1      -6.450  89.648 116.379  0.00  0.00     0.382 C 
ATOM     23  O   LIG d   1      -7.545  89.048 116.502  0.00  0.00    -0.241 OA
ATOM     24  O   LIG d   1      -5.627  89.255 115.531  0.00  0.00    -0.241 OA
ENDBRANCH   3  22
TORSDOF 7
ENDMDL
MODEL 5
REMARK VINA RESULT:      -4.4      2.453      5.888
REMARK  7 active torsions:
REMARK  status: ('A' for Active; 'I' for Inactive)
REMARK    1  A    between atoms: C_2  and  C_3 
REMARK    2  A    between atoms: C_3  and  O_6 
REMARK    3  A    between atoms: C_3  and  C_4 
REMARK    4  A    between atoms: C_7  and  O_6 
REMARK    5  A    between atoms: C_9  and  C_10 
REMARK    6  A    between atoms: N_15  and  C_14 
REMARK    7  A    between atoms: N_20  and  C_19 
REMARK       I    between atoms: C_22  and  N_20 
ROOT
ATOM      1  C   LIG d   1      -4.476  91.746 118.556  0.00  0.00     0.161 C 
ATOM      2  C   LIG d   1      -4.773  92.873 119.341  0.00  0.00     0.016 C 
ATOM      3  C   LIG d   1      -5.803  93.790 119.026  0.00  0.00     0.038 C 
ATOM      4  C   LIG d   1      -6.709  93.558 117.981  0.00  0.00     0.028 C 
ATOM      5  C   LIG d   1      -6.133  92.698 116.860  0.00  0.00    -0.047 C 
ATOM      6  C   LIG d   1      -5.525  91.417 117.473  0.00  0.00     0.091 C 
ENDROOT
BRANCH   1   7
ATOM      7  O   LIG d   1      -4.257  90.603 119.406  0.00  0.00    -0.368 OA
BRANCH   7   8
ATOM      8  C   LIG d   1      -2.884  90.158 119.534  0.00  0.00     0.119 C 
BRANCH   8   9
ATOM      9  C   LIG d   1      -2.871  88.631 119.327  0.00  0.00     0.028 C 
ATOM     10  C   LIG d   1      -2.373  88.232 117.928  0.00  0.00     0.006 C 
ENDBRANCH   8   9
BRANCH   8  11
ATOM     11  C   LIG d   1      -2.356  90.379 120.955  0.00  0.00     0.028 C 
ATOM     12  C   LIG d   1      -1.664  91.740 121.128  0.00  0.00     0.006 C 
ENDBRANCH   8  11
ENDBRANCH   7   8
ENDBRANCH   1   7
BRANCH   6  13
ATOM     13  N   LIG d   1      -4.865  90.559 116.454  0.00  0.00    -0.311 N 
ATOM     14  C   LIG d   1      -5.449  89.498 115.900  0.00  0.00     0.210 C 
ATOM     15  C   LIG d   1      -4.586  88.740 114.887  0.00  0.00     0.109 C 
ATOM     16  O   LIG d   1      -6.612  89.131 116.128  0.00  0.00    -0.276 OA
ATOM     17  H   LIG d   1      -3.932  90.803 116.188  0.00  0.00     0.149 HD
ENDBRANCH   6  13
BRANCH   5  18
ATOM     18  N   LIG d   1      -7.224  92.422 115.906  0.00  0.00     0.381 N 
ATOM     19  H   LIG d   1      -7.628  93.282 115.595  0.00  0.00    -0.090 HD
ATOM     20  H   LIG d   1      -7.937  91.890 116.373  0.00  0.00    -0.090 HD
ATOM     21  H   LIG d   1      -6.873  91.910 115.127  0.00  0.00    -0.090 HD
ENDBRANCH   5  18
BRANCH   3  22
ATOM     22  C   LIG d   1      -5.908  94.975 119.739  0.00  0.00     0.382 C 
ATOM     23  O   LIG d   1      -6.961  95.236 120.369  0.00  0.00    -0.241 OA
ATOM     24  O   LIG d   1      -4.980  95.806 119.723  0.00  0.00    -0.241 OA
ENDBRANCH   3  22
TORSDOF 7
ENDMDL
MODEL 6
REMARK VINA RESULT:      -4.4      2.523      6.132
REMARK  7 active torsions:
REMARK  status: ('A' for Active; 'I' for Inactive)
REMARK    1  A    between atoms: C_2  and  C_3 
REMARK    2  A    between atoms: C_3  and  O_6 
REMARK    3  A    between atoms: C_3  and  C_4 
REMARK    4  A    between atoms: C_7  and  O_6 
REMARK    5  A    between atoms: C_9  and  C_10 
REMARK    6  A    between atoms: N_15  and  C_14 
REMARK    7  A    between atoms: N_20  and  C_19 
REMARK       I    between atoms: C_22  and  N_20 
ROOT
ATOM      1  C   LIG d   1      -4.004  92.076 117.478  0.00  0.00     0.161 C 
ATOM      2  C   LIG d   1      -3.489  92.821 118.552  0.00  0.00     0.016 C 
ATOM      3  C   LIG d   1      -4.293  93.355 119.585  0.00  0.00     0.038 C 
ATOM      4  C   LIG d   1      -5.657  93.048 119.697  0.00  0.00     0.028 C 
ATOM      5  C   LIG d   1      -6.314  92.718 118.361  0.00  0.00    -0.047 C 
ATOM      6  C   LIG d   1      -5.474  91.637 117.642  0.00  0.00     0.091 C 
ENDROOT
BRANCH   1   7
ATOM      7  O   LIG d   1      -3.164  90.930 117.231  0.00  0.00    -0.368 OA
BRANCH   7   8
ATOM      8  C   LIG d   1      -2.608  90.284 118.402  0.00  0.00     0.119 C 
BRANCH   8   9
ATOM      9  C   LIG d   1      -1.108  90.054 118.136  0.00  0.00     0.028 C 
ATOM     10  C   LIG d   1      -0.221  91.101 118.830  0.00  0.00     0.006 C 
ENDBRANCH   8   9
BRANCH   8  11
ATOM     11  C   LIG d   1      -3.203  88.886 118.602  0.00  0.00     0.028 C 
ATOM     12  C   LIG d   1      -2.280  87.955 119.405  0.00  0.00     0.006 C 
ENDBRANCH   8  11
ENDBRANCH   7   8
ENDBRANCH   1   7
BRANCH   6  13
ATOM     13  N   LIG d   1      -6.001  91.316 116.290  0.00  0.00    -0.311 N 
ATOM     14  C   LIG d   1      -6.510  90.130 115.964  0.00  0.00     0.210 C 
ATOM     15  C   LIG d   1      -6.978  90.004 114.511  0.00  0.00     0.109 C 
ATOM     16  O   LIG d   1      -6.649  89.180 116.749  0.00  0.00    -0.276 OA
ATOM     17  H   LIG d   1      -5.956  92.040 115.599  0.00  0.00     0.149 HD
ENDBRANCH   6  13
BRANCH   5  18
ATOM     18  N   LIG d   1      -7.697  92.285 118.639  0.00  0.00     0.381 N 
ATOM     19  H   LIG d   1      -8.341  92.877 118.155  0.00  0.00    -0.090 HD
ATOM     20  H   LIG d   1      -7.871  92.368 119.625  0.00  0.00    -0.090 HD
ATOM     21  H   LIG d   1      -7.822  91.339 118.351  0.00  0.00    -0.090 HD
ENDBRANCH   5  18
BRANCH   3  22
ATOM     22  C   LIG d   1      -3.739  94.238 120.500  0.00  0.00     0.382 C 
ATOM     23  O   LIG d   1      -4.484  94.896 121.265  0.00  0.00    -0.241 OA
ATOM     24  O   LIG d   1      -2.507  94.417 120.539  0.00  0.00    -0.241 OA
ENDBRANCH   3  22
TORSDOF 7
ENDMDL
MODEL 7
REMARK VINA RESULT:      -4.3      2.508      4.407
REMARK  7 active torsions:
REMARK  status: ('A' for Active; 'I' for Inactive)
REMARK    1  A    between atoms: C_2  and  C_3 
REMARK    2  A    between atoms: C_3  and  O_6 
REMARK    3  A    between atoms: C_3  and  C_4 
REMARK    4  A    between atoms: C_7  and  O_6 
REMARK    5  A    between atoms: C_9  and  C_10 
REMARK    6  A    between atoms: N_15  and  C_14 
REMARK    7  A    between atoms: N_20  and  C_19 
REMARK       I    between atoms: C_22  and  N_20 
ROOT
ATOM      1  C   LIG d   1      -4.765  91.414 120.096  0.00  0.00     0.161 C 
ATOM      2  C   LIG d   1      -3.664  90.655 119.666  0.00  0.00     0.016 C 
ATOM      3  C   LIG d   1      -3.595  90.033 118.398  0.00  0.00     0.038 C 
ATOM      4  C   LIG d   1      -4.565  90.255 117.409  0.00  0.00     0.028 C 
ATOM      5  C   LIG d   1      -5.938  90.603 117.975  0.00  0.00    -0.047 C 
ATOM      6  C   LIG d   1      -5.784  91.760 118.989  0.00  0.00     0.091 C 
ENDROOT
BRANCH   1   7
ATOM      7  O   LIG d   1      -4.306  92.616 120.747  0.00  0.00    -0.368 OA
BRANCH   7   8
ATOM      8  C   LIG d   1      -4.199  93.793 119.910  0.00  0.00     0.119 C 
BRANCH   8   9
ATOM      9  C   LIG d   1      -2.700  94.111 119.746  0.00  0.00     0.028 C 
ATOM     10  C   LIG d   1      -2.160  93.700 118.367  0.00  0.00     0.006 C 
ENDBRANCH   8   9
BRANCH   8  11
ATOM     11  C   LIG d   1      -4.802  95.022 120.597  0.00  0.00     0.028 C 
ATOM     12  C   LIG d   1      -5.551  95.944 119.622  0.00  0.00     0.006 C 
ENDBRANCH   8  11
ENDBRANCH   7   8
ENDBRANCH   1   7
BRANCH   6  13
ATOM     13  N   LIG d   1      -7.067  92.106 119.653  0.00  0.00    -0.311 N 
ATOM     14  C   LIG d   1      -7.908  93.029 119.187  0.00  0.00     0.210 C 
ATOM     15  C   LIG d   1      -9.165  93.245 120.035  0.00  0.00     0.109 C 
ATOM     16  O   LIG d   1      -7.746  93.666 118.135  0.00  0.00    -0.276 OA
ATOM     17  H   LIG d   1      -7.292  91.615 120.496  0.00  0.00     0.149 HD
ENDBRANCH   6  13
BRANCH   5  18
ATOM     18  N   LIG d   1      -6.815  90.944 116.839  0.00  0.00     0.381 N 
ATOM     19  H   LIG d   1      -6.303  90.870 115.982  0.00  0.00    -0.090 HD
ATOM     20  H   LIG d   1      -7.124  91.894 116.941  0.00  0.00    -0.090 HD
ATOM     21  H   LIG d   1      -7.600  90.331 116.820  0.00  0.00    -0.090 HD
ENDBRANCH   5  18
BRANCH   3  22
ATOM     22  C   LIG d   1      -2.565  89.146 118.123  0.00  0.00     0.382 C 
ATOM     23  O   LIG d   1      -1.381  89.556 118.073  0.00  0.00    -0.241 OA
ATOM     24  O   LIG d   1      -2.811  87.949 117.880  0.00  0.00    -0.241 OA
ENDBRANCH   3  22
TORSDOF 7
ENDMDL
MODEL 8
REMARK VINA RESULT:      -4.1      2.230      3.057
REMARK  7 active torsions:
REMARK  status: ('A' for Active; 'I' for Inactive)
REMARK    1  A    between atoms: C_2  and  C_3 
REMARK    2  A    between atoms: C_3  and  O_6 
REMARK    3  A    between atoms: C_3  and  C_4 
REMARK    4  A    between atoms: C_7  and  O_6 
REMARK    5  A    between atoms: C_9  and  C_10 
REMARK    6  A    between atoms: N_15  and  C_14 
REMARK    7  A    between atoms: N_20  and  C_19 
REMARK       I    between atoms: C_22  and  N_20 
ROOT
ATOM      1  C   LIG d   1      -4.377  93.105 119.238  0.00  0.00     0.161 C 
ATOM      2  C   LIG d   1      -4.552  91.733 118.996  0.00  0.00     0.016 C 
ATOM      3  C   LIG d   1      -3.555  90.910 118.424  0.00  0.00     0.038 C 
ATOM      4  C   LIG d   1      -2.252  91.376 118.193  0.00  0.00     0.028 C 
ATOM      5  C   LIG d   1      -2.180  92.880 117.953  0.00  0.00    -0.047 C 
ATOM      6  C   LIG d   1      -2.924  93.607 119.096  0.00  0.00     0.091 C 
ENDROOT
BRANCH   1   7
ATOM      7  O   LIG d   1      -4.898  93.442 120.539  0.00  0.00    -0.368 OA
BRANCH   7   8
ATOM      8  C   LIG d   1      -6.133  94.199 120.554  0.00  0.00     0.119 C 
BRANCH   8   9
ATOM      9  C   LIG d   1      -7.269  93.225 120.923  0.00  0.00     0.028 C 
ATOM     10  C   LIG d   1      -8.278  93.039 119.777  0.00  0.00     0.006 C 
ENDBRANCH   8   9
BRANCH   8  11
ATOM     11  C   LIG d   1      -6.484  94.721 119.158  0.00  0.00     0.028 C 
ATOM     12  C   LIG d   1      -6.461  96.255 119.072  0.00  0.00     0.006 C 
ENDBRANCH   8  11
ENDBRANCH   7   8
ENDBRANCH   1   7
BRANCH   6  13
ATOM     13  N   LIG d   1      -2.974  95.078 118.895  0.00  0.00    -0.311 N 
ATOM     14  C   LIG d   1      -2.568  95.958 119.809  0.00  0.00     0.210 C 
ATOM     15  C   LIG d   1      -2.725  97.428 119.407  0.00  0.00     0.109 C 
ATOM     16  O   LIG d   1      -2.064  95.660 120.902  0.00  0.00    -0.276 OA
ATOM     17  H   LIG d   1      -3.340  95.407 118.023  0.00  0.00     0.149 HD
ENDBRANCH   6  13
BRANCH   5  18
ATOM     18  N   LIG d   1      -0.754  93.249 117.865  0.00  0.00     0.381 N 
ATOM     19  H   LIG d   1      -0.197  92.426 117.752  0.00  0.00    -0.090 HD
ATOM     20  H   LIG d   1      -0.481  93.699 118.721  0.00  0.00    -0.090 HD
ATOM     21  H   LIG d   1      -0.609  93.866 117.096  0.00  0.00    -0.090 HD
ENDBRANCH   5  18
BRANCH   3  22
ATOM     22  C   LIG d   1      -3.869  89.616 118.039  0.00  0.00     0.382 C 
ATOM     23  O   LIG d   1      -3.417  88.641 118.688  0.00  0.00    -0.241 OA
ATOM     24  O   LIG d   1      -4.563  89.409 117.025  0.00  0.00    -0.241 OA
ENDBRANCH   3  22
TORSDOF 7
ENDMDL
MODEL 9
REMARK VINA RESULT:      -4.1      4.749      8.424
REMARK  7 active torsions:
REMARK  status: ('A' for Active; 'I' for Inactive)
REMARK    1  A    between atoms: C_2  and  C_3 
REMARK    2  A    between atoms: C_3  and  O_6 
REMARK    3  A    between atoms: C_3  and  C_4 
REMARK    4  A    between atoms: C_7  and  O_6 
REMARK    5  A    between atoms: C_9  and  C_10 
REMARK    6  A    between atoms: N_15  and  C_14 
REMARK    7  A    between atoms: N_20  and  C_19 
REMARK       I    between atoms: C_22  and  N_20 
ROOT
ATOM      1  C   LIG d   1       0.777  90.730 116.831  0.00  0.00     0.161 C 
ATOM      2  C   LIG d   1       2.055  91.262 117.068  0.00  0.00     0.016 C 
ATOM      3  C   LIG d   1       2.319  92.245 118.050  0.00  0.00     0.038 C 
ATOM      4  C   LIG d   1       1.342  92.654 118.970  0.00  0.00     0.028 C 
ATOM      5  C   LIG d   1      -0.082  92.516 118.443  0.00  0.00    -0.047 C 
ATOM      6  C   LIG d   1      -0.279  91.083 117.899  0.00  0.00     0.091 C 
ENDROOT
BRANCH   1   7
ATOM      7  O   LIG d   1       0.865  89.301 116.667  0.00  0.00    -0.368 OA
BRANCH   7   8
ATOM      8  C   LIG d   1       0.667  88.509 117.864  0.00  0.00     0.119 C 
BRANCH   8   9
ATOM      9  C   LIG d   1       2.002  87.807 118.181  0.00  0.00     0.028 C 
ATOM     10  C   LIG d   1       2.707  88.413 119.406  0.00  0.00     0.006 C 
ENDBRANCH   8   9
BRANCH   8  11
ATOM     11  C   LIG d   1      -0.338  87.379 117.624  0.00  0.00     0.028 C 
ATOM     12  C   LIG d   1      -1.109  86.987 118.895  0.00  0.00     0.006 C 
ENDBRANCH   8  11
ENDBRANCH   7   8
ENDBRANCH   1   7
BRANCH   6  13
ATOM     13  N   LIG d   1      -1.620  90.889 117.288  0.00  0.00    -0.311 N 
ATOM     14  C   LIG d   1      -2.671  90.423 117.959  0.00  0.00     0.210 C 
ATOM     15  C   LIG d   1      -3.954  90.280 117.134  0.00  0.00     0.109 C 
ATOM     16  O   LIG d   1      -2.672  90.144 119.168  0.00  0.00    -0.276 OA
ATOM     17  H   LIG d   1      -1.717  91.119 116.318  0.00  0.00     0.149 HD
ENDBRANCH   6  13
BRANCH   5  18
ATOM     18  N   LIG d   1      -1.000  92.846 119.550  0.00  0.00     0.381 N 
ATOM     19  H   LIG d   1      -0.554  92.662 120.426  0.00  0.00    -0.090 HD
ATOM     20  H   LIG d   1      -1.815  92.262 119.481  0.00  0.00    -0.090 HD
ATOM     21  H   LIG d   1      -1.265  93.805 119.499  0.00  0.00    -0.090 HD
ENDBRANCH   5  18
BRANCH   3  22
ATOM     22  C   LIG d   1       3.562  92.857 118.093  0.00  0.00     0.382 C 
ATOM     23  O   LIG d   1       4.223  92.861 119.159  0.00  0.00    -0.241 OA
ATOM     24  O   LIG d   1       4.012  93.445 117.090  0.00  0.00    -0.241 OA
ENDBRANCH   3  22
TORSDOF 7
ENDMDL
