MODEL 1
REMARK VINA RESULT:      -5.0      0.000      0.000
REMARK  7 active torsions:
REMARK  status: ('A' for Active; 'I' for Inactive)
REMARK    1  A    between atoms: C_2  and  C_3 
REMARK    2  A    between atoms: C_3  and  O_6 
REMARK    3  A    between atoms: C_3  and  C_4 
REMARK    4  A    between atoms: C_7  and  O_6 
REMARK    5  A    between atoms: C_9  and  C_10 
REMARK    6  A    between atoms: N_15  and  C_14 
REMARK    7  A    between atoms: N_20  and  C_19 
REMARK       I    between atoms: C_22  and  N_20 
ROOT
ATOM      1  C   LIG d   1      -4.048  91.107 117.833  0.00  0.00     0.161 C 
ATOM      2  C   LIG d   1      -4.579  90.381 116.754  0.00  0.00     0.016 C 
ATOM      3  C   LIG d   1      -5.824  90.679 116.153  0.00  0.00     0.038 C 
ATOM      4  C   LIG d   1      -6.557  91.825 116.496  0.00  0.00     0.028 C 
ATOM      5  C   LIG d   1      -6.305  92.302 117.922  0.00  0.00    -0.047 C 
ATOM      6  C   LIG d   1      -4.781  92.428 118.147  0.00  0.00     0.091 C 
ENDROOT
BRANCH   1   7
ATOM      7  O   LIG d   1      -2.645  91.353 117.613  0.00  0.00    -0.368 OA
BRANCH   7   8
ATOM      8  C   LIG d   1      -1.729  90.641 118.482  0.00  0.00     0.119 C 
BRANCH   8   9
ATOM      9  C   LIG d   1      -0.967  89.620 117.615  0.00  0.00     0.028 C 
ATOM     10  C   LIG d   1      -1.572  88.209 117.703  0.00  0.00     0.006 C 
ENDBRANCH   8   9
BRANCH   8  11
ATOM     11  C   LIG d   1      -2.483  89.807 119.522  0.00  0.00     0.028 C 
ATOM     12  C   LIG d   1      -2.205  90.261 120.964  0.00  0.00     0.006 C 
ENDBRANCH   8  11
ENDBRANCH   7   8
ENDBRANCH   1   7
BRANCH   6  13
ATOM     13  N   LIG d   1      -4.444  92.809 119.544  0.00  0.00    -0.311 N 
ATOM     14  C   LIG d   1      -3.618  93.807 119.853  0.00  0.00     0.210 C 
ATOM     15  C   LIG d   1      -3.392  94.018 121.353  0.00  0.00     0.109 C 
ATOM     16  O   LIG d   1      -3.077  94.558 119.028  0.00  0.00    -0.276 OA
ATOM     17  H   LIG d   1      -4.864  92.271 120.277  0.00  0.00     0.149 HD
ENDBRANCH   6  13
BRANCH   5  18
ATOM     18  N   LIG d   1      -7.023  93.578 118.099  0.00  0.00     0.381 N 
ATOM     19  H   LIG d   1      -7.950  93.499 117.730  0.00  0.00    -0.090 HD
ATOM     20  H   LIG d   1      -6.540  94.296 117.589  0.00  0.00    -0.090 HD
ATOM     21  H   LIG d   1      -7.063  93.816 119.066  0.00  0.00    -0.090 HD
ENDBRANCH   5  18
BRANCH   3  22
ATOM     22  C   LIG d   1      -6.366  89.803 115.225  0.00  0.00     0.382 C 
ATOM     23  O   LIG d   1      -7.602  89.590 115.213  0.00  0.00    -0.241 OA
ATOM     24  O   LIG d   1      -5.630  89.190 114.430  0.00  0.00    -0.241 OA
ENDBRANCH   3  22
TORSDOF 7
ENDMDL
MODEL 2
REMARK VINA RESULT:      -4.8      2.214      4.287
REMARK  7 active torsions:
REMARK  status: ('A' for Active; 'I' for Inactive)
REMARK    1  A    between atoms: C_2  and  C_3 
REMARK    2  A    between atoms: C_3  and  O_6 
REMARK    3  A    between atoms: C_3  and  C_4 
REMARK    4  A    between atoms: C_7  and  O_6 
REMARK    5  A    between atoms: C_9  and  C_10 
REMARK    6  A    between atoms: N_15  and  C_14 
REMARK    7  A    between atoms: N_20  and  C_19 
REMARK       I    between atoms: C_22  and  N_20 
ROOT
ATOM      1  C   LIG d   1      -6.169  92.742 117.960  0.00  0.00     0.161 C 
ATOM      2  C   LIG d   1      -6.938  92.079 116.989  0.00  0.00     0.016 C 
ATOM      3  C   LIG d   1      -6.427  91.056 116.157  0.00  0.00     0.038 C 
ATOM      4  C   LIG d   1      -5.145  90.518 116.345  0.00  0.00     0.028 C 
ATOM      5  C   LIG d   1      -4.164  91.499 116.977  0.00  0.00    -0.047 C 
ATOM      6  C   LIG d   1      -4.800  92.093 118.255  0.00  0.00     0.091 C 
ENDROOT
BRANCH   1   7
ATOM      7  O   LIG d   1      -6.930  92.880 119.175  0.00  0.00    -0.368 OA
BRANCH   7   8
ATOM      8  C   LIG d   1      -7.266  94.234 119.567  0.00  0.00     0.119 C 
BRANCH   8   9
ATOM      9  C   LIG d   1      -6.860  95.165 118.408  0.00  0.00     0.028 C 
ATOM     10  C   LIG d   1      -5.966  96.327 118.874  0.00  0.00     0.006 C 
ENDBRANCH   8   9
BRANCH   8  11
ATOM     11  C   LIG d   1      -6.430  94.692 120.766  0.00  0.00     0.028 C 
ATOM     12  C   LIG d   1      -6.184  93.567 121.784  0.00  0.00     0.006 C 
ENDBRANCH   8  11
ENDBRANCH   7   8
ENDBRANCH   1   7
BRANCH   6  13
ATOM     13  N   LIG d   1      -3.940  93.126 118.889  0.00  0.00    -0.311 N 
ATOM     14  C   LIG d   1      -3.089  92.863 119.880  0.00  0.00     0.210 C 
ATOM     15  C   LIG d   1      -2.313  94.076 120.404  0.00  0.00     0.109 C 
ATOM     16  O   LIG d   1      -2.880  91.736 120.352  0.00  0.00    -0.276 OA
ATOM     17  H   LIG d   1      -4.023  94.062 118.546  0.00  0.00     0.149 HD
ENDBRANCH   6  13
BRANCH   5  18
ATOM     18  N   LIG d   1      -2.910  90.768 117.242  0.00  0.00     0.381 N 
ATOM     19  H   LIG d   1      -2.129  91.381 117.125  0.00  0.00    -0.090 HD
ATOM     20  H   LIG d   1      -2.825  90.018 116.579  0.00  0.00    -0.090 HD
ATOM     21  H   LIG d   1      -2.918  90.402 118.169  0.00  0.00    -0.090 HD
ENDBRANCH   5  18
BRANCH   3  22
ATOM     22  C   LIG d   1      -7.189  90.587 115.098  0.00  0.00     0.382 C 
ATOM     23  O   LIG d   1      -6.863  89.527 114.512  0.00  0.00    -0.241 OA
ATOM     24  O   LIG d   1      -8.173  91.235 114.692  0.00  0.00    -0.241 OA
ENDBRANCH   3  22
TORSDOF 7
ENDMDL
MODEL 3
REMARK VINA RESULT:      -4.7      2.376      4.450
REMARK  7 active torsions:
REMARK  status: ('A' for Active; 'I' for Inactive)
REMARK    1  A    between atoms: C_2  and  C_3 
REMARK    2  A    between atoms: C_3  and  O_6 
REMARK    3  A    between atoms: C_3  and  C_4 
REMARK    4  A    between atoms: C_7  and  O_6 
REMARK    5  A    between atoms: C_9  and  C_10 
REMARK    6  A    between atoms: N_15  and  C_14 
REMARK    7  A    between atoms: N_20  and  C_19 
REMARK       I    between atoms: C_22  and  N_20 
ROOT
ATOM      1  C   LIG d   1      -6.080  92.548 118.027  0.00  0.00     0.161 C 
ATOM      2  C   LIG d   1      -6.844  91.938 117.017  0.00  0.00     0.016 C 
ATOM      3  C   LIG d   1      -6.330  90.958 116.137  0.00  0.00     0.038 C 
ATOM      4  C   LIG d   1      -5.050  90.408 116.306  0.00  0.00     0.028 C 
ATOM      5  C   LIG d   1      -4.071  91.352 116.996  0.00  0.00    -0.047 C 
ATOM      6  C   LIG d   1      -4.716  91.880 118.298  0.00  0.00     0.091 C 
ENDROOT
BRANCH   1   7
ATOM      7  O   LIG d   1      -6.851  92.625 119.242  0.00  0.00    -0.368 OA
BRANCH   7   8
ATOM      8  C   LIG d   1      -6.778  93.878 119.965  0.00  0.00     0.119 C 
BRANCH   8   9
ATOM      9  C   LIG d   1      -7.738  93.777 121.166  0.00  0.00     0.028 C 
ATOM     10  C   LIG d   1      -7.791  92.358 121.757  0.00  0.00     0.006 C 
ENDBRANCH   8   9
BRANCH   8  11
ATOM     11  C   LIG d   1      -7.308  95.040 119.120  0.00  0.00     0.028 C 
ATOM     12  C   LIG d   1      -6.253  96.132 118.880  0.00  0.00     0.006 C 
ENDBRANCH   8  11
ENDBRANCH   7   8
ENDBRANCH   1   7
BRANCH   6  13
ATOM     13  N   LIG d   1      -3.858  92.876 118.992  0.00  0.00    -0.311 N 
ATOM     14  C   LIG d   1      -3.006  92.558 119.964  0.00  0.00     0.210 C 
ATOM     15  C   LIG d   1      -2.232  93.739 120.558  0.00  0.00     0.109 C 
ATOM     16  O   LIG d   1      -2.793  91.405 120.369  0.00  0.00    -0.276 OA
ATOM     17  H   LIG d   1      -3.944  93.831 118.704  0.00  0.00     0.149 HD
ENDBRANCH   6  13
BRANCH   5  18
ATOM     18  N   LIG d   1      -2.822  90.604 117.231  0.00  0.00     0.381 N 
ATOM     19  H   LIG d   1      -2.178  91.173 117.744  0.00  0.00    -0.090 HD
ATOM     20  H   LIG d   1      -2.406  90.378 116.345  0.00  0.00    -0.090 HD
ATOM     21  H   LIG d   1      -3.015  89.768 117.739  0.00  0.00    -0.090 HD
ENDBRANCH   5  18
BRANCH   3  22
ATOM     22  C   LIG d   1      -7.085  90.548 115.049  0.00  0.00     0.382 C 
ATOM     23  O   LIG d   1      -6.775  89.501 114.430  0.00  0.00    -0.241 OA
ATOM     24  O   LIG d   1      -8.045  91.234 114.651  0.00  0.00    -0.241 OA
ENDBRANCH   3  22
TORSDOF 7
ENDMDL
MODEL 4
REMARK VINA RESULT:      -4.7      1.605      4.366
REMARK  7 active torsions:
REMARK  status: ('A' for Active; 'I' for Inactive)
REMARK    1  A    between atoms: C_2  and  C_3 
REMARK    2  A    between atoms: C_3  and  O_6 
REMARK    3  A    between atoms: C_3  and  C_4 
REMARK    4  A    between atoms: C_7  and  O_6 
REMARK    5  A    between atoms: C_9  and  C_10 
REMARK    6  A    between atoms: N_15  and  C_14 
REMARK    7  A    between atoms: N_20  and  C_19 
REMARK       I    between atoms: C_22  and  N_20 
ROOT
ATOM      1  C   LIG d   1      -4.130  90.969 117.182  0.00  0.00     0.161 C 
ATOM      2  C   LIG d   1      -3.143  91.886 117.581  0.00  0.00     0.016 C 
ATOM      3  C   LIG d   1      -3.386  92.946 118.485  0.00  0.00     0.038 C 
ATOM      4  C   LIG d   1      -4.602  93.070 119.173  0.00  0.00     0.028 C 
ATOM      5  C   LIG d   1      -5.786  92.468 118.423  0.00  0.00    -0.047 C 
ATOM      6  C   LIG d   1      -5.433  91.022 118.007  0.00  0.00     0.091 C 
ENDROOT
BRANCH   1   7
ATOM      7  O   LIG d   1      -3.586  89.634 117.188  0.00  0.00    -0.368 OA
BRANCH   7   8
ATOM      8  C   LIG d   1      -2.378  89.441 117.964  0.00  0.00     0.119 C 
BRANCH   8   9
ATOM      9  C   LIG d   1      -1.546  88.351 117.262  0.00  0.00     0.028 C 
ATOM     10  C   LIG d   1      -0.407  87.820 118.148  0.00  0.00     0.006 C 
ENDBRANCH   8   9
BRANCH   8  11
ATOM     11  C   LIG d   1      -2.693  88.878 119.354  0.00  0.00     0.028 C 
ATOM     12  C   LIG d   1      -2.414  89.884 120.481  0.00  0.00     0.006 C 
ENDBRANCH   8  11
ENDBRANCH   7   8
ENDBRANCH   1   7
BRANCH   6  13
ATOM     13  N   LIG d   1      -6.504  90.388 117.195  0.00  0.00    -0.311 N 
ATOM     14  C   LIG d   1      -6.893  90.847 116.007  0.00  0.00     0.210 C 
ATOM     15  C   LIG d   1      -8.028  90.057 115.348  0.00  0.00     0.109 C 
ATOM     16  O   LIG d   1      -6.383  91.814 115.421  0.00  0.00    -0.276 OA
ATOM     17  H   LIG d   1      -6.951  89.579 117.581  0.00  0.00     0.149 HD
ENDBRANCH   6  13
BRANCH   5  18
ATOM     18  N   LIG d   1      -6.961  92.544 119.312  0.00  0.00     0.381 N 
ATOM     19  H   LIG d   1      -6.671  92.799 120.235  0.00  0.00    -0.090 HD
ATOM     20  H   LIG d   1      -7.393  91.638 119.356  0.00  0.00    -0.090 HD
ATOM     21  H   LIG d   1      -7.610  93.213 118.962  0.00  0.00    -0.090 HD
ENDBRANCH   5  18
BRANCH   3  22
ATOM     22  C   LIG d   1      -2.417  93.920 118.678  0.00  0.00     0.382 C 
ATOM     23  O   LIG d   1      -1.720  94.311 117.711  0.00  0.00    -0.241 OA
ATOM     24  O   LIG d   1      -2.202  94.379 119.816  0.00  0.00    -0.241 OA
ENDBRANCH   3  22
TORSDOF 7
ENDMDL
MODEL 5
REMARK VINA RESULT:      -4.4      2.193      5.012
REMARK  7 active torsions:
REMARK  status: ('A' for Active; 'I' for Inactive)
REMARK    1  A    between atoms: C_2  and  C_3 
REMARK    2  A    between atoms: C_3  and  O_6 
REMARK    3  A    between atoms: C_3  and  C_4 
REMARK    4  A    between atoms: C_7  and  O_6 
REMARK    5  A    between atoms: C_9  and  C_10 
REMARK    6  A    between atoms: N_15  and  C_14 
REMARK    7  A    between atoms: N_20  and  C_19 
REMARK       I    between atoms: C_22  and  N_20 
ROOT
ATOM      1  C   LIG d   1      -4.224  90.904 117.768  0.00  0.00     0.161 C 
ATOM      2  C   LIG d   1      -3.303  89.848 117.862  0.00  0.00     0.016 C 
ATOM      3  C   LIG d   1      -2.549  89.574 119.026  0.00  0.00     0.038 C 
ATOM      4  C   LIG d   1      -2.778  90.250 120.234  0.00  0.00     0.028 C 
ATOM      5  C   LIG d   1      -3.338  91.656 120.044  0.00  0.00    -0.047 C 
ATOM      6  C   LIG d   1      -4.568  91.584 119.110  0.00  0.00     0.091 C 
ENDROOT
BRANCH   1   7
ATOM      7  O   LIG d   1      -5.425  90.449 117.114  0.00  0.00    -0.368 OA
BRANCH   7   8
ATOM      8  C   LIG d   1      -5.674  90.986 115.792  0.00  0.00     0.119 C 
BRANCH   8   9
ATOM      9  C   LIG d   1      -7.025  91.727 115.841  0.00  0.00     0.028 C 
ATOM     10  C   LIG d   1      -8.011  91.220 114.775  0.00  0.00     0.006 C 
ENDBRANCH   8   9
BRANCH   8  11
ATOM     11  C   LIG d   1      -5.862  89.867 114.763  0.00  0.00     0.028 C 
ATOM     12  C   LIG d   1      -4.656  88.918 114.687  0.00  0.00     0.006 C 
ENDBRANCH   8  11
ENDBRANCH   7   8
ENDBRANCH   1   7
BRANCH   6  13
ATOM     13  N   LIG d   1      -5.126  92.927 118.803  0.00  0.00    -0.311 N 
ATOM     14  C   LIG d   1      -6.388  93.271 119.056  0.00  0.00     0.210 C 
ATOM     15  C   LIG d   1      -6.764  94.697 118.644  0.00  0.00     0.109 C 
ATOM     16  O   LIG d   1      -7.222  92.541 119.612  0.00  0.00    -0.276 OA
ATOM     17  H   LIG d   1      -4.509  93.592 118.380  0.00  0.00     0.149 HD
ENDBRANCH   6  13
BRANCH   5  18
ATOM     18  N   LIG d   1      -3.658  92.193 121.380  0.00  0.00     0.381 N 
ATOM     19  H   LIG d   1      -4.546  91.845 121.681  0.00  0.00    -0.090 HD
ATOM     20  H   LIG d   1      -3.714  93.195 121.323  0.00  0.00    -0.090 HD
ATOM     21  H   LIG d   1      -2.951  91.929 122.031  0.00  0.00    -0.090 HD
ENDBRANCH   5  18
BRANCH   3  22
ATOM     22  C   LIG d   1      -1.526  88.639 118.979  0.00  0.00     0.382 C 
ATOM     23  O   LIG d   1      -0.683  88.585 119.907  0.00  0.00    -0.241 OA
ATOM     24  O   LIG d   1      -1.409  87.880 117.998  0.00  0.00    -0.241 OA
ENDBRANCH   3  22
TORSDOF 7
ENDMDL
MODEL 6
REMARK VINA RESULT:      -4.3      1.600      4.889
REMARK  7 active torsions:
REMARK  status: ('A' for Active; 'I' for Inactive)
REMARK    1  A    between atoms: C_2  and  C_3 
REMARK    2  A    between atoms: C_3  and  O_6 
REMARK    3  A    between atoms: C_3  and  C_4 
REMARK    4  A    between atoms: C_7  and  O_6 
REMARK    5  A    between atoms: C_9  and  C_10 
REMARK    6  A    between atoms: N_15  and  C_14 
REMARK    7  A    between atoms: N_20  and  C_19 
REMARK       I    between atoms: C_22  and  N_20 
ROOT
ATOM      1  C   LIG d   1      -3.150  92.153 117.832  0.00  0.00     0.161 C 
ATOM      2  C   LIG d   1      -2.756  92.722 119.054  0.00  0.00     0.016 C 
ATOM      3  C   LIG d   1      -3.659  93.019 120.101  0.00  0.00     0.038 C 
ATOM      4  C   LIG d   1      -5.004  92.624 120.054  0.00  0.00     0.028 C 
ATOM      5  C   LIG d   1      -5.550  92.500 118.635  0.00  0.00    -0.047 C 
ATOM      6  C   LIG d   1      -4.595  91.613 117.806  0.00  0.00     0.091 C 
ENDROOT
BRANCH   1   7
ATOM      7  O   LIG d   1      -2.221  91.117 117.454  0.00  0.00    -0.368 OA
BRANCH   7   8
ATOM      8  C   LIG d   1      -2.287  89.890 118.222  0.00  0.00     0.119 C 
BRANCH   8   9
ATOM      9  C   LIG d   1      -1.025  89.828 119.105  0.00  0.00     0.028 C 
ATOM     10  C   LIG d   1      -1.360  89.663 120.597  0.00  0.00     0.006 C 
ENDBRANCH   8   9
BRANCH   8  11
ATOM     11  C   LIG d   1      -2.209  88.659 117.314  0.00  0.00     0.028 C 
ATOM     12  C   LIG d   1      -1.011  87.753 117.642  0.00  0.00     0.006 C 
ENDBRANCH   8  11
ENDBRANCH   7   8
ENDBRANCH   1   7
BRANCH   6  13
ATOM     13  N   LIG d   1      -5.010  91.509 116.383  0.00  0.00    -0.311 N 
ATOM     14  C   LIG d   1      -5.881  90.605 115.937  0.00  0.00     0.210 C 
ATOM     15  C   LIG d   1      -6.155  90.658 114.431  0.00  0.00     0.109 C 
ATOM     16  O   LIG d   1      -6.478  89.785 116.652  0.00  0.00    -0.276 OA
ATOM     17  H   LIG d   1      -4.599  92.156 115.739  0.00  0.00     0.149 HD
ENDBRANCH   6  13
BRANCH   5  18
ATOM     18  N   LIG d   1      -6.915  91.950 118.730  0.00  0.00     0.381 N 
ATOM     19  H   LIG d   1      -7.244  91.701 117.818  0.00  0.00    -0.090 HD
ATOM     20  H   LIG d   1      -7.525  92.656 119.103  0.00  0.00    -0.090 HD
ATOM     21  H   LIG d   1      -6.920  91.149 119.322  0.00  0.00    -0.090 HD
ENDBRANCH   5  18
BRANCH   3  22
ATOM     22  C   LIG d   1      -3.226  93.755 121.194  0.00  0.00     0.382 C 
ATOM     23  O   LIG d   1      -3.717  94.887 121.422  0.00  0.00    -0.241 OA
ATOM     24  O   LIG d   1      -2.320  93.319 121.930  0.00  0.00    -0.241 OA
ENDBRANCH   3  22
TORSDOF 7
ENDMDL
MODEL 7
REMARK VINA RESULT:      -4.2      2.936      4.798
REMARK  7 active torsions:
REMARK  status: ('A' for Active; 'I' for Inactive)
REMARK    1  A    between atoms: C_2  and  C_3 
REMARK    2  A    between atoms: C_3  and  O_6 
REMARK    3  A    between atoms: C_3  and  C_4 
REMARK    4  A    between atoms: C_7  and  O_6 
REMARK    5  A    between atoms: C_9  and  C_10 
REMARK    6  A    between atoms: N_15  and  C_14 
REMARK    7  A    between atoms: N_20  and  C_19 
REMARK       I    between atoms: C_22  and  N_20 
ROOT
ATOM      1  C   LIG d   1      -2.682  92.775 118.621  0.00  0.00     0.161 C 
ATOM      2  C   LIG d   1      -4.045  92.959 118.904  0.00  0.00     0.016 C 
ATOM      3  C   LIG d   1      -5.057  92.069 118.475  0.00  0.00     0.038 C 
ATOM      4  C   LIG d   1      -4.755  90.846 117.859  0.00  0.00     0.028 C 
ATOM      5  C   LIG d   1      -3.429  90.857 117.106  0.00  0.00    -0.047 C 
ATOM      6  C   LIG d   1      -2.323  91.388 118.046  0.00  0.00     0.091 C 
ENDROOT
BRANCH   1   7
ATOM      7  O   LIG d   1      -1.897  93.047 119.799  0.00  0.00    -0.368 OA
BRANCH   7   8
ATOM      8  C   LIG d   1      -1.237  94.336 119.841  0.00  0.00     0.119 C 
BRANCH   8   9
ATOM      9  C   LIG d   1      -1.076  94.821 118.387  0.00  0.00     0.028 C 
ATOM     10  C   LIG d   1      -1.345  96.328 118.238  0.00  0.00     0.006 C 
ENDBRANCH   8   9
BRANCH   8  11
ATOM     11  C   LIG d   1       0.188  94.215 120.388  0.00  0.00     0.028 C 
ATOM     12  C   LIG d   1       1.169  93.616 119.368  0.00  0.00     0.006 C 
ENDBRANCH   8  11
ENDBRANCH   7   8
ENDBRANCH   1   7
BRANCH   6  13
ATOM     13  N   LIG d   1      -1.009  91.511 117.362  0.00  0.00    -0.311 N 
ATOM     14  C   LIG d   1      -0.058  90.581 117.428  0.00  0.00     0.210 C 
ATOM     15  C   LIG d   1       1.228  90.916 116.667  0.00  0.00     0.109 C 
ATOM     16  O   LIG d   1      -0.170  89.496 118.019  0.00  0.00    -0.276 OA
ATOM     17  H   LIG d   1      -0.846  92.347 116.835  0.00  0.00     0.149 HD
ENDBRANCH   6  13
BRANCH   5  18
ATOM     18  N   LIG d   1      -3.174  89.484 116.631  0.00  0.00     0.381 N 
ATOM     19  H   LIG d   1      -3.359  89.425 115.650  0.00  0.00    -0.090 HD
ATOM     20  H   LIG d   1      -3.796  88.855 117.107  0.00  0.00    -0.090 HD
ATOM     21  H   LIG d   1      -2.228  89.230 116.814  0.00  0.00    -0.090 HD
ENDBRANCH   5  18
BRANCH   3  22
ATOM     22  C   LIG d   1      -6.390  92.420 118.626  0.00  0.00     0.382 C 
ATOM     23  O   LIG d   1      -7.001  92.120 119.680  0.00  0.00    -0.241 OA
ATOM     24  O   LIG d   1      -7.001  92.992 117.704  0.00  0.00    -0.241 OA
ENDBRANCH   3  22
TORSDOF 7
ENDMDL
MODEL 8
REMARK VINA RESULT:      -4.1      1.753      2.398
REMARK  7 active torsions:
REMARK  status: ('A' for Active; 'I' for Inactive)
REMARK    1  A    between atoms: C_2  and  C_3 
REMARK    2  A    between atoms: C_3  and  O_6 
REMARK    3  A    between atoms: C_3  and  C_4 
REMARK    4  A    between atoms: C_7  and  O_6 
REMARK    5  A    between atoms: C_9  and  C_10 
REMARK    6  A    between atoms: N_15  and  C_14 
REMARK    7  A    between atoms: N_20  and  C_19 
REMARK       I    between atoms: C_22  and  N_20 
ROOT
ATOM      1  C   LIG d   1      -2.647  90.041 117.604  0.00  0.00     0.161 C 
ATOM      2  C   LIG d   1      -3.587  89.613 116.652  0.00  0.00     0.016 C 
ATOM      3  C   LIG d   1      -4.775  90.321 116.358  0.00  0.00     0.038 C 
ATOM      4  C   LIG d   1      -5.032  91.593 116.892  0.00  0.00     0.028 C 
ATOM      5  C   LIG d   1      -4.356  91.832 118.238  0.00  0.00    -0.047 C 
ATOM      6  C   LIG d   1      -2.855  91.482 118.115  0.00  0.00     0.091 C 
ENDROOT
BRANCH   1   7
ATOM      7  O   LIG d   1      -1.314  89.884 117.079  0.00  0.00    -0.368 OA
BRANCH   7   8
ATOM      8  C   LIG d   1      -0.523  88.817 117.657  0.00  0.00     0.119 C 
BRANCH   8   9
ATOM      9  C   LIG d   1      -1.294  88.278 118.877  0.00  0.00     0.028 C 
ATOM     10  C   LIG d   1      -0.477  88.372 120.177  0.00  0.00     0.006 C 
ENDBRANCH   8   9
BRANCH   8  11
ATOM     11  C   LIG d   1       0.802  89.344 118.215  0.00  0.00     0.028 C 
ATOM     12  C   LIG d   1       1.265  90.639 117.528  0.00  0.00     0.006 C 
ENDBRANCH   8  11
ENDBRANCH   7   8
ENDBRANCH   1   7
BRANCH   6  13
ATOM     13  N   LIG d   1      -2.136  91.608 119.410  0.00  0.00    -0.311 N 
ATOM     14  C   LIG d   1      -1.146  92.475 119.617  0.00  0.00     0.210 C 
ATOM     15  C   LIG d   1      -0.528  92.427 121.018  0.00  0.00     0.109 C 
ATOM     16  O   LIG d   1      -0.744  93.301 118.785  0.00  0.00    -0.276 OA
ATOM     17  H   LIG d   1      -2.419  90.997 120.150  0.00  0.00     0.149 HD
ENDBRANCH   6  13
BRANCH   5  18
ATOM     18  N   LIG d   1      -4.593  93.239 118.612  0.00  0.00     0.381 N 
ATOM     19  H   LIG d   1      -4.509  93.345 119.603  0.00  0.00    -0.090 HD
ATOM     20  H   LIG d   1      -5.527  93.493 118.345  0.00  0.00    -0.090 HD
ATOM     21  H   LIG d   1      -3.936  93.830 118.151  0.00  0.00    -0.090 HD
ENDBRANCH   5  18
BRANCH   3  22
ATOM     22  C   LIG d   1      -5.741  89.738 115.552  0.00  0.00     0.382 C 
ATOM     23  O   LIG d   1      -6.919  89.622 115.969  0.00  0.00    -0.241 OA
ATOM     24  O   LIG d   1      -5.440  89.287 114.431  0.00  0.00    -0.241 OA
ENDBRANCH   3  22
TORSDOF 7
ENDMDL
MODEL 9
REMARK VINA RESULT:      -4.1      2.561      5.782
REMARK  7 active torsions:
REMARK  status: ('A' for Active; 'I' for Inactive)
REMARK    1  A    between atoms: C_2  and  C_3 
REMARK    2  A    between atoms: C_3  and  O_6 
REMARK    3  A    between atoms: C_3  and  C_4 
REMARK    4  A    between atoms: C_7  and  O_6 
REMARK    5  A    between atoms: C_9  and  C_10 
REMARK    6  A    between atoms: N_15  and  C_14 
REMARK    7  A    between atoms: N_20  and  C_19 
REMARK       I    between atoms: C_22  and  N_20 
ROOT
ATOM      1  C   LIG d   1      -3.521  90.778 118.452  0.00  0.00     0.161 C 
ATOM      2  C   LIG d   1      -3.811  92.074 118.911  0.00  0.00     0.016 C 
ATOM      3  C   LIG d   1      -2.944  93.176 118.727  0.00  0.00     0.038 C 
ATOM      4  C   LIG d   1      -1.791  93.088 117.933  0.00  0.00     0.028 C 
ATOM      5  C   LIG d   1      -1.202  91.682 117.874  0.00  0.00    -0.047 C 
ATOM      6  C   LIG d   1      -2.320  90.686 117.488  0.00  0.00     0.091 C 
ENDROOT
BRANCH   1   7
ATOM      7  O   LIG d   1      -4.695  90.201 117.846  0.00  0.00    -0.368 OA
BRANCH   7   8
ATOM      8  C   LIG d   1      -5.159  90.832 116.627  0.00  0.00     0.119 C 
BRANCH   8   9
ATOM      9  C   LIG d   1      -6.644  91.192 116.828  0.00  0.00     0.028 C 
ATOM     10  C   LIG d   1      -6.840  92.657 117.253  0.00  0.00     0.006 C 
ENDBRANCH   8   9
BRANCH   8  11
ATOM     11  C   LIG d   1      -5.135  89.854 115.449  0.00  0.00     0.028 C 
ATOM     12  C   LIG d   1      -6.302  90.069 114.472  0.00  0.00     0.006 C 
ENDBRANCH   8  11
ENDBRANCH   7   8
ENDBRANCH   1   7
BRANCH   6  13
ATOM     13  N   LIG d   1      -1.849  89.277 117.489  0.00  0.00    -0.311 N 
ATOM     14  C   LIG d   1      -1.321  88.681 118.557  0.00  0.00     0.210 C 
ATOM     15  C   LIG d   1      -0.882  87.230 118.337  0.00  0.00     0.109 C 
ATOM     16  O   LIG d   1      -1.206  89.206 119.675  0.00  0.00    -0.276 OA
ATOM     17  H   LIG d   1      -1.934  88.767 116.632  0.00  0.00     0.149 HD
ENDBRANCH   6  13
BRANCH   5  18
ATOM     18  N   LIG d   1      -0.089  91.706 116.906  0.00  0.00     0.381 N 
ATOM     19  H   LIG d   1       0.668  91.149 117.247  0.00  0.00    -0.090 HD
ATOM     20  H   LIG d   1       0.235  92.652 116.806  0.00  0.00    -0.090 HD
ATOM     21  H   LIG d   1      -0.396  91.357 116.024  0.00  0.00    -0.090 HD
ENDBRANCH   5  18
BRANCH   3  22
ATOM     22  C   LIG d   1      -3.209  94.373 119.374  0.00  0.00     0.382 C 
ATOM     23  O   LIG d   1      -2.673  95.434 118.973  0.00  0.00    -0.241 OA
ATOM     24  O   LIG d   1      -3.942  94.399 120.381  0.00  0.00    -0.241 OA
ENDBRANCH   3  22
TORSDOF 7
ENDMDL
