MODEL 1
REMARK VINA RESULT:      -5.5      0.000      0.000
REMARK  7 active torsions:
REMARK  status: ('A' for Active; 'I' for Inactive)
REMARK    1  A    between atoms: C_2  and  C_3 
REMARK    2  A    between atoms: C_3  and  O_6 
REMARK    3  A    between atoms: C_3  and  C_4 
REMARK    4  A    between atoms: C_7  and  O_6 
REMARK    5  A    between atoms: C_9  and  C_10 
REMARK    6  A    between atoms: N_15  and  C_14 
REMARK    7  A    between atoms: N_20  and  C_19 
REMARK       I    between atoms: C_22  and  N_20 
ROOT
ATOM      1  C   LIG d   1      -4.617  91.693 118.399  0.00  0.00     0.161 C 
ATOM      2  C   LIG d   1      -5.897  92.267 118.479  0.00  0.00     0.016 C 
ATOM      3  C   LIG d   1      -6.907  92.055 117.512  0.00  0.00     0.038 C 
ATOM      4  C   LIG d   1      -6.754  91.125 116.472  0.00  0.00     0.028 C 
ATOM      5  C   LIG d   1      -5.301  90.903 116.067  0.00  0.00    -0.047 C 
ATOM      6  C   LIG d   1      -4.469  90.588 117.332  0.00  0.00     0.091 C 
ENDROOT
BRANCH   1   7
ATOM      7  O   LIG d   1      -4.225  91.194 119.693  0.00  0.00    -0.368 OA
BRANCH   7   8
ATOM      8  C   LIG d   1      -3.148  91.906 120.351  0.00  0.00     0.119 C 
BRANCH   8   9
ATOM      9  C   LIG d   1      -3.754  92.652 121.556  0.00  0.00     0.028 C 
ATOM     10  C   LIG d   1      -4.061  94.125 121.240  0.00  0.00     0.006 C 
ENDBRANCH   8   9
BRANCH   8  11
ATOM     11  C   LIG d   1      -2.569  92.999 119.447  0.00  0.00     0.028 C 
ATOM     12  C   LIG d   1      -1.072  92.803 119.159  0.00  0.00     0.006 C 
ENDBRANCH   8  11
ENDBRANCH   7   8
ENDBRANCH   1   7
BRANCH   6  13
ATOM     13  N   LIG d   1      -3.021  90.441 117.035  0.00  0.00    -0.311 N 
ATOM     14  C   LIG d   1      -2.258  89.485 117.564  0.00  0.00     0.210 C 
ATOM     15  C   LIG d   1      -0.786  89.525 117.142  0.00  0.00     0.109 C 
ATOM     16  O   LIG d   1      -2.667  88.589 118.318  0.00  0.00    -0.276 OA
ATOM     17  H   LIG d   1      -2.613  91.107 116.409  0.00  0.00     0.149 HD
ENDBRANCH   6  13
BRANCH   5  18
ATOM     18  N   LIG d   1      -5.277  89.814 115.073  0.00  0.00     0.381 N 
ATOM     19  H   LIG d   1      -4.564  89.153 115.312  0.00  0.00    -0.090 HD
ATOM     20  H   LIG d   1      -5.058  90.201 114.172  0.00  0.00    -0.090 HD
ATOM     21  H   LIG d   1      -6.163  89.361 115.042  0.00  0.00    -0.090 HD
ENDBRANCH   5  18
BRANCH   3  22
ATOM     22  C   LIG d   1      -8.071  92.806 117.558  0.00  0.00     0.382 C 
ATOM     23  O   LIG d   1      -8.480  93.262 118.653  0.00  0.00    -0.241 OA
ATOM     24  O   LIG d   1      -8.741  92.997 116.525  0.00  0.00    -0.241 OA
ENDBRANCH   3  22
TORSDOF 7
ENDMDL
MODEL 2
REMARK VINA RESULT:      -5.1      2.504      4.263
REMARK  7 active torsions:
REMARK  status: ('A' for Active; 'I' for Inactive)
REMARK    1  A    between atoms: C_2  and  C_3 
REMARK    2  A    between atoms: C_3  and  O_6 
REMARK    3  A    between atoms: C_3  and  C_4 
REMARK    4  A    between atoms: C_7  and  O_6 
REMARK    5  A    between atoms: C_9  and  C_10 
REMARK    6  A    between atoms: N_15  and  C_14 
REMARK    7  A    between atoms: N_20  and  C_19 
REMARK       I    between atoms: C_22  and  N_20 
ROOT
ATOM      1  C   LIG d   1      -4.963  91.470 118.429  0.00  0.00     0.161 C 
ATOM      2  C   LIG d   1      -4.964  90.752 117.221  0.00  0.00     0.016 C 
ATOM      3  C   LIG d   1      -5.988  90.860 116.252  0.00  0.00     0.038 C 
ATOM      4  C   LIG d   1      -7.012  91.813 116.359  0.00  0.00     0.028 C 
ATOM      5  C   LIG d   1      -7.329  92.203 117.799  0.00  0.00    -0.047 C 
ATOM      6  C   LIG d   1      -6.015  92.596 118.512  0.00  0.00     0.091 C 
ENDROOT
BRANCH   1   7
ATOM      7  O   LIG d   1      -3.646  91.995 118.685  0.00  0.00    -0.368 OA
BRANCH   7   8
ATOM      8  C   LIG d   1      -3.044  91.618 119.948  0.00  0.00     0.119 C 
BRANCH   8   9
ATOM      9  C   LIG d   1      -2.386  92.879 120.541  0.00  0.00     0.028 C 
ATOM     10  C   LIG d   1      -2.664  94.137 119.701  0.00  0.00     0.006 C 
ENDBRANCH   8   9
BRANCH   8  11
ATOM     11  C   LIG d   1      -1.900  90.621 119.745  0.00  0.00     0.028 C 
ATOM     12  C   LIG d   1      -1.092  90.893 118.467  0.00  0.00     0.006 C 
ENDBRANCH   8  11
ENDBRANCH   7   8
ENDBRANCH   1   7
BRANCH   6  13
ATOM     13  N   LIG d   1      -6.223  92.911 119.950  0.00  0.00    -0.311 N 
ATOM     14  C   LIG d   1      -6.391  94.149 120.412  0.00  0.00     0.210 C 
ATOM     15  C   LIG d   1      -6.570  94.253 121.930  0.00  0.00     0.109 C 
ATOM     16  O   LIG d   1      -6.441  95.167 119.706  0.00  0.00    -0.276 OA
ATOM     17  H   LIG d   1      -6.228  92.141 120.590  0.00  0.00     0.149 HD
ENDBRANCH   6  13
BRANCH   5  18
ATOM     18  N   LIG d   1      -8.314  93.300 117.756  0.00  0.00     0.381 N 
ATOM     19  H   LIG d   1      -8.927  93.175 116.976  0.00  0.00    -0.090 HD
ATOM     20  H   LIG d   1      -7.827  94.171 117.638  0.00  0.00    -0.090 HD
ATOM     21  H   LIG d   1      -8.841  93.318 118.602  0.00  0.00    -0.090 HD
ENDBRANCH   5  18
BRANCH   3  22
ATOM     22  C   LIG d   1      -6.015  89.980 115.181  0.00  0.00     0.382 C 
ATOM     23  O   LIG d   1      -7.020  89.938 114.430  0.00  0.00    -0.241 OA
ATOM     24  O   LIG d   1      -5.067  89.198 114.981  0.00  0.00    -0.241 OA
ENDBRANCH   3  22
TORSDOF 7
ENDMDL
MODEL 3
REMARK VINA RESULT:      -5.1      2.202      4.686
REMARK  7 active torsions:
REMARK  status: ('A' for Active; 'I' for Inactive)
REMARK    1  A    between atoms: C_2  and  C_3 
REMARK    2  A    between atoms: C_3  and  O_6 
REMARK    3  A    between atoms: C_3  and  C_4 
REMARK    4  A    between atoms: C_7  and  O_6 
REMARK    5  A    between atoms: C_9  and  C_10 
REMARK    6  A    between atoms: N_15  and  C_14 
REMARK    7  A    between atoms: N_20  and  C_19 
REMARK       I    between atoms: C_22  and  N_20 
ROOT
ATOM      1  C   LIG d   1      -4.109  91.266 118.068  0.00  0.00     0.161 C 
ATOM      2  C   LIG d   1      -3.652  91.869 119.252  0.00  0.00     0.016 C 
ATOM      3  C   LIG d   1      -4.466  92.682 120.075  0.00  0.00     0.038 C 
ATOM      4  C   LIG d   1      -5.843  92.824 119.847  0.00  0.00     0.028 C 
ATOM      5  C   LIG d   1      -6.236  92.645 118.385  0.00  0.00    -0.047 C 
ATOM      6  C   LIG d   1      -5.637  91.320 117.862  0.00  0.00     0.091 C 
ENDROOT
BRANCH   1   7
ATOM      7  O   LIG d   1      -3.641  89.904 118.002  0.00  0.00    -0.368 OA
BRANCH   7   8
ATOM      8  C   LIG d   1      -2.254  89.688 118.360  0.00  0.00     0.119 C 
BRANCH   8   9
ATOM      9  C   LIG d   1      -1.541  89.112 117.121  0.00  0.00     0.028 C 
ATOM     10  C   LIG d   1      -0.149  89.729 116.905  0.00  0.00     0.006 C 
ENDBRANCH   8   9
BRANCH   8  11
ATOM     11  C   LIG d   1      -2.119  88.614 119.442  0.00  0.00     0.028 C 
ATOM     12  C   LIG d   1      -1.482  89.147 120.735  0.00  0.00     0.006 C 
ENDBRANCH   8  11
ENDBRANCH   7   8
ENDBRANCH   1   7
BRANCH   6  13
ATOM     13  N   LIG d   1      -5.904  91.108 116.416  0.00  0.00    -0.311 N 
ATOM     14  C   LIG d   1      -6.900  90.353 115.957  0.00  0.00     0.210 C 
ATOM     15  C   LIG d   1      -6.985  90.253 114.430  0.00  0.00     0.109 C 
ATOM     16  O   LIG d   1      -7.742  89.784 116.668  0.00  0.00    -0.276 OA
ATOM     17  H   LIG d   1      -5.288  91.559 115.768  0.00  0.00     0.149 HD
ENDBRANCH   6  13
BRANCH   5  18
ATOM     18  N   LIG d   1      -7.709  92.682 118.312  0.00  0.00     0.381 N 
ATOM     19  H   LIG d   1      -8.047  91.850 117.872  0.00  0.00    -0.090 HD
ATOM     20  H   LIG d   1      -7.987  93.470 117.753  0.00  0.00    -0.090 HD
ATOM     21  H   LIG d   1      -8.094  92.763 119.227  0.00  0.00    -0.090 HD
ENDBRANCH   5  18
BRANCH   3  22
ATOM     22  C   LIG d   1      -3.894  93.394 121.118  0.00  0.00     0.382 C 
ATOM     23  O   LIG d   1      -2.711  93.158 121.464  0.00  0.00    -0.241 OA
ATOM     24  O   LIG d   1      -4.559  94.240 121.745  0.00  0.00    -0.241 OA
ENDBRANCH   3  22
TORSDOF 7
ENDMDL
MODEL 4
REMARK VINA RESULT:      -5.0      2.174      3.468
REMARK  7 active torsions:
REMARK  status: ('A' for Active; 'I' for Inactive)
REMARK    1  A    between atoms: C_2  and  C_3 
REMARK    2  A    between atoms: C_3  and  O_6 
REMARK    3  A    between atoms: C_3  and  C_4 
REMARK    4  A    between atoms: C_7  and  O_6 
REMARK    5  A    between atoms: C_9  and  C_10 
REMARK    6  A    between atoms: N_15  and  C_14 
REMARK    7  A    between atoms: N_20  and  C_19 
REMARK       I    between atoms: C_22  and  N_20 
ROOT
ATOM      1  C   LIG d   1      -5.349  92.280 118.669  0.00  0.00     0.161 C 
ATOM      2  C   LIG d   1      -5.801  93.247 119.583  0.00  0.00     0.016 C 
ATOM      3  C   LIG d   1      -7.043  93.912 119.463  0.00  0.00     0.038 C 
ATOM      4  C   LIG d   1      -7.990  93.543 118.496  0.00  0.00     0.028 C 
ATOM      5  C   LIG d   1      -7.372  92.924 117.247  0.00  0.00    -0.047 C 
ATOM      6  C   LIG d   1      -6.417  91.785 117.671  0.00  0.00     0.091 C 
ENDROOT
BRANCH   1   7
ATOM      7  O   LIG d   1      -4.774  91.167 119.380  0.00  0.00    -0.368 OA
BRANCH   7   8
ATOM      8  C   LIG d   1      -3.330  91.057 119.330  0.00  0.00     0.119 C 
BRANCH   8   9
ATOM      9  C   LIG d   1      -2.832  91.999 118.218  0.00  0.00     0.028 C 
ATOM     10  C   LIG d   1      -1.742  92.966 118.711  0.00  0.00     0.006 C 
ENDBRANCH   8   9
BRANCH   8  11
ATOM     11  C   LIG d   1      -2.893  89.653 118.899  0.00  0.00     0.028 C 
ATOM     12  C   LIG d   1      -2.591  89.559 117.395  0.00  0.00     0.006 C 
ENDBRANCH   8  11
ENDBRANCH   7   8
ENDBRANCH   1   7
BRANCH   6  13
ATOM     13  N   LIG d   1      -5.706  91.181 116.515  0.00  0.00    -0.311 N 
ATOM     14  C   LIG d   1      -6.160  90.122 115.847  0.00  0.00     0.210 C 
ATOM     15  C   LIG d   1      -5.263  89.648 114.700  0.00  0.00     0.109 C 
ATOM     16  O   LIG d   1      -7.237  89.550 116.075  0.00  0.00    -0.276 OA
ATOM     17  H   LIG d   1      -4.840  91.602 116.242  0.00  0.00     0.149 HD
ENDBRANCH   6  13
BRANCH   5  18
ATOM     18  N   LIG d   1      -8.477  92.462 116.386  0.00  0.00     0.381 N 
ATOM     19  H   LIG d   1      -8.179  92.447 115.431  0.00  0.00    -0.090 HD
ATOM     20  H   LIG d   1      -9.244  93.106 116.467  0.00  0.00    -0.090 HD
ATOM     21  H   LIG d   1      -8.769  91.551 116.665  0.00  0.00    -0.090 HD
ENDBRANCH   5  18
BRANCH   3  22
ATOM     22  C   LIG d   1      -7.330  94.986 120.291  0.00  0.00     0.382 C 
ATOM     23  O   LIG d   1      -8.457  95.074 120.835  0.00  0.00    -0.241 OA
ATOM     24  O   LIG d   1      -6.492  95.891 120.466  0.00  0.00    -0.241 OA
ENDBRANCH   3  22
TORSDOF 7
ENDMDL
MODEL 5
REMARK VINA RESULT:      -4.7      4.319      7.402
REMARK  7 active torsions:
REMARK  status: ('A' for Active; 'I' for Inactive)
REMARK    1  A    between atoms: C_2  and  C_3 
REMARK    2  A    between atoms: C_3  and  O_6 
REMARK    3  A    between atoms: C_3  and  C_4 
REMARK    4  A    between atoms: C_7  and  O_6 
REMARK    5  A    between atoms: C_9  and  C_10 
REMARK    6  A    between atoms: N_15  and  C_14 
REMARK    7  A    between atoms: N_20  and  C_19 
REMARK       I    between atoms: C_22  and  N_20 
ROOT
ATOM      1  C   LIG d   1       0.847  88.872 116.864  0.00  0.00     0.161 C 
ATOM      2  C   LIG d   1      -0.547  88.739 116.972  0.00  0.00     0.016 C 
ATOM      3  C   LIG d   1      -1.391  89.764 117.461  0.00  0.00     0.038 C 
ATOM      4  C   LIG d   1      -0.910  91.053 117.735  0.00  0.00     0.028 C 
ATOM      5  C   LIG d   1       0.566  91.079 118.120  0.00  0.00    -0.047 C 
ATOM      6  C   LIG d   1       1.377  90.309 117.054  0.00  0.00     0.091 C 
ENDROOT
BRANCH   1   7
ATOM      7  O   LIG d   1       1.293  88.336 115.603  0.00  0.00    -0.368 OA
BRANCH   7   8
ATOM      8  C   LIG d   1       1.701  86.946 115.610  0.00  0.00     0.119 C 
BRANCH   8   9
ATOM      9  C   LIG d   1       2.452  86.690 116.931  0.00  0.00     0.028 C 
ATOM     10  C   LIG d   1       1.948  85.432 117.658  0.00  0.00     0.006 C 
ENDBRANCH   8   9
BRANCH   8  11
ATOM     11  C   LIG d   1       2.719  86.658 114.502  0.00  0.00     0.028 C 
ATOM     12  C   LIG d   1       4.159  87.009 114.911  0.00  0.00     0.006 C 
ENDBRANCH   8  11
ENDBRANCH   7   8
ENDBRANCH   1   7
BRANCH   6  13
ATOM     13  N   LIG d   1       2.820  90.215 117.398  0.00  0.00    -0.311 N 
ATOM     14  C   LIG d   1       3.797  90.337 116.501  0.00  0.00     0.210 C 
ATOM     15  C   LIG d   1       5.214  90.187 117.063  0.00  0.00     0.109 C 
ATOM     16  O   LIG d   1       3.626  90.587 115.298  0.00  0.00    -0.276 OA
ATOM     17  H   LIG d   1       3.050  90.044 118.357  0.00  0.00     0.149 HD
ENDBRANCH   6  13
BRANCH   5  18
ATOM     18  N   LIG d   1       0.968  92.493 118.243  0.00  0.00     0.381 N 
ATOM     19  H   LIG d   1       1.933  92.549 118.503  0.00  0.00    -0.090 HD
ATOM     20  H   LIG d   1       0.421  92.925 118.966  0.00  0.00    -0.090 HD
ATOM     21  H   LIG d   1       0.822  92.966 117.378  0.00  0.00    -0.090 HD
ENDBRANCH   5  18
BRANCH   3  22
ATOM     22  C   LIG d   1      -2.725  89.490 117.718  0.00  0.00     0.382 C 
ATOM     23  O   LIG d   1      -3.602  89.797 116.874  0.00  0.00    -0.241 OA
ATOM     24  O   LIG d   1      -3.069  88.981 118.802  0.00  0.00    -0.241 OA
ENDBRANCH   3  22
TORSDOF 7
ENDMDL
MODEL 6
REMARK VINA RESULT:      -4.6      2.448      4.528
REMARK  7 active torsions:
REMARK  status: ('A' for Active; 'I' for Inactive)
REMARK    1  A    between atoms: C_2  and  C_3 
REMARK    2  A    between atoms: C_3  and  O_6 
REMARK    3  A    between atoms: C_3  and  C_4 
REMARK    4  A    between atoms: C_7  and  O_6 
REMARK    5  A    between atoms: C_9  and  C_10 
REMARK    6  A    between atoms: N_15  and  C_14 
REMARK    7  A    between atoms: N_20  and  C_19 
REMARK       I    between atoms: C_22  and  N_20 
ROOT
ATOM      1  C   LIG d   1      -4.516  91.447 118.116  0.00  0.00     0.161 C 
ATOM      2  C   LIG d   1      -4.663  90.748 116.907  0.00  0.00     0.016 C 
ATOM      3  C   LIG d   1      -5.850  90.763 116.139  0.00  0.00     0.038 C 
ATOM      4  C   LIG d   1      -6.926  91.606 116.454  0.00  0.00     0.028 C 
ATOM      5  C   LIG d   1      -7.016  91.946 117.938  0.00  0.00    -0.047 C 
ATOM      6  C   LIG d   1      -5.640  92.460 118.419  0.00  0.00     0.091 C 
ENDROOT
BRANCH   1   7
ATOM      7  O   LIG d   1      -3.231  92.099 118.150  0.00  0.00    -0.368 OA
BRANCH   7   8
ATOM      8  C   LIG d   1      -2.131  91.313 118.670  0.00  0.00     0.119 C 
BRANCH   8   9
ATOM      9  C   LIG d   1      -1.668  90.366 117.546  0.00  0.00     0.028 C 
ATOM     10  C   LIG d   1      -0.136  90.300 117.429  0.00  0.00     0.006 C 
ENDBRANCH   8   9
BRANCH   8  11
ATOM     11  C   LIG d   1      -2.589  90.398 119.809  0.00  0.00     0.028 C 
ATOM     12  C   LIG d   1      -1.978  90.783 121.166  0.00  0.00     0.006 C 
ENDBRANCH   8  11
ENDBRANCH   7   8
ENDBRANCH   1   7
BRANCH   6  13
ATOM     13  N   LIG d   1      -5.616  92.736 119.879  0.00  0.00    -0.311 N 
ATOM     14  C   LIG d   1      -5.854  93.937 120.402  0.00  0.00     0.210 C 
ATOM     15  C   LIG d   1      -5.760  94.007 121.930  0.00  0.00     0.109 C 
ATOM     16  O   LIG d   1      -6.165  94.944 119.749  0.00  0.00    -0.276 OA
ATOM     17  H   LIG d   1      -5.403  91.968 120.485  0.00  0.00     0.149 HD
ENDBRANCH   6  13
BRANCH   5  18
ATOM     18  N   LIG d   1      -8.095  92.938 118.104  0.00  0.00     0.381 N 
ATOM     19  H   LIG d   1      -8.964  92.548 117.798  0.00  0.00    -0.090 HD
ATOM     20  H   LIG d   1      -7.890  93.739 117.533  0.00  0.00    -0.090 HD
ATOM     21  H   LIG d   1      -8.163  93.211 119.060  0.00  0.00    -0.090 HD
ENDBRANCH   5  18
BRANCH   3  22
ATOM     22  C   LIG d   1      -5.984  89.898 115.063  0.00  0.00     0.382 C 
ATOM     23  O   LIG d   1      -5.008  89.203 114.693  0.00  0.00    -0.241 OA
ATOM     24  O   LIG d   1      -7.056  89.838 114.431  0.00  0.00    -0.241 OA
ENDBRANCH   3  22
TORSDOF 7
ENDMDL
MODEL 7
REMARK VINA RESULT:      -4.6      1.668      2.233
REMARK  7 active torsions:
REMARK  status: ('A' for Active; 'I' for Inactive)
REMARK    1  A    between atoms: C_2  and  C_3 
REMARK    2  A    between atoms: C_3  and  O_6 
REMARK    3  A    between atoms: C_3  and  C_4 
REMARK    4  A    between atoms: C_7  and  O_6 
REMARK    5  A    between atoms: C_9  and  C_10 
REMARK    6  A    between atoms: N_15  and  C_14 
REMARK    7  A    between atoms: N_20  and  C_19 
REMARK       I    between atoms: C_22  and  N_20 
ROOT
ATOM      1  C   LIG d   1      -5.016  92.164 119.073  0.00  0.00     0.161 C 
ATOM      2  C   LIG d   1      -6.242  92.191 118.387  0.00  0.00     0.016 C 
ATOM      3  C   LIG d   1      -6.470  91.500 117.175  0.00  0.00     0.038 C 
ATOM      4  C   LIG d   1      -5.529  90.607 116.641  0.00  0.00     0.028 C 
ATOM      5  C   LIG d   1      -4.092  90.937 117.030  0.00  0.00    -0.047 C 
ATOM      6  C   LIG d   1      -4.014  91.106 118.565  0.00  0.00     0.091 C 
ENDROOT
BRANCH   1   7
ATOM      7  O   LIG d   1      -5.250  91.995 120.485  0.00  0.00    -0.368 OA
BRANCH   7   8
ATOM      8  C   LIG d   1      -5.043  93.167 121.310  0.00  0.00     0.119 C 
BRANCH   8   9
ATOM      9  C   LIG d   1      -6.431  93.729 121.673  0.00  0.00     0.028 C 
ATOM     10  C   LIG d   1      -6.757  95.025 120.913  0.00  0.00     0.006 C 
ENDBRANCH   8   9
BRANCH   8  11
ATOM     11  C   LIG d   1      -4.346  94.284 120.527  0.00  0.00     0.028 C 
ATOM     12  C   LIG d   1      -2.931  94.582 121.046  0.00  0.00     0.006 C 
ENDBRANCH   8  11
ENDBRANCH   7   8
ENDBRANCH   1   7
BRANCH   6  13
ATOM     13  N   LIG d   1      -2.660  91.513 119.022  0.00  0.00    -0.311 N 
ATOM     14  C   LIG d   1      -1.958  90.837 119.930  0.00  0.00     0.210 C 
ATOM     15  C   LIG d   1      -0.593  91.441 120.273  0.00  0.00     0.109 C 
ATOM     16  O   LIG d   1      -2.323  89.778 120.460  0.00  0.00    -0.276 OA
ATOM     17  H   LIG d   1      -2.274  92.345 118.620  0.00  0.00     0.149 HD
ENDBRANCH   6  13
BRANCH   5  18
ATOM     18  N   LIG d   1      -3.232  89.851 116.523  0.00  0.00     0.381 N 
ATOM     19  H   LIG d   1      -3.514  88.980 116.926  0.00  0.00    -0.090 HD
ATOM     20  H   LIG d   1      -2.283  90.034 116.797  0.00  0.00    -0.090 HD
ATOM     21  H   LIG d   1      -3.295  89.802 115.530  0.00  0.00    -0.090 HD
ENDBRANCH   5  18
BRANCH   3  22
ATOM     22  C   LIG d   1      -7.637  91.731 116.462  0.00  0.00     0.382 C 
ATOM     23  O   LIG d   1      -8.354  92.723 116.737  0.00  0.00    -0.241 OA
ATOM     24  O   LIG d   1      -8.004  90.935 115.576  0.00  0.00    -0.241 OA
ENDBRANCH   3  22
TORSDOF 7
ENDMDL
MODEL 8
REMARK VINA RESULT:      -4.6      2.390      3.996
REMARK  7 active torsions:
REMARK  status: ('A' for Active; 'I' for Inactive)
REMARK    1  A    between atoms: C_2  and  C_3 
REMARK    2  A    between atoms: C_3  and  O_6 
REMARK    3  A    between atoms: C_3  and  C_4 
REMARK    4  A    between atoms: C_7  and  O_6 
REMARK    5  A    between atoms: C_9  and  C_10 
REMARK    6  A    between atoms: N_15  and  C_14 
REMARK    7  A    between atoms: N_20  and  C_19 
REMARK       I    between atoms: C_22  and  N_20 
ROOT
ATOM      1  C   LIG d   1      -4.034  91.001 117.986  0.00  0.00     0.161 C 
ATOM      2  C   LIG d   1      -4.748  90.481 116.893  0.00  0.00     0.016 C 
ATOM      3  C   LIG d   1      -6.087  90.829 116.601  0.00  0.00     0.038 C 
ATOM      4  C   LIG d   1      -6.758  91.844 117.300  0.00  0.00     0.028 C 
ATOM      5  C   LIG d   1      -6.251  92.036 118.725  0.00  0.00    -0.047 C 
ATOM      6  C   LIG d   1      -4.713  92.193 118.693  0.00  0.00     0.091 C 
ENDROOT
BRANCH   1   7
ATOM      7  O   LIG d   1      -2.700  91.358 117.573  0.00  0.00    -0.368 OA
BRANCH   7   8
ATOM      8  C   LIG d   1      -1.622  90.602 118.177  0.00  0.00     0.119 C 
BRANCH   8   9
ATOM      9  C   LIG d   1      -0.431  91.562 118.362  0.00  0.00     0.028 C 
ATOM     10  C   LIG d   1       0.046  91.631 119.822  0.00  0.00     0.006 C 
ENDBRANCH   8   9
BRANCH   8  11
ATOM     11  C   LIG d   1      -1.117  89.504 117.238  0.00  0.00     0.028 C 
ATOM     12  C   LIG d   1       0.249  89.834 116.614  0.00  0.00     0.006 C 
ENDBRANCH   8  11
ENDBRANCH   7   8
ENDBRANCH   1   7
BRANCH   6  13
ATOM     13  N   LIG d   1      -4.127  92.301 120.055  0.00  0.00    -0.311 N 
ATOM     14  C   LIG d   1      -3.250  93.241 120.402  0.00  0.00     0.210 C 
ATOM     15  C   LIG d   1      -2.755  93.161 121.850  0.00  0.00     0.109 C 
ATOM     16  O   LIG d   1      -2.860  94.154 119.659  0.00  0.00    -0.276 OA
ATOM     17  H   LIG d   1      -4.412  91.619 120.730  0.00  0.00     0.149 HD
ENDBRANCH   6  13
BRANCH   5  18
ATOM     18  N   LIG d   1      -6.940  93.211 119.289  0.00  0.00     0.381 N 
ATOM     19  H   LIG d   1      -7.752  92.917 119.795  0.00  0.00    -0.090 HD
ATOM     20  H   LIG d   1      -7.237  93.806 118.536  0.00  0.00    -0.090 HD
ATOM     21  H   LIG d   1      -6.325  93.710 119.894  0.00  0.00    -0.090 HD
ENDBRANCH   5  18
BRANCH   3  22
ATOM     22  C   LIG d   1      -6.781  90.131 115.625  0.00  0.00     0.382 C 
ATOM     23  O   LIG d   1      -7.735  89.384 115.948  0.00  0.00    -0.241 OA
ATOM     24  O   LIG d   1      -6.437  90.205 114.430  0.00  0.00    -0.241 OA
ENDBRANCH   3  22
TORSDOF 7
ENDMDL
MODEL 9
REMARK VINA RESULT:      -4.4      2.334      4.768
REMARK  7 active torsions:
REMARK  status: ('A' for Active; 'I' for Inactive)
REMARK    1  A    between atoms: C_2  and  C_3 
REMARK    2  A    between atoms: C_3  and  O_6 
REMARK    3  A    between atoms: C_3  and  C_4 
REMARK    4  A    between atoms: C_7  and  O_6 
REMARK    5  A    between atoms: C_9  and  C_10 
REMARK    6  A    between atoms: N_15  and  C_14 
REMARK    7  A    between atoms: N_20  and  C_19 
REMARK       I    between atoms: C_22  and  N_20 
ROOT
ATOM      1  C   LIG d   1      -5.386  92.017 119.087  0.00  0.00     0.161 C 
ATOM      2  C   LIG d   1      -4.291  92.276 119.928  0.00  0.00     0.016 C 
ATOM      3  C   LIG d   1      -2.982  91.810 119.665  0.00  0.00     0.038 C 
ATOM      4  C   LIG d   1      -2.648  91.178 118.459  0.00  0.00     0.028 C 
ATOM      5  C   LIG d   1      -3.822  90.452 117.810  0.00  0.00    -0.047 C 
ATOM      6  C   LIG d   1      -5.020  91.424 117.711  0.00  0.00     0.091 C 
ENDROOT
BRANCH   1   7
ATOM      7  O   LIG d   1      -6.170  93.215 118.924  0.00  0.00    -0.368 OA
BRANCH   7   8
ATOM      8  C   LIG d   1      -6.232  94.098 120.070  0.00  0.00     0.119 C 
BRANCH   8   9
ATOM      9  C   LIG d   1      -7.693  94.121 120.560  0.00  0.00     0.028 C 
ATOM     10  C   LIG d   1      -8.199  95.547 120.831  0.00  0.00     0.006 C 
ENDBRANCH   8   9
BRANCH   8  11
ATOM     11  C   LIG d   1      -5.913  95.544 119.678  0.00  0.00     0.028 C 
ATOM     12  C   LIG d   1      -4.502  95.980 120.103  0.00  0.00     0.006 C 
ENDBRANCH   8  11
ENDBRANCH   7   8
ENDBRANCH   1   7
BRANCH   6  13
ATOM     13  N   LIG d   1      -6.237  90.769 117.164  0.00  0.00    -0.311 N 
ATOM     14  C   LIG d   1      -6.545  90.760 115.869  0.00  0.00     0.210 C 
ATOM     15  C   LIG d   1      -7.856  90.047 115.521  0.00  0.00     0.109 C 
ATOM     16  O   LIG d   1      -5.842  91.247 114.971  0.00  0.00    -0.276 OA
ATOM     17  H   LIG d   1      -6.848  90.322 117.820  0.00  0.00     0.149 HD
ENDBRANCH   6  13
BRANCH   5  18
ATOM     18  N   LIG d   1      -3.368  89.957 116.496  0.00  0.00     0.381 N 
ATOM     19  H   LIG d   1      -2.918  89.070 116.606  0.00  0.00    -0.090 HD
ATOM     20  H   LIG d   1      -2.701  90.605 116.117  0.00  0.00    -0.090 HD
ATOM     21  H   LIG d   1      -4.145  89.869 115.879  0.00  0.00    -0.090 HD
ENDBRANCH   5  18
BRANCH   3  22
ATOM     22  C   LIG d   1      -1.999  91.941 120.635  0.00  0.00     0.382 C 
ATOM     23  O   LIG d   1      -1.145  91.034 120.788  0.00  0.00    -0.241 OA
ATOM     24  O   LIG d   1      -1.982  92.933 121.387  0.00  0.00    -0.241 OA
ENDBRANCH   3  22
TORSDOF 7
ENDMDL
