MODEL 1
REMARK VINA RESULT:      -5.5      0.000      0.000
REMARK  7 active torsions:
REMARK  status: ('A' for Active; 'I' for Inactive)
REMARK    1  A    between atoms: C_2  and  C_3 
REMARK    2  A    between atoms: C_3  and  O_6 
REMARK    3  A    between atoms: C_3  and  C_4 
REMARK    4  A    between atoms: C_7  and  O_6 
REMARK    5  A    between atoms: C_9  and  C_10 
REMARK    6  A    between atoms: N_15  and  C_14 
REMARK    7  A    between atoms: N_20  and  C_19 
REMARK       I    between atoms: C_22  and  N_20 
ROOT
ATOM      1  C   LIG d   1      -4.975  93.018 118.106  0.00  0.00     0.161 C 
ATOM      2  C   LIG d   1      -6.154  93.781 118.065  0.00  0.00     0.016 C 
ATOM      3  C   LIG d   1      -6.307  95.015 118.738  0.00  0.00     0.038 C 
ATOM      4  C   LIG d   1      -5.231  95.648 119.378  0.00  0.00     0.028 C 
ATOM      5  C   LIG d   1      -4.163  94.678 119.871  0.00  0.00    -0.047 C 
ATOM      6  C   LIG d   1      -3.755  93.747 118.707  0.00  0.00     0.091 C 
ENDROOT
BRANCH   1   7
ATOM      7  O   LIG d   1      -4.665  92.527 116.787  0.00  0.00    -0.368 OA
BRANCH   7   8
ATOM      8  C   LIG d   1      -4.894  91.114 116.563  0.00  0.00     0.119 C 
BRANCH   8   9
ATOM      9  C   LIG d   1      -3.516  90.441 116.408  0.00  0.00     0.028 C 
ATOM     10  C   LIG d   1      -3.604  88.906 116.456  0.00  0.00     0.006 C 
ENDBRANCH   8   9
BRANCH   8  11
ATOM     11  C   LIG d   1      -5.616  90.869 115.235  0.00  0.00     0.028 C 
ATOM     12  C   LIG d   1      -6.251  92.144 114.659  0.00  0.00     0.006 C 
ENDBRANCH   8  11
ENDBRANCH   7   8
ENDBRANCH   1   7
BRANCH   6  13
ATOM     13  N   LIG d   1      -2.775  92.711 119.127  0.00  0.00    -0.311 N 
ATOM     14  C   LIG d   1      -1.589  92.545 118.543  0.00  0.00     0.210 C 
ATOM     15  C   LIG d   1      -0.740  91.406 119.117  0.00  0.00     0.109 C 
ATOM     16  O   LIG d   1      -1.146  93.253 117.627  0.00  0.00    -0.276 OA
ATOM     17  H   LIG d   1      -3.040  92.112 119.884  0.00  0.00     0.149 HD
ENDBRANCH   6  13
BRANCH   5  18
ATOM     18  N   LIG d   1      -3.040  95.479 120.393  0.00  0.00     0.381 N 
ATOM     19  H   LIG d   1      -2.208  95.273 119.876  0.00  0.00    -0.090 HD
ATOM     20  H   LIG d   1      -2.882  95.231 121.354  0.00  0.00    -0.090 HD
ATOM     21  H   LIG d   1      -3.252  96.450 120.323  0.00  0.00    -0.090 HD
ENDBRANCH   5  18
BRANCH   3  22
ATOM     22  C   LIG d   1      -7.557  95.609 118.808  0.00  0.00     0.382 C 
ATOM     23  O   LIG d   1      -7.677  96.765 119.283  0.00  0.00    -0.241 OA
ATOM     24  O   LIG d   1      -8.574  94.987 118.445  0.00  0.00    -0.241 OA
ENDBRANCH   3  22
TORSDOF 7
ENDMDL
MODEL 2
REMARK VINA RESULT:      -5.5      2.285      5.046
REMARK  7 active torsions:
REMARK  status: ('A' for Active; 'I' for Inactive)
REMARK    1  A    between atoms: C_2  and  C_3 
REMARK    2  A    between atoms: C_3  and  O_6 
REMARK    3  A    between atoms: C_3  and  C_4 
REMARK    4  A    between atoms: C_7  and  O_6 
REMARK    5  A    between atoms: C_9  and  C_10 
REMARK    6  A    between atoms: N_15  and  C_14 
REMARK    7  A    between atoms: N_20  and  C_19 
REMARK       I    between atoms: C_22  and  N_20 
ROOT
ATOM      1  C   LIG d   1      -4.215  92.472 117.042  0.00  0.00     0.161 C 
ATOM      2  C   LIG d   1      -5.409  91.832 116.670  0.00  0.00     0.016 C 
ATOM      3  C   LIG d   1      -5.480  90.468 116.304  0.00  0.00     0.038 C 
ATOM      4  C   LIG d   1      -4.379  89.608 116.432  0.00  0.00     0.028 C 
ATOM      5  C   LIG d   1      -3.036  90.322 116.321  0.00  0.00    -0.047 C 
ATOM      6  C   LIG d   1      -3.024  91.523 117.294  0.00  0.00     0.091 C 
ENDROOT
BRANCH   1   7
ATOM      7  O   LIG d   1      -4.445  93.304 118.196  0.00  0.00    -0.368 OA
BRANCH   7   8
ATOM      8  C   LIG d   1      -5.827  93.465 118.600  0.00  0.00     0.119 C 
BRANCH   8   9
ATOM      9  C   LIG d   1      -6.171  94.963 118.488  0.00  0.00     0.028 C 
ATOM     10  C   LIG d   1      -7.657  95.247 118.766  0.00  0.00     0.006 C 
ENDBRANCH   8   9
BRANCH   8  11
ATOM     11  C   LIG d   1      -6.020  93.114 120.078  0.00  0.00     0.028 C 
ATOM     12  C   LIG d   1      -4.940  92.159 120.610  0.00  0.00     0.006 C 
ENDBRANCH   8  11
ENDBRANCH   7   8
ENDBRANCH   1   7
BRANCH   6  13
ATOM     13  N   LIG d   1      -1.778  92.326 117.189  0.00  0.00    -0.311 N 
ATOM     14  C   LIG d   1      -0.709  92.126 117.957  0.00  0.00     0.210 C 
ATOM     15  C   LIG d   1       0.462  93.078 117.697  0.00  0.00     0.109 C 
ATOM     16  O   LIG d   1      -0.608  91.228 118.807  0.00  0.00    -0.276 OA
ATOM     17  H   LIG d   1      -1.763  93.056 116.503  0.00  0.00     0.149 HD
ENDBRANCH   6  13
BRANCH   5  18
ATOM     18  N   LIG d   1      -1.980  89.333 116.609  0.00  0.00     0.381 N 
ATOM     19  H   LIG d   1      -1.132  89.600 116.150  0.00  0.00    -0.090 HD
ATOM     20  H   LIG d   1      -2.265  88.439 116.251  0.00  0.00    -0.090 HD
ATOM     21  H   LIG d   1      -1.830  89.272 117.592  0.00  0.00    -0.090 HD
ENDBRANCH   5  18
BRANCH   3  22
ATOM     22  C   LIG d   1      -6.653  89.961 115.766  0.00  0.00     0.382 C 
ATOM     23  O   LIG d   1      -7.506  90.740 115.277  0.00  0.00    -0.241 OA
ATOM     24  O   LIG d   1      -6.888  88.738 115.803  0.00  0.00    -0.241 OA
ENDBRANCH   3  22
TORSDOF 7
ENDMDL
MODEL 3
REMARK VINA RESULT:      -5.2      3.492      5.699
REMARK  7 active torsions:
REMARK  status: ('A' for Active; 'I' for Inactive)
REMARK    1  A    between atoms: C_2  and  C_3 
REMARK    2  A    between atoms: C_3  and  O_6 
REMARK    3  A    between atoms: C_3  and  C_4 
REMARK    4  A    between atoms: C_7  and  O_6 
REMARK    5  A    between atoms: C_9  and  C_10 
REMARK    6  A    between atoms: N_15  and  C_14 
REMARK    7  A    between atoms: N_20  and  C_19 
REMARK       I    between atoms: C_22  and  N_20 
ROOT
ATOM      1  C   LIG d   1      -2.942  90.709 117.158  0.00  0.00     0.161 C 
ATOM      2  C   LIG d   1      -3.978  91.617 116.882  0.00  0.00     0.016 C 
ATOM      3  C   LIG d   1      -5.056  91.328 116.015  0.00  0.00     0.038 C 
ATOM      4  C   LIG d   1      -5.254  90.047 115.479  0.00  0.00     0.028 C 
ATOM      5  C   LIG d   1      -3.963  89.249 115.326  0.00  0.00    -0.047 C 
ATOM      6  C   LIG d   1      -3.200  89.268 116.670  0.00  0.00     0.091 C 
ENDROOT
BRANCH   1   7
ATOM      7  O   LIG d   1      -2.650  90.715 118.570  0.00  0.00    -0.368 OA
BRANCH   7   8
ATOM      8  C   LIG d   1      -1.527  91.530 118.985  0.00  0.00     0.119 C 
BRANCH   8   9
ATOM      9  C   LIG d   1      -0.637  91.756 117.747  0.00  0.00     0.028 C 
ATOM     10  C   LIG d   1      -0.156  93.212 117.628  0.00  0.00     0.006 C 
ENDBRANCH   8   9
BRANCH   8  11
ATOM     11  C   LIG d   1      -0.641  90.789 119.991  0.00  0.00     0.028 C 
ATOM     12  C   LIG d   1       0.144  89.632 119.354  0.00  0.00     0.006 C 
ENDBRANCH   8  11
ENDBRANCH   7   8
ENDBRANCH   1   7
BRANCH   6  13
ATOM     13  N   LIG d   1      -1.885  88.580 116.585  0.00  0.00    -0.311 N 
ATOM     14  C   LIG d   1      -1.698  87.309 116.935  0.00  0.00     0.210 C 
ATOM     15  C   LIG d   1      -0.260  86.802 116.788  0.00  0.00     0.109 C 
ATOM     16  O   LIG d   1      -2.593  86.543 117.323  0.00  0.00    -0.276 OA
ATOM     17  H   LIG d   1      -1.110  89.119 116.251  0.00  0.00     0.149 HD
ENDBRANCH   6  13
BRANCH   5  18
ATOM     18  N   LIG d   1      -4.330  87.889 114.889  0.00  0.00     0.381 N 
ATOM     19  H   LIG d   1      -4.250  87.820 113.894  0.00  0.00    -0.090 HD
ATOM     20  H   LIG d   1      -5.286  87.712 115.141  0.00  0.00    -0.090 HD
ATOM     21  H   LIG d   1      -3.734  87.218 115.324  0.00  0.00    -0.090 HD
ENDBRANCH   5  18
BRANCH   3  22
ATOM     22  C   LIG d   1      -5.930  92.339 115.644  0.00  0.00     0.382 C 
ATOM     23  O   LIG d   1      -6.091  92.614 114.430  0.00  0.00    -0.241 OA
ATOM     24  O   LIG d   1      -6.524  93.009 116.509  0.00  0.00    -0.241 OA
ENDBRANCH   3  22
TORSDOF 7
ENDMDL
MODEL 4
REMARK VINA RESULT:      -4.9      1.567      2.273
REMARK  7 active torsions:
REMARK  status: ('A' for Active; 'I' for Inactive)
REMARK    1  A    between atoms: C_2  and  C_3 
REMARK    2  A    between atoms: C_3  and  O_6 
REMARK    3  A    between atoms: C_3  and  C_4 
REMARK    4  A    between atoms: C_7  and  O_6 
REMARK    5  A    between atoms: C_9  and  C_10 
REMARK    6  A    between atoms: N_15  and  C_14 
REMARK    7  A    between atoms: N_20  and  C_19 
REMARK       I    between atoms: C_22  and  N_20 
ROOT
ATOM      1  C   LIG d   1      -4.852  92.206 117.106  0.00  0.00     0.161 C 
ATOM      2  C   LIG d   1      -6.018  92.788 117.633  0.00  0.00     0.016 C 
ATOM      3  C   LIG d   1      -6.005  93.787 118.633  0.00  0.00     0.038 C 
ATOM      4  C   LIG d   1      -4.813  94.385 119.068  0.00  0.00     0.028 C 
ATOM      5  C   LIG d   1      -3.595  93.477 118.931  0.00  0.00    -0.047 C 
ATOM      6  C   LIG d   1      -3.541  92.924 117.489  0.00  0.00     0.091 C 
ENDROOT
BRANCH   1   7
ATOM      7  O   LIG d   1      -4.965  92.099 115.673  0.00  0.00    -0.368 OA
BRANCH   7   8
ATOM      8  C   LIG d   1      -5.258  90.778 115.153  0.00  0.00     0.119 C 
BRANCH   8   9
ATOM      9  C   LIG d   1      -6.760  90.738 114.811  0.00  0.00     0.028 C 
ATOM     10  C   LIG d   1      -7.517  89.669 115.617  0.00  0.00     0.006 C 
ENDBRANCH   8   9
BRANCH   8  11
ATOM     11  C   LIG d   1      -5.057  89.701 116.224  0.00  0.00     0.028 C 
ATOM     12  C   LIG d   1      -3.912  88.733 115.887  0.00  0.00     0.006 C 
ENDBRANCH   8  11
ENDBRANCH   7   8
ENDBRANCH   1   7
BRANCH   6  13
ATOM     13  N   LIG d   1      -2.427  91.960 117.292  0.00  0.00    -0.311 N 
ATOM     14  C   LIG d   1      -2.068  91.058 118.205  0.00  0.00     0.210 C 
ATOM     15  C   LIG d   1      -0.881  90.175 117.809  0.00  0.00     0.109 C 
ATOM     16  O   LIG d   1      -2.642  90.884 119.290  0.00  0.00    -0.276 OA
ATOM     17  H   LIG d   1      -1.928  92.011 116.426  0.00  0.00     0.149 HD
ENDBRANCH   6  13
BRANCH   5  18
ATOM     18  N   LIG d   1      -2.405  94.271 119.290  0.00  0.00     0.381 N 
ATOM     19  H   LIG d   1      -2.131  94.065 120.230  0.00  0.00    -0.090 HD
ATOM     20  H   LIG d   1      -2.637  95.247 119.236  0.00  0.00    -0.090 HD
ATOM     21  H   LIG d   1      -1.656  94.065 118.666  0.00  0.00    -0.090 HD
ENDBRANCH   5  18
BRANCH   3  22
ATOM     22  C   LIG d   1      -7.193  94.171 119.236  0.00  0.00     0.382 C 
ATOM     23  O   LIG d   1      -8.097  94.710 118.554  0.00  0.00    -0.241 OA
ATOM     24  O   LIG d   1      -7.354  94.025 120.463  0.00  0.00    -0.241 OA
ENDBRANCH   3  22
TORSDOF 7
ENDMDL
MODEL 5
REMARK VINA RESULT:      -4.9      2.561      6.107
REMARK  7 active torsions:
REMARK  status: ('A' for Active; 'I' for Inactive)
REMARK    1  A    between atoms: C_2  and  C_3 
REMARK    2  A    between atoms: C_3  and  O_6 
REMARK    3  A    between atoms: C_3  and  C_4 
REMARK    4  A    between atoms: C_7  and  O_6 
REMARK    5  A    between atoms: C_9  and  C_10 
REMARK    6  A    between atoms: N_15  and  C_14 
REMARK    7  A    between atoms: N_20  and  C_19 
REMARK       I    between atoms: C_22  and  N_20 
ROOT
ATOM      1  C   LIG d   1      -3.560  91.318 117.126  0.00  0.00     0.161 C 
ATOM      2  C   LIG d   1      -3.415  90.019 116.610  0.00  0.00     0.016 C 
ATOM      3  C   LIG d   1      -4.346  89.425 115.727  0.00  0.00     0.038 C 
ATOM      4  C   LIG d   1      -5.414  90.149 115.178  0.00  0.00     0.028 C 
ATOM      5  C   LIG d   1      -5.883  91.300 116.062  0.00  0.00    -0.047 C 
ATOM      6  C   LIG d   1      -4.661  92.163 116.452  0.00  0.00     0.091 C 
ENDROOT
BRANCH   1   7
ATOM      7  O   LIG d   1      -2.296  92.008 117.074  0.00  0.00    -0.368 OA
BRANCH   7   8
ATOM      8  C   LIG d   1      -1.701  92.346 118.351  0.00  0.00     0.119 C 
BRANCH   8   9
ATOM      9  C   LIG d   1      -1.621  93.883 118.432  0.00  0.00     0.028 C 
ATOM     10  C   LIG d   1      -1.478  94.388 119.878  0.00  0.00     0.006 C 
ENDBRANCH   8   9
BRANCH   8  11
ATOM     11  C   LIG d   1      -0.251  91.860 118.437  0.00  0.00     0.028 C 
ATOM     12  C   LIG d   1       0.211  91.137 117.162  0.00  0.00     0.006 C 
ENDBRANCH   8  11
ENDBRANCH   7   8
ENDBRANCH   1   7
BRANCH   6  13
ATOM     13  N   LIG d   1      -5.018  93.263 117.385  0.00  0.00    -0.311 N 
ATOM     14  C   LIG d   1      -5.237  93.079 118.686  0.00  0.00     0.210 C 
ATOM     15  C   LIG d   1      -5.612  94.344 119.464  0.00  0.00     0.109 C 
ATOM     16  O   LIG d   1      -5.124  91.994 119.275  0.00  0.00    -0.276 OA
ATOM     17  H   LIG d   1      -5.100  94.182 116.996  0.00  0.00     0.149 HD
ENDBRANCH   6  13
BRANCH   5  18
ATOM     18  N   LIG d   1      -6.905  92.052 115.310  0.00  0.00     0.381 N 
ATOM     19  H   LIG d   1      -7.521  92.517 115.947  0.00  0.00    -0.090 HD
ATOM     20  H   LIG d   1      -7.446  91.406 114.762  0.00  0.00    -0.090 HD
ATOM     21  H   LIG d   1      -6.467  92.719 114.713  0.00  0.00    -0.090 HD
ENDBRANCH   5  18
BRANCH   3  22
ATOM     22  C   LIG d   1      -4.234  88.078 115.416  0.00  0.00     0.382 C 
ATOM     23  O   LIG d   1      -4.854  87.609 114.431  0.00  0.00    -0.241 OA
ATOM     24  O   LIG d   1      -3.557  87.318 116.133  0.00  0.00    -0.241 OA
ENDBRANCH   3  22
TORSDOF 7
ENDMDL
MODEL 6
REMARK VINA RESULT:      -4.9      1.429      2.292
REMARK  7 active torsions:
REMARK  status: ('A' for Active; 'I' for Inactive)
REMARK    1  A    between atoms: C_2  and  C_3 
REMARK    2  A    between atoms: C_3  and  O_6 
REMARK    3  A    between atoms: C_3  and  C_4 
REMARK    4  A    between atoms: C_7  and  O_6 
REMARK    5  A    between atoms: C_9  and  C_10 
REMARK    6  A    between atoms: N_15  and  C_14 
REMARK    7  A    between atoms: N_20  and  C_19 
REMARK       I    between atoms: C_22  and  N_20 
ROOT
ATOM      1  C   LIG d   1      -4.032  92.509 117.926  0.00  0.00     0.161 C 
ATOM      2  C   LIG d   1      -5.335  92.726 118.405  0.00  0.00     0.016 C 
ATOM      3  C   LIG d   1      -5.660  93.731 119.345  0.00  0.00     0.038 C 
ATOM      4  C   LIG d   1      -4.724  94.692 119.758  0.00  0.00     0.028 C 
ATOM      5  C   LIG d   1      -3.282  94.202 119.687  0.00  0.00    -0.047 C 
ATOM      6  C   LIG d   1      -3.019  93.618 118.280  0.00  0.00     0.091 C 
ENDROOT
BRANCH   1   7
ATOM      7  O   LIG d   1      -4.066  92.298 116.500  0.00  0.00    -0.368 OA
BRANCH   7   8
ATOM      8  C   LIG d   1      -3.951  90.923 116.057  0.00  0.00     0.119 C 
BRANCH   8   9
ATOM      9  C   LIG d   1      -5.368  90.429 115.709  0.00  0.00     0.028 C 
ATOM     10  C   LIG d   1      -6.139  91.427 114.830  0.00  0.00     0.006 C 
ENDBRANCH   8   9
BRANCH   8  11
ATOM     11  C   LIG d   1      -3.470  90.011 117.189  0.00  0.00     0.028 C 
ATOM     12  C   LIG d   1      -3.123  88.594 116.706  0.00  0.00     0.006 C 
ENDBRANCH   8  11
ENDBRANCH   7   8
ENDBRANCH   1   7
BRANCH   6  13
ATOM     13  N   LIG d   1      -1.656  93.039 118.152  0.00  0.00    -0.311 N 
ATOM     14  C   LIG d   1      -0.595  93.742 117.759  0.00  0.00     0.210 C 
ATOM     15  C   LIG d   1       0.712  92.948 117.676  0.00  0.00     0.109 C 
ATOM     16  O   LIG d   1      -0.606  94.956 117.503  0.00  0.00    -0.276 OA
ATOM     17  H   LIG d   1      -1.551  92.068 118.370  0.00  0.00     0.149 HD
ENDBRANCH   6  13
BRANCH   5  18
ATOM     18  N   LIG d   1      -2.407  95.344 120.011  0.00  0.00     0.381 N 
ATOM     19  H   LIG d   1      -2.882  95.969 120.631  0.00  0.00    -0.090 HD
ATOM     20  H   LIG d   1      -2.193  95.841 119.164  0.00  0.00    -0.090 HD
ATOM     21  H   LIG d   1      -1.566  95.019 120.435  0.00  0.00    -0.090 HD
ENDBRANCH   5  18
BRANCH   3  22
ATOM     22  C   LIG d   1      -6.925  93.758 119.913  0.00  0.00     0.382 C 
ATOM     23  O   LIG d   1      -7.919  94.067 119.214  0.00  0.00    -0.241 OA
ATOM     24  O   LIG d   1      -7.078  93.519 121.126  0.00  0.00    -0.241 OA
ENDBRANCH   3  22
TORSDOF 7
ENDMDL
MODEL 7
REMARK VINA RESULT:      -4.8      1.570      1.671
REMARK  7 active torsions:
REMARK  status: ('A' for Active; 'I' for Inactive)
REMARK    1  A    between atoms: C_2  and  C_3 
REMARK    2  A    between atoms: C_3  and  O_6 
REMARK    3  A    between atoms: C_3  and  C_4 
REMARK    4  A    between atoms: C_7  and  O_6 
REMARK    5  A    between atoms: C_9  and  C_10 
REMARK    6  A    between atoms: N_15  and  C_14 
REMARK    7  A    between atoms: N_20  and  C_19 
REMARK       I    between atoms: C_22  and  N_20 
ROOT
ATOM      1  C   LIG d   1      -3.761  92.766 118.442  0.00  0.00     0.161 C 
ATOM      2  C   LIG d   1      -5.116  92.857 118.804  0.00  0.00     0.016 C 
ATOM      3  C   LIG d   1      -5.659  93.950 119.517  0.00  0.00     0.038 C 
ATOM      4  C   LIG d   1      -4.910  95.105 119.788  0.00  0.00     0.028 C 
ATOM      5  C   LIG d   1      -3.411  94.845 119.886  0.00  0.00    -0.047 C 
ATOM      6  C   LIG d   1      -2.953  94.067 118.631  0.00  0.00     0.091 C 
ENDROOT
BRANCH   1   7
ATOM      7  O   LIG d   1      -3.649  92.299 117.083  0.00  0.00    -0.368 OA
BRANCH   7   8
ATOM      8  C   LIG d   1      -4.092  90.942 116.837  0.00  0.00     0.119 C 
BRANCH   8   9
ATOM      9  C   LIG d   1      -2.838  90.087 116.571  0.00  0.00     0.028 C 
ATOM     10  C   LIG d   1      -3.096  88.585 116.782  0.00  0.00     0.006 C 
ENDBRANCH   8   9
BRANCH   8  11
ATOM     11  C   LIG d   1      -4.924  90.852 115.554  0.00  0.00     0.028 C 
ATOM     12  C   LIG d   1      -5.813  92.085 115.332  0.00  0.00     0.006 C 
ENDBRANCH   8  11
ENDBRANCH   7   8
ENDBRANCH   1   7
BRANCH   6  13
ATOM     13  N   LIG d   1      -1.514  93.698 118.686  0.00  0.00    -0.311 N 
ATOM     14  C   LIG d   1      -0.542  94.465 118.196  0.00  0.00     0.210 C 
ATOM     15  C   LIG d   1       0.870  93.888 118.339  0.00  0.00     0.109 C 
ATOM     16  O   LIG d   1      -0.711  95.582 117.686  0.00  0.00    -0.276 OA
ATOM     17  H   LIG d   1      -1.284  92.821 119.111  0.00  0.00     0.149 HD
ENDBRANCH   6  13
BRANCH   5  18
ATOM     18  N   LIG d   1      -2.741  96.151 120.032  0.00  0.00     0.381 N 
ATOM     19  H   LIG d   1      -3.168  96.821 119.425  0.00  0.00    -0.090 HD
ATOM     20  H   LIG d   1      -1.777  96.054 119.766  0.00  0.00    -0.090 HD
ATOM     21  H   LIG d   1      -2.802  96.462 120.977  0.00  0.00    -0.090 HD
ENDBRANCH   5  18
BRANCH   3  22
ATOM     22  C   LIG d   1      -6.956  93.877 120.003  0.00  0.00     0.382 C 
ATOM     23  O   LIG d   1      -7.158  93.771 121.237  0.00  0.00    -0.241 OA
ATOM     24  O   LIG d   1      -7.924  93.872 119.221  0.00  0.00    -0.241 OA
ENDBRANCH   3  22
TORSDOF 7
ENDMDL
MODEL 8
REMARK VINA RESULT:      -4.8      2.864      5.136
REMARK  7 active torsions:
REMARK  status: ('A' for Active; 'I' for Inactive)
REMARK    1  A    between atoms: C_2  and  C_3 
REMARK    2  A    between atoms: C_3  and  O_6 
REMARK    3  A    between atoms: C_3  and  C_4 
REMARK    4  A    between atoms: C_7  and  O_6 
REMARK    5  A    between atoms: C_9  and  C_10 
REMARK    6  A    between atoms: N_15  and  C_14 
REMARK    7  A    between atoms: N_20  and  C_19 
REMARK       I    between atoms: C_22  and  N_20 
ROOT
ATOM      1  C   LIG d   1      -3.107  92.036 117.313  0.00  0.00     0.161 C 
ATOM      2  C   LIG d   1      -4.344  92.310 116.707  0.00  0.00     0.016 C 
ATOM      3  C   LIG d   1      -5.105  91.338 116.017  0.00  0.00     0.038 C 
ATOM      4  C   LIG d   1      -4.750  89.981 116.017  0.00  0.00     0.028 C 
ATOM      5  C   LIG d   1      -3.253  89.747 116.186  0.00  0.00    -0.047 C 
ATOM      6  C   LIG d   1      -2.757  90.537 117.420  0.00  0.00     0.091 C 
ENDROOT
BRANCH   1   7
ATOM      7  O   LIG d   1      -3.052  92.657 118.613  0.00  0.00    -0.368 OA
BRANCH   7   8
ATOM      8  C   LIG d   1      -4.059  92.233 119.565  0.00  0.00     0.119 C 
BRANCH   8   9
ATOM      9  C   LIG d   1      -4.739  93.502 120.114  0.00  0.00     0.028 C 
ATOM     10  C   LIG d   1      -6.268  93.360 120.197  0.00  0.00     0.006 C 
ENDBRANCH   8   9
BRANCH   8  11
ATOM     11  C   LIG d   1      -3.425  91.554 120.782  0.00  0.00     0.028 C 
ATOM     12  C   LIG d   1      -1.935  91.892 120.944  0.00  0.00     0.006 C 
ENDBRANCH   8  11
ENDBRANCH   7   8
ENDBRANCH   1   7
BRANCH   6  13
ATOM     13  N   LIG d   1      -1.287  90.431 117.608  0.00  0.00    -0.311 N 
ATOM     14  C   LIG d   1      -0.712  89.524 118.396  0.00  0.00     0.210 C 
ATOM     15  C   LIG d   1       0.816  89.601 118.463  0.00  0.00     0.109 C 
ATOM     16  O   LIG d   1      -1.321  88.642 119.021  0.00  0.00    -0.276 OA
ATOM     17  H   LIG d   1      -0.715  91.087 117.113  0.00  0.00     0.149 HD
ENDBRANCH   6  13
BRANCH   5  18
ATOM     18  N   LIG d   1      -3.040  88.293 116.308  0.00  0.00     0.381 N 
ATOM     19  H   LIG d   1      -2.520  88.095 117.140  0.00  0.00    -0.090 HD
ATOM     20  H   LIG d   1      -2.504  87.976 115.519  0.00  0.00    -0.090 HD
ATOM     21  H   LIG d   1      -3.917  87.821 116.335  0.00  0.00    -0.090 HD
ENDBRANCH   5  18
BRANCH   3  22
ATOM     22  C   LIG d   1      -6.215  91.728 115.283  0.00  0.00     0.382 C 
ATOM     23  O   LIG d   1      -7.312  91.140 115.445  0.00  0.00    -0.241 OA
ATOM     24  O   LIG d   1      -6.123  92.631 114.430  0.00  0.00    -0.241 OA
ENDBRANCH   3  22
TORSDOF 7
ENDMDL
MODEL 9
REMARK VINA RESULT:      -4.7      2.594      4.572
REMARK  7 active torsions:
REMARK  status: ('A' for Active; 'I' for Inactive)
REMARK    1  A    between atoms: C_2  and  C_3 
REMARK    2  A    between atoms: C_3  and  O_6 
REMARK    3  A    between atoms: C_3  and  C_4 
REMARK    4  A    between atoms: C_7  and  O_6 
REMARK    5  A    between atoms: C_9  and  C_10 
REMARK    6  A    between atoms: N_15  and  C_14 
REMARK    7  A    between atoms: N_20  and  C_19 
REMARK       I    between atoms: C_22  and  N_20 
ROOT
ATOM      1  C   LIG d   1      -3.354  91.644 117.512  0.00  0.00     0.161 C 
ATOM      2  C   LIG d   1      -2.535  92.633 118.080  0.00  0.00     0.016 C 
ATOM      3  C   LIG d   1      -3.039  93.802 118.695  0.00  0.00     0.038 C 
ATOM      4  C   LIG d   1      -4.411  93.990 118.918  0.00  0.00     0.028 C 
ATOM      5  C   LIG d   1      -5.294  93.258 117.913  0.00  0.00    -0.047 C 
ATOM      6  C   LIG d   1      -4.855  91.777 117.844  0.00  0.00     0.091 C 
ENDROOT
BRANCH   1   7
ATOM      7  O   LIG d   1      -2.873  90.337 117.884  0.00  0.00    -0.368 OA
BRANCH   7   8
ATOM      8  C   LIG d   1      -2.120  89.623 116.873  0.00  0.00     0.119 C 
BRANCH   8   9
ATOM      9  C   LIG d   1      -2.713  88.205 116.769  0.00  0.00     0.028 C 
ATOM     10  C   LIG d   1      -3.912  88.139 115.809  0.00  0.00     0.006 C 
ENDBRANCH   8   9
BRANCH   8  11
ATOM     11  C   LIG d   1      -0.663  89.423 117.302  0.00  0.00     0.028 C 
ATOM     12  C   LIG d   1       0.328  90.216 116.434  0.00  0.00     0.006 C 
ENDBRANCH   8  11
ENDBRANCH   7   8
ENDBRANCH   1   7
BRANCH   6  13
ATOM     13  N   LIG d   1      -5.612  91.008 116.822  0.00  0.00    -0.311 N 
ATOM     14  C   LIG d   1      -5.917  91.491 115.619  0.00  0.00     0.210 C 
ATOM     15  C   LIG d   1      -6.721  90.541 114.726  0.00  0.00     0.109 C 
ATOM     16  O   LIG d   1      -5.570  92.604 115.194  0.00  0.00    -0.276 OA
ATOM     17  H   LIG d   1      -5.906  90.084 117.072  0.00  0.00     0.149 HD
ENDBRANCH   6  13
BRANCH   5  18
ATOM     18  N   LIG d   1      -6.694  93.426 118.344  0.00  0.00     0.381 N 
ATOM     19  H   LIG d   1      -7.197  92.573 118.203  0.00  0.00    -0.090 HD
ATOM     20  H   LIG d   1      -7.123  94.142 117.783  0.00  0.00    -0.090 HD
ATOM     21  H   LIG d   1      -6.726  93.684 119.306  0.00  0.00    -0.090 HD
ENDBRANCH   5  18
BRANCH   3  22
ATOM     22  C   LIG d   1      -2.167  94.818 119.058  0.00  0.00     0.382 C 
ATOM     23  O   LIG d   1      -2.618  95.899 119.508  0.00  0.00    -0.241 OA
ATOM     24  O   LIG d   1      -0.939  94.684 118.899  0.00  0.00    -0.241 OA
ENDBRANCH   3  22
TORSDOF 7
ENDMDL
