MODEL 1
REMARK VINA RESULT:      -5.4      0.000      0.000
REMARK  7 active torsions:
REMARK  status: ('A' for Active; 'I' for Inactive)
REMARK    1  A    between atoms: C_2  and  C_3 
REMARK    2  A    between atoms: C_3  and  O_6 
REMARK    3  A    between atoms: C_3  and  C_4 
REMARK    4  A    between atoms: C_7  and  O_6 
REMARK    5  A    between atoms: C_9  and  C_10 
REMARK    6  A    between atoms: N_15  and  C_14 
REMARK    7  A    between atoms: N_20  and  C_19 
REMARK       I    between atoms: C_22  and  N_20 
ROOT
ATOM      1  C   LIG d   1      -3.463  91.297 117.606  0.00  0.00     0.161 C 
ATOM      2  C   LIG d   1      -3.984  90.510 116.566  0.00  0.00     0.016 C 
ATOM      3  C   LIG d   1      -5.197  90.802 115.902  0.00  0.00     0.038 C 
ATOM      4  C   LIG d   1      -5.900  91.994 116.132  0.00  0.00     0.028 C 
ATOM      5  C   LIG d   1      -5.678  92.568 117.527  0.00  0.00    -0.047 C 
ATOM      6  C   LIG d   1      -4.158  92.662 117.795  0.00  0.00     0.091 C 
ENDROOT
BRANCH   1   7
ATOM      7  O   LIG d   1      -2.045  91.480 117.418  0.00  0.00    -0.368 OA
BRANCH   7   8
ATOM      8  C   LIG d   1      -1.296  90.299 117.039  0.00  0.00     0.119 C 
BRANCH   8   9
ATOM      9  C   LIG d   1      -1.049  89.477 118.318  0.00  0.00     0.028 C 
ATOM     10  C   LIG d   1      -1.640  88.059 118.228  0.00  0.00     0.006 C 
ENDBRANCH   8   9
BRANCH   8  11
ATOM     11  C   LIG d   1       0.097  90.667 116.518  0.00  0.00     0.028 C 
ATOM     12  C   LIG d   1       0.477  92.126 116.813  0.00  0.00     0.006 C 
ENDBRANCH   8  11
ENDBRANCH   7   8
ENDBRANCH   1   7
BRANCH   6  13
ATOM     13  N   LIG d   1      -3.853  93.135 119.171  0.00  0.00    -0.311 N 
ATOM     14  C   LIG d   1      -3.114  94.213 119.428  0.00  0.00     0.210 C 
ATOM     15  C   LIG d   1      -2.905  94.514 120.915  0.00  0.00     0.109 C 
ATOM     16  O   LIG d   1      -2.638  94.966 118.565  0.00  0.00    -0.276 OA
ATOM     17  H   LIG d   1      -4.226  92.600 119.930  0.00  0.00     0.149 HD
ENDBRANCH   6  13
BRANCH   5  18
ATOM     18  N   LIG d   1      -6.356  93.877 117.584  0.00  0.00     0.381 N 
ATOM     19  H   LIG d   1      -5.834  94.552 117.062  0.00  0.00    -0.090 HD
ATOM     20  H   LIG d   1      -6.398  94.181 118.541  0.00  0.00    -0.090 HD
ATOM     21  H   LIG d   1      -7.277  93.800 117.212  0.00  0.00    -0.090 HD
ENDBRANCH   5  18
BRANCH   3  22
ATOM     22  C   LIG d   1      -5.740  89.876 115.024  0.00  0.00     0.382 C 
ATOM     23  O   LIG d   1      -6.968  89.901 114.766  0.00  0.00    -0.241 OA
ATOM     24  O   LIG d   1      -5.026  88.989 114.520  0.00  0.00    -0.241 OA
ENDBRANCH   3  22
TORSDOF 7
ENDMDL
MODEL 2
REMARK VINA RESULT:      -5.4      0.674      1.690
REMARK  7 active torsions:
REMARK  status: ('A' for Active; 'I' for Inactive)
REMARK    1  A    between atoms: C_2  and  C_3 
REMARK    2  A    between atoms: C_3  and  O_6 
REMARK    3  A    between atoms: C_3  and  C_4 
REMARK    4  A    between atoms: C_7  and  O_6 
REMARK    5  A    between atoms: C_9  and  C_10 
REMARK    6  A    between atoms: N_15  and  C_14 
REMARK    7  A    between atoms: N_20  and  C_19 
REMARK       I    between atoms: C_22  and  N_20 
ROOT
ATOM      1  C   LIG d   1      -3.691  91.320 117.389  0.00  0.00     0.161 C 
ATOM      2  C   LIG d   1      -4.327  90.659 116.325  0.00  0.00     0.016 C 
ATOM      3  C   LIG d   1      -5.561  91.077 115.775  0.00  0.00     0.038 C 
ATOM      4  C   LIG d   1      -6.173  92.280 116.156  0.00  0.00     0.028 C 
ATOM      5  C   LIG d   1      -5.825  92.714 117.576  0.00  0.00    -0.047 C 
ATOM      6  C   LIG d   1      -4.288  92.699 117.743  0.00  0.00     0.091 C 
ENDROOT
BRANCH   1   7
ATOM      7  O   LIG d   1      -2.281  91.440 117.117  0.00  0.00    -0.368 OA
BRANCH   7   8
ATOM      8  C   LIG d   1      -1.397  90.704 117.997  0.00  0.00     0.119 C 
BRANCH   8   9
ATOM      9  C   LIG d   1      -0.206  91.622 118.332  0.00  0.00     0.028 C 
ATOM     10  C   LIG d   1       0.128  92.591 117.185  0.00  0.00     0.006 C 
ENDBRANCH   8   9
BRANCH   8  11
ATOM     11  C   LIG d   1      -0.787  89.491 117.288  0.00  0.00     0.028 C 
ATOM     12  C   LIG d   1      -1.577  88.196 117.537  0.00  0.00     0.006 C 
ENDBRANCH   8  11
ENDBRANCH   7   8
ENDBRANCH   1   7
BRANCH   6  13
ATOM     13  N   LIG d   1      -3.865  93.029 119.129  0.00  0.00    -0.311 N 
ATOM     14  C   LIG d   1      -2.972  93.974 119.417  0.00  0.00     0.210 C 
ATOM     15  C   LIG d   1      -2.663  94.139 120.908  0.00  0.00     0.109 C 
ATOM     16  O   LIG d   1      -2.429  94.713 118.581  0.00  0.00    -0.276 OA
ATOM     17  H   LIG d   1      -4.279  92.499 119.871  0.00  0.00     0.149 HD
ENDBRANCH   6  13
BRANCH   5  18
ATOM     18  N   LIG d   1      -6.416  94.048 117.793  0.00  0.00     0.381 N 
ATOM     19  H   LIG d   1      -6.616  94.477 116.911  0.00  0.00    -0.090 HD
ATOM     20  H   LIG d   1      -5.752  94.623 118.281  0.00  0.00    -0.090 HD
ATOM     21  H   LIG d   1      -7.253  93.967 118.327  0.00  0.00    -0.090 HD
ENDBRANCH   5  18
BRANCH   3  22
ATOM     22  C   LIG d   1      -6.216  90.265 114.862  0.00  0.00     0.382 C 
ATOM     23  O   LIG d   1      -7.348  90.593 114.430  0.00  0.00    -0.241 OA
ATOM     24  O   LIG d   1      -5.709  89.187 114.497  0.00  0.00    -0.241 OA
ENDBRANCH   3  22
TORSDOF 7
ENDMDL
MODEL 3
REMARK VINA RESULT:      -5.1      2.799      6.396
REMARK  7 active torsions:
REMARK  status: ('A' for Active; 'I' for Inactive)
REMARK    1  A    between atoms: C_2  and  C_3 
REMARK    2  A    between atoms: C_3  and  O_6 
REMARK    3  A    between atoms: C_3  and  C_4 
REMARK    4  A    between atoms: C_7  and  O_6 
REMARK    5  A    between atoms: C_9  and  C_10 
REMARK    6  A    between atoms: N_15  and  C_14 
REMARK    7  A    between atoms: N_20  and  C_19 
REMARK       I    between atoms: C_22  and  N_20 
ROOT
ATOM      1  C   LIG d   1      -5.674  92.372 118.493  0.00  0.00     0.161 C 
ATOM      2  C   LIG d   1      -4.584  92.801 119.268  0.00  0.00     0.016 C 
ATOM      3  C   LIG d   1      -3.246  92.430 119.000  0.00  0.00     0.038 C 
ATOM      4  C   LIG d   1      -2.890  91.722 117.843  0.00  0.00     0.028 C 
ATOM      5  C   LIG d   1      -4.011  90.840 117.303  0.00  0.00    -0.047 C 
ATOM      6  C   LIG d   1      -5.294  91.690 117.162  0.00  0.00     0.091 C 
ENDROOT
BRANCH   1   7
ATOM      7  O   LIG d   1      -6.568  93.477 118.253  0.00  0.00    -0.368 OA
BRANCH   7   8
ATOM      8  C   LIG d   1      -6.673  94.455 119.317  0.00  0.00     0.119 C 
BRANCH   8   9
ATOM      9  C   LIG d   1      -7.893  94.073 120.178  0.00  0.00     0.028 C 
ATOM     10  C   LIG d   1      -7.491  93.564 121.573  0.00  0.00     0.006 C 
ENDBRANCH   8   9
BRANCH   8  11
ATOM     11  C   LIG d   1      -6.987  95.848 118.765  0.00  0.00     0.028 C 
ATOM     12  C   LIG d   1      -6.504  96.978 119.688  0.00  0.00     0.006 C 
ENDBRANCH   8  11
ENDBRANCH   7   8
ENDBRANCH   1   7
BRANCH   6  13
ATOM     13  N   LIG d   1      -6.462  90.885 116.720  0.00  0.00    -0.311 N 
ATOM     14  C   LIG d   1      -6.790  90.710 115.441  0.00  0.00     0.210 C 
ATOM     15  C   LIG d   1      -8.043  89.860 115.205  0.00  0.00     0.109 C 
ATOM     16  O   LIG d   1      -6.144  91.151 114.479  0.00  0.00    -0.276 OA
ATOM     17  H   LIG d   1      -7.023  90.464 117.435  0.00  0.00     0.149 HD
ENDBRANCH   6  13
BRANCH   5  18
ATOM     18  N   LIG d   1      -3.552  90.269 116.023  0.00  0.00     0.381 N 
ATOM     19  H   LIG d   1      -2.971  89.473 116.196  0.00  0.00    -0.090 HD
ATOM     20  H   LIG d   1      -3.006  90.958 115.537  0.00  0.00    -0.090 HD
ATOM     21  H   LIG d   1      -4.335  90.003 115.468  0.00  0.00    -0.090 HD
ENDBRANCH   5  18
BRANCH   3  22
ATOM     22  C   LIG d   1      -2.252  92.734 119.918  0.00  0.00     0.382 C 
ATOM     23  O   LIG d   1      -2.491  93.526 120.862  0.00  0.00    -0.241 OA
ATOM     24  O   LIG d   1      -1.107  92.262 119.789  0.00  0.00    -0.241 OA
ENDBRANCH   3  22
TORSDOF 7
ENDMDL
MODEL 4
REMARK VINA RESULT:      -4.8      1.819      2.725
REMARK  7 active torsions:
REMARK  status: ('A' for Active; 'I' for Inactive)
REMARK    1  A    between atoms: C_2  and  C_3 
REMARK    2  A    between atoms: C_3  and  O_6 
REMARK    3  A    between atoms: C_3  and  C_4 
REMARK    4  A    between atoms: C_7  and  O_6 
REMARK    5  A    between atoms: C_9  and  C_10 
REMARK    6  A    between atoms: N_15  and  C_14 
REMARK    7  A    between atoms: N_20  and  C_19 
REMARK       I    between atoms: C_22  and  N_20 
ROOT
ATOM      1  C   LIG d   1      -2.168  90.759 117.467  0.00  0.00     0.161 C 
ATOM      2  C   LIG d   1      -3.322  90.329 116.792  0.00  0.00     0.016 C 
ATOM      3  C   LIG d   1      -4.462  91.144 116.604  0.00  0.00     0.038 C 
ATOM      4  C   LIG d   1      -4.466  92.504 116.948  0.00  0.00     0.028 C 
ATOM      5  C   LIG d   1      -3.509  92.844 118.086  0.00  0.00    -0.047 C 
ATOM      6  C   LIG d   1      -2.111  92.274 117.752  0.00  0.00     0.091 C 
ENDROOT
BRANCH   1   7
ATOM      7  O   LIG d   1      -0.994  90.342 116.742  0.00  0.00    -0.368 OA
BRANCH   7   8
ATOM      8  C   LIG d   1      -0.136  89.386 117.413  0.00  0.00     0.119 C 
BRANCH   8   9
ATOM      9  C   LIG d   1       1.320  89.741 117.055  0.00  0.00     0.028 C 
ATOM     10  C   LIG d   1       1.449  91.145 116.441  0.00  0.00     0.006 C 
ENDBRANCH   8   9
BRANCH   8  11
ATOM     11  C   LIG d   1      -0.353  87.969 116.874  0.00  0.00     0.028 C 
ATOM     12  C   LIG d   1       0.229  86.886 117.797  0.00  0.00     0.006 C 
ENDBRANCH   8  11
ENDBRANCH   7   8
ENDBRANCH   1   7
BRANCH   6  13
ATOM     13  N   LIG d   1      -1.135  92.489 118.852  0.00  0.00    -0.311 N 
ATOM     14  C   LIG d   1      -0.255  93.490 118.866  0.00  0.00     0.210 C 
ATOM     15  C   LIG d   1       0.674  93.516 120.084  0.00  0.00     0.109 C 
ATOM     16  O   LIG d   1      -0.178  94.376 118.002  0.00  0.00    -0.276 OA
ATOM     17  H   LIG d   1      -1.149  91.834 119.609  0.00  0.00     0.149 HD
ENDBRANCH   6  13
BRANCH   5  18
ATOM     18  N   LIG d   1      -3.512  94.310 118.248  0.00  0.00     0.381 N 
ATOM     19  H   LIG d   1      -3.284  94.748 117.378  0.00  0.00    -0.090 HD
ATOM     20  H   LIG d   1      -2.812  94.564 118.923  0.00  0.00    -0.090 HD
ATOM     21  H   LIG d   1      -4.408  94.617 118.557  0.00  0.00    -0.090 HD
ENDBRANCH   5  18
BRANCH   3  22
ATOM     22  C   LIG d   1      -5.629  90.589 116.101  0.00  0.00     0.382 C 
ATOM     23  O   LIG d   1      -5.571  89.598 115.334  0.00  0.00    -0.241 OA
ATOM     24  O   LIG d   1      -6.736  91.093 116.370  0.00  0.00    -0.241 OA
ENDBRANCH   3  22
TORSDOF 7
ENDMDL
MODEL 5
REMARK VINA RESULT:      -4.8      2.393      4.815
REMARK  7 active torsions:
REMARK  status: ('A' for Active; 'I' for Inactive)
REMARK    1  A    between atoms: C_2  and  C_3 
REMARK    2  A    between atoms: C_3  and  O_6 
REMARK    3  A    between atoms: C_3  and  C_4 
REMARK    4  A    between atoms: C_7  and  O_6 
REMARK    5  A    between atoms: C_9  and  C_10 
REMARK    6  A    between atoms: N_15  and  C_14 
REMARK    7  A    between atoms: N_20  and  C_19 
REMARK       I    between atoms: C_22  and  N_20 
ROOT
ATOM      1  C   LIG d   1      -4.078  93.049 117.839  0.00  0.00     0.161 C 
ATOM      2  C   LIG d   1      -5.009  92.487 116.950  0.00  0.00     0.016 C 
ATOM      3  C   LIG d   1      -4.868  91.197 116.387  0.00  0.00     0.038 C 
ATOM      4  C   LIG d   1      -3.856  90.317 116.797  0.00  0.00     0.028 C 
ATOM      5  C   LIG d   1      -2.608  91.026 117.312  0.00  0.00    -0.047 C 
ATOM      6  C   LIG d   1      -3.025  92.061 118.383  0.00  0.00     0.091 C 
ENDROOT
BRANCH   1   7
ATOM      7  O   LIG d   1      -4.768  93.694 118.927  0.00  0.00    -0.368 OA
BRANCH   7   8
ATOM      8  C   LIG d   1      -6.198  93.864 118.763  0.00  0.00     0.119 C 
BRANCH   8   9
ATOM      9  C   LIG d   1      -6.473  95.375 118.635  0.00  0.00     0.028 C 
ATOM     10  C   LIG d   1      -7.939  95.731 118.934  0.00  0.00     0.006 C 
ENDBRANCH   8   9
BRANCH   8  11
ATOM     11  C   LIG d   1      -6.959  93.417 120.015  0.00  0.00     0.028 C 
ATOM     12  C   LIG d   1      -6.071  92.655 121.011  0.00  0.00     0.006 C 
ENDBRANCH   8  11
ENDBRANCH   7   8
ENDBRANCH   1   7
BRANCH   6  13
ATOM     13  N   LIG d   1      -1.873  92.858 118.879  0.00  0.00    -0.311 N 
ATOM     14  C   LIG d   1      -1.179  92.542 119.971  0.00  0.00     0.210 C 
ATOM     15  C   LIG d   1      -0.043  93.510 120.317  0.00  0.00     0.109 C 
ATOM     16  O   LIG d   1      -1.376  91.535 120.667  0.00  0.00    -0.276 OA
ATOM     17  H   LIG d   1      -1.625  93.675 118.356  0.00  0.00     0.149 HD
ENDBRANCH   6  13
BRANCH   5  18
ATOM     18  N   LIG d   1      -1.691  89.994 117.832  0.00  0.00     0.381 N 
ATOM     19  H   LIG d   1      -1.250  90.322 118.668  0.00  0.00    -0.090 HD
ATOM     20  H   LIG d   1      -0.977  89.818 117.147  0.00  0.00    -0.090 HD
ATOM     21  H   LIG d   1      -2.194  89.155 118.021  0.00  0.00    -0.090 HD
ENDBRANCH   5  18
BRANCH   3  22
ATOM     22  C   LIG d   1      -5.724  90.792 115.375  0.00  0.00     0.382 C 
ATOM     23  O   LIG d   1      -6.071  89.589 115.291  0.00  0.00    -0.241 OA
ATOM     24  O   LIG d   1      -6.118  91.605 114.517  0.00  0.00    -0.241 OA
ENDBRANCH   3  22
TORSDOF 7
ENDMDL
MODEL 6
REMARK VINA RESULT:      -4.8      2.461      5.005
REMARK  7 active torsions:
REMARK  status: ('A' for Active; 'I' for Inactive)
REMARK    1  A    between atoms: C_2  and  C_3 
REMARK    2  A    between atoms: C_3  and  O_6 
REMARK    3  A    between atoms: C_3  and  C_4 
REMARK    4  A    between atoms: C_7  and  O_6 
REMARK    5  A    between atoms: C_9  and  C_10 
REMARK    6  A    between atoms: N_15  and  C_14 
REMARK    7  A    between atoms: N_20  and  C_19 
REMARK       I    between atoms: C_22  and  N_20 
ROOT
ATOM      1  C   LIG d   1      -1.443  91.891 117.711  0.00  0.00     0.161 C 
ATOM      2  C   LIG d   1      -0.150  91.538 117.290  0.00  0.00     0.016 C 
ATOM      3  C   LIG d   1       0.931  92.448 117.252  0.00  0.00     0.038 C 
ATOM      4  C   LIG d   1       0.828  93.744 117.779  0.00  0.00     0.028 C 
ATOM      5  C   LIG d   1      -0.592  94.300 117.748  0.00  0.00    -0.047 C 
ATOM      6  C   LIG d   1      -1.548  93.270 118.394  0.00  0.00     0.091 C 
ENDROOT
BRANCH   1   7
ATOM      7  O   LIG d   1      -1.974  90.864 118.572  0.00  0.00    -0.368 OA
BRANCH   7   8
ATOM      8  C   LIG d   1      -2.998  90.015 117.996  0.00  0.00     0.119 C 
BRANCH   8   9
ATOM      9  C   LIG d   1      -2.320  88.701 117.563  0.00  0.00     0.028 C 
ATOM     10  C   LIG d   1      -1.866  87.852 118.762  0.00  0.00     0.006 C 
ENDBRANCH   8   9
BRANCH   8  11
ATOM     11  C   LIG d   1      -3.566  90.622 116.710  0.00  0.00     0.028 C 
ATOM     12  C   LIG d   1      -5.016  91.106 116.869  0.00  0.00     0.006 C 
ENDBRANCH   8  11
ENDBRANCH   7   8
ENDBRANCH   1   7
BRANCH   6  13
ATOM     13  N   LIG d   1      -2.969  93.698 118.329  0.00  0.00    -0.311 N 
ATOM     14  C   LIG d   1      -3.768  93.753 119.394  0.00  0.00     0.210 C 
ATOM     15  C   LIG d   1      -5.203  94.202 119.103  0.00  0.00     0.109 C 
ATOM     16  O   LIG d   1      -3.414  93.505 120.556  0.00  0.00    -0.276 OA
ATOM     17  H   LIG d   1      -3.330  93.947 117.429  0.00  0.00     0.149 HD
ENDBRANCH   6  13
BRANCH   5  18
ATOM     18  N   LIG d   1      -0.579  95.597 118.451  0.00  0.00     0.381 N 
ATOM     19  H   LIG d   1      -0.564  95.446 119.439  0.00  0.00    -0.090 HD
ATOM     20  H   LIG d   1      -1.418  96.099 118.220  0.00  0.00    -0.090 HD
ATOM     21  H   LIG d   1       0.220  96.125 118.176  0.00  0.00    -0.090 HD
ENDBRANCH   5  18
BRANCH   3  22
ATOM     22  C   LIG d   1       2.121  92.077 116.645  0.00  0.00     0.382 C 
ATOM     23  O   LIG d   1       2.241  90.930 116.150  0.00  0.00    -0.241 OA
ATOM     24  O   LIG d   1       3.091  92.858 116.626  0.00  0.00    -0.241 OA
ENDBRANCH   3  22
TORSDOF 7
ENDMDL
MODEL 7
REMARK VINA RESULT:      -4.8      2.677      4.568
REMARK  7 active torsions:
REMARK  status: ('A' for Active; 'I' for Inactive)
REMARK    1  A    between atoms: C_2  and  C_3 
REMARK    2  A    between atoms: C_3  and  O_6 
REMARK    3  A    between atoms: C_3  and  C_4 
REMARK    4  A    between atoms: C_7  and  O_6 
REMARK    5  A    between atoms: C_9  and  C_10 
REMARK    6  A    between atoms: N_15  and  C_14 
REMARK    7  A    between atoms: N_20  and  C_19 
REMARK       I    between atoms: C_22  and  N_20 
ROOT
ATOM      1  C   LIG d   1      -2.259  92.713 117.978  0.00  0.00     0.161 C 
ATOM      2  C   LIG d   1      -3.574  93.048 117.615  0.00  0.00     0.016 C 
ATOM      3  C   LIG d   1      -4.481  92.128 117.040  0.00  0.00     0.038 C 
ATOM      4  C   LIG d   1      -4.181  90.763 116.927  0.00  0.00     0.028 C 
ATOM      5  C   LIG d   1      -2.687  90.479 116.814  0.00  0.00    -0.047 C 
ATOM      6  C   LIG d   1      -1.950  91.201 117.965  0.00  0.00     0.091 C 
ENDROOT
BRANCH   1   7
ATOM      7  O   LIG d   1      -1.950  93.276 119.268  0.00  0.00    -0.368 OA
BRANCH   7   8
ATOM      8  C   LIG d   1      -1.224  94.530 119.259  0.00  0.00     0.119 C 
BRANCH   8   9
ATOM      9  C   LIG d   1      -0.754  94.781 117.813  0.00  0.00     0.028 C 
ATOM     10  C   LIG d   1      -1.223  96.142 117.271  0.00  0.00     0.006 C 
ENDBRANCH   8   9
BRANCH   8  11
ATOM     11  C   LIG d   1       0.057  94.439 120.092  0.00  0.00     0.028 C 
ATOM     12  C   LIG d   1       1.253  93.902 119.290  0.00  0.00     0.006 C 
ENDBRANCH   8  11
ENDBRANCH   7   8
ENDBRANCH   1   7
BRANCH   6  13
ATOM     13  N   LIG d   1      -0.475  91.044 117.881  0.00  0.00    -0.311 N 
ATOM     14  C   LIG d   1       0.204  90.118 118.555  0.00  0.00     0.210 C 
ATOM     15  C   LIG d   1       1.720  90.142 118.340  0.00  0.00     0.109 C 
ATOM     16  O   LIG d   1      -0.309  89.257 119.286  0.00  0.00    -0.276 OA
ATOM     17  H   LIG d   1       0.018  91.681 117.286  0.00  0.00     0.149 HD
ENDBRANCH   6  13
BRANCH   5  18
ATOM     18  N   LIG d   1      -2.508  89.015 116.842  0.00  0.00     0.381 N 
ATOM     19  H   LIG d   1      -3.292  88.569 116.408  0.00  0.00    -0.090 HD
ATOM     20  H   LIG d   1      -2.462  88.711 117.799  0.00  0.00    -0.090 HD
ATOM     21  H   LIG d   1      -1.670  88.764 116.366  0.00  0.00    -0.090 HD
ENDBRANCH   5  18
BRANCH   3  22
ATOM     22  C   LIG d   1      -5.690  92.581 116.533  0.00  0.00     0.382 C 
ATOM     23  O   LIG d   1      -5.981  92.378 115.330  0.00  0.00    -0.241 OA
ATOM     24  O   LIG d   1      -6.474  93.229 117.253  0.00  0.00    -0.241 OA
ENDBRANCH   3  22
TORSDOF 7
ENDMDL
MODEL 8
REMARK VINA RESULT:      -4.7      1.748      2.589
REMARK  7 active torsions:
REMARK  status: ('A' for Active; 'I' for Inactive)
REMARK    1  A    between atoms: C_2  and  C_3 
REMARK    2  A    between atoms: C_3  and  O_6 
REMARK    3  A    between atoms: C_3  and  C_4 
REMARK    4  A    between atoms: C_7  and  O_6 
REMARK    5  A    between atoms: C_9  and  C_10 
REMARK    6  A    between atoms: N_15  and  C_14 
REMARK    7  A    between atoms: N_20  and  C_19 
REMARK       I    between atoms: C_22  and  N_20 
ROOT
ATOM      1  C   LIG d   1      -3.406  92.609 118.837  0.00  0.00     0.161 C 
ATOM      2  C   LIG d   1      -3.620  91.614 117.868  0.00  0.00     0.016 C 
ATOM      3  C   LIG d   1      -4.756  91.576 117.028  0.00  0.00     0.038 C 
ATOM      4  C   LIG d   1      -5.689  92.623 116.997  0.00  0.00     0.028 C 
ATOM      5  C   LIG d   1      -5.780  93.394 118.309  0.00  0.00    -0.047 C 
ATOM      6  C   LIG d   1      -4.358  93.819 118.740  0.00  0.00     0.091 C 
ENDROOT
BRANCH   1   7
ATOM      7  O   LIG d   1      -2.033  93.045 118.794  0.00  0.00    -0.368 OA
BRANCH   7   8
ATOM      8  C   LIG d   1      -1.535  93.457 117.498  0.00  0.00     0.119 C 
BRANCH   8   9
ATOM      9  C   LIG d   1      -0.102  92.909 117.357  0.00  0.00     0.028 C 
ATOM     10  C   LIG d   1      -0.075  91.391 117.113  0.00  0.00     0.006 C 
ENDBRANCH   8   9
BRANCH   8  11
ATOM     11  C   LIG d   1      -1.398  94.980 117.411  0.00  0.00     0.028 C 
ATOM     12  C   LIG d   1      -1.021  95.621 118.756  0.00  0.00     0.006 C 
ENDBRANCH   8  11
ENDBRANCH   7   8
ENDBRANCH   1   7
BRANCH   6  13
ATOM     13  N   LIG d   1      -4.346  94.506 120.058  0.00  0.00    -0.311 N 
ATOM     14  C   LIG d   1      -4.406  95.830 120.196  0.00  0.00     0.210 C 
ATOM     15  C   LIG d   1      -4.361  96.332 121.642  0.00  0.00     0.109 C 
ATOM     16  O   LIG d   1      -4.524  96.634 119.259  0.00  0.00    -0.276 OA
ATOM     17  H   LIG d   1      -4.284  93.928 120.873  0.00  0.00     0.149 HD
ENDBRANCH   6  13
BRANCH   5  18
ATOM     18  N   LIG d   1      -6.685  94.538 118.093  0.00  0.00     0.381 N 
ATOM     19  H   LIG d   1      -7.550  94.382 118.571  0.00  0.00    -0.090 HD
ATOM     20  H   LIG d   1      -6.878  94.619 117.110  0.00  0.00    -0.090 HD
ATOM     21  H   LIG d   1      -6.261  95.376 118.425  0.00  0.00    -0.090 HD
ENDBRANCH   5  18
BRANCH   3  22
ATOM     22  C   LIG d   1      -4.989  90.462 116.236  0.00  0.00     0.382 C 
ATOM     23  O   LIG d   1      -4.033  89.726 115.894  0.00  0.00    -0.241 OA
ATOM     24  O   LIG d   1      -6.137  90.209 115.823  0.00  0.00    -0.241 OA
ENDBRANCH   3  22
TORSDOF 7
ENDMDL
MODEL 9
REMARK VINA RESULT:      -4.7      2.675      5.412
REMARK  7 active torsions:
REMARK  status: ('A' for Active; 'I' for Inactive)
REMARK    1  A    between atoms: C_2  and  C_3 
REMARK    2  A    between atoms: C_3  and  O_6 
REMARK    3  A    between atoms: C_3  and  C_4 
REMARK    4  A    between atoms: C_7  and  O_6 
REMARK    5  A    between atoms: C_9  and  C_10 
REMARK    6  A    between atoms: N_15  and  C_14 
REMARK    7  A    between atoms: N_20  and  C_19 
REMARK       I    between atoms: C_22  and  N_20 
ROOT
ATOM      1  C   LIG d   1      -2.199  93.373 117.516  0.00  0.00     0.161 C 
ATOM      2  C   LIG d   1      -1.058  92.666 117.102  0.00  0.00     0.016 C 
ATOM      3  C   LIG d   1       0.254  92.997 117.514  0.00  0.00     0.038 C 
ATOM      4  C   LIG d   1       0.500  93.970 118.494  0.00  0.00     0.028 C 
ATOM      5  C   LIG d   1      -0.577  95.047 118.562  0.00  0.00    -0.047 C 
ATOM      6  C   LIG d   1      -1.961  94.367 118.672  0.00  0.00     0.091 C 
ENDROOT
BRANCH   1   7
ATOM      7  O   LIG d   1      -3.249  92.447 117.860  0.00  0.00    -0.368 OA
BRANCH   7   8
ATOM      8  C   LIG d   1      -4.404  92.439 116.986  0.00  0.00     0.119 C 
BRANCH   8   9
ATOM      9  C   LIG d   1      -5.620  92.885 117.821  0.00  0.00     0.028 C 
ATOM     10  C   LIG d   1      -5.453  92.568 119.317  0.00  0.00     0.006 C 
ENDBRANCH   8   9
BRANCH   8  11
ATOM     11  C   LIG d   1      -4.735  91.021 116.513  0.00  0.00     0.028 C 
ATOM     12  C   LIG d   1      -6.197  90.869 116.063  0.00  0.00     0.006 C 
ENDBRANCH   8  11
ENDBRANCH   7   8
ENDBRANCH   1   7
BRANCH   6  13
ATOM     13  N   LIG d   1      -3.077  95.348 118.659  0.00  0.00    -0.311 N 
ATOM     14  C   LIG d   1      -3.653  95.817 119.764  0.00  0.00     0.210 C 
ATOM     15  C   LIG d   1      -4.800  96.805 119.526  0.00  0.00     0.109 C 
ATOM     16  O   LIG d   1      -3.302  95.534 120.920  0.00  0.00    -0.276 OA
ATOM     17  H   LIG d   1      -3.404  95.655 117.764  0.00  0.00     0.149 HD
ENDBRANCH   6  13
BRANCH   5  18
ATOM     18  N   LIG d   1      -0.266  95.915 119.713  0.00  0.00     0.381 N 
ATOM     19  H   LIG d   1      -0.540  95.463 120.563  0.00  0.00    -0.090 HD
ATOM     20  H   LIG d   1      -0.790  96.769 119.628  0.00  0.00    -0.090 HD
ATOM     21  H   LIG d   1       0.709  96.117 119.735  0.00  0.00    -0.090 HD
ENDBRANCH   5  18
BRANCH   3  22
ATOM     22  C   LIG d   1       1.339  92.377 116.913  0.00  0.00     0.382 C 
ATOM     23  O   LIG d   1       2.418  93.002 116.771  0.00  0.00    -0.241 OA
ATOM     24  O   LIG d   1       1.240  91.217 116.472  0.00  0.00    -0.241 OA
ENDBRANCH   3  22
TORSDOF 7
ENDMDL
