MODEL 1
REMARK VINA RESULT:      -5.3      0.000      0.000
REMARK  7 active torsions:
REMARK  status: ('A' for Active; 'I' for Inactive)
REMARK    1  A    between atoms: C_2  and  C_3 
REMARK    2  A    between atoms: C_3  and  O_6 
REMARK    3  A    between atoms: C_3  and  C_4 
REMARK    4  A    between atoms: C_7  and  O_6 
REMARK    5  A    between atoms: C_9  and  C_10 
REMARK    6  A    between atoms: N_15  and  C_14 
REMARK    7  A    between atoms: N_20  and  C_19 
REMARK       I    between atoms: C_22  and  N_20 
ROOT
ATOM      1  C   LIG d   1      -5.511  92.445 117.338  0.00  0.00     0.161 C 
ATOM      2  C   LIG d   1      -6.555  91.569 116.997  0.00  0.00     0.016 C 
ATOM      3  C   LIG d   1      -6.347  90.232 116.587  0.00  0.00     0.038 C 
ATOM      4  C   LIG d   1      -5.080  89.630 116.636  0.00  0.00     0.028 C 
ATOM      5  C   LIG d   1      -3.932  90.623 116.491  0.00  0.00    -0.047 C 
ATOM      6  C   LIG d   1      -4.132  91.773 117.504  0.00  0.00     0.091 C 
ENDROOT
BRANCH   1   7
ATOM      7  O   LIG d   1      -5.858  93.178 118.529  0.00  0.00    -0.368 OA
BRANCH   7   8
ATOM      8  C   LIG d   1      -6.598  94.407 118.328  0.00  0.00     0.119 C 
BRANCH   8   9
ATOM      9  C   LIG d   1      -5.741  95.560 118.885  0.00  0.00     0.028 C 
ATOM     10  C   LIG d   1      -5.074  95.202 120.224  0.00  0.00     0.006 C 
ENDBRANCH   8   9
BRANCH   8  11
ATOM     11  C   LIG d   1      -7.887  94.423 119.154  0.00  0.00     0.028 C 
ATOM     12  C   LIG d   1      -8.774  95.641 118.851  0.00  0.00     0.006 C 
ENDBRANCH   8  11
ENDBRANCH   7   8
ENDBRANCH   1   7
BRANCH   6  13
ATOM     13  N   LIG d   1      -3.097  92.831 117.371  0.00  0.00    -0.311 N 
ATOM     14  C   LIG d   1      -2.365  93.274 118.393  0.00  0.00     0.210 C 
ATOM     15  C   LIG d   1      -1.369  94.383 118.042  0.00  0.00     0.109 C 
ATOM     16  O   LIG d   1      -2.425  92.830 119.549  0.00  0.00    -0.276 OA
ATOM     17  H   LIG d   1      -2.961  93.225 116.461  0.00  0.00     0.149 HD
ENDBRANCH   6  13
BRANCH   5  18
ATOM     18  N   LIG d   1      -2.673  89.882 116.698  0.00  0.00     0.381 N 
ATOM     19  H   LIG d   1      -2.875  88.927 116.920  0.00  0.00    -0.090 HD
ATOM     20  H   LIG d   1      -2.181  90.288 117.473  0.00  0.00    -0.090 HD
ATOM     21  H   LIG d   1      -2.111  89.928 115.877  0.00  0.00    -0.090 HD
ENDBRANCH   5  18
BRANCH   3  22
ATOM     22  C   LIG d   1      -7.407  89.494 116.084  0.00  0.00     0.382 C 
ATOM     23  O   LIG d   1      -8.117  88.808 116.858  0.00  0.00    -0.241 OA
ATOM     24  O   LIG d   1      -7.636  89.471 114.860  0.00  0.00    -0.241 OA
ENDBRANCH   3  22
TORSDOF 7
ENDMDL
MODEL 2
REMARK VINA RESULT:      -5.3      2.363      4.796
REMARK  7 active torsions:
REMARK  status: ('A' for Active; 'I' for Inactive)
REMARK    1  A    between atoms: C_2  and  C_3 
REMARK    2  A    between atoms: C_3  and  O_6 
REMARK    3  A    between atoms: C_3  and  C_4 
REMARK    4  A    between atoms: C_7  and  O_6 
REMARK    5  A    between atoms: C_9  and  C_10 
REMARK    6  A    between atoms: N_15  and  C_14 
REMARK    7  A    between atoms: N_20  and  C_19 
REMARK       I    between atoms: C_22  and  N_20 
ROOT
ATOM      1  C   LIG d   1      -3.981  90.980 117.747  0.00  0.00     0.161 C 
ATOM      2  C   LIG d   1      -4.403  90.180 116.672  0.00  0.00     0.016 C 
ATOM      3  C   LIG d   1      -5.507  90.502 115.848  0.00  0.00     0.038 C 
ATOM      4  C   LIG d   1      -6.174  91.732 115.951  0.00  0.00     0.028 C 
ATOM      5  C   LIG d   1      -6.104  92.344 117.346  0.00  0.00    -0.047 C 
ATOM      6  C   LIG d   1      -4.628  92.379 117.805  0.00  0.00     0.091 C 
ENDROOT
BRANCH   1   7
ATOM      7  O   LIG d   1      -2.544  91.092 117.737  0.00  0.00    -0.368 OA
BRANCH   7   8
ATOM      8  C   LIG d   1      -1.810  89.864 117.503  0.00  0.00     0.119 C 
BRANCH   8   9
ATOM      9  C   LIG d   1      -1.642  89.159 118.863  0.00  0.00     0.028 C 
ATOM     10  C   LIG d   1      -2.399  87.822 118.928  0.00  0.00     0.006 C 
ENDBRANCH   8   9
BRANCH   8  11
ATOM     11  C   LIG d   1      -0.387  90.150 117.016  0.00  0.00     0.028 C 
ATOM     12  C   LIG d   1       0.064  91.590 117.306  0.00  0.00     0.006 C 
ENDBRANCH   8  11
ENDBRANCH   7   8
ENDBRANCH   1   7
BRANCH   6  13
ATOM     13  N   LIG d   1      -4.478  92.887 119.193  0.00  0.00    -0.311 N 
ATOM     14  C   LIG d   1      -3.605  93.832 119.538  0.00  0.00     0.210 C 
ATOM     15  C   LIG d   1      -3.599  94.195 121.026  0.00  0.00     0.109 C 
ATOM     16  O   LIG d   1      -2.858  94.427 118.747  0.00  0.00    -0.276 OA
ATOM     17  H   LIG d   1      -5.067  92.481 119.894  0.00  0.00     0.149 HD
ENDBRANCH   6  13
BRANCH   5  18
ATOM     18  N   LIG d   1      -6.719  93.683 117.276  0.00  0.00     0.381 N 
ATOM     19  H   LIG d   1      -6.723  94.005 116.329  0.00  0.00    -0.090 HD
ATOM     20  H   LIG d   1      -6.171  94.322 117.825  0.00  0.00    -0.090 HD
ATOM     21  H   LIG d   1      -7.651  93.649 117.626  0.00  0.00    -0.090 HD
ENDBRANCH   5  18
BRANCH   3  22
ATOM     22  C   LIG d   1      -5.978  89.571 114.935  0.00  0.00     0.382 C 
ATOM     23  O   LIG d   1      -5.192  88.731 114.435  0.00  0.00    -0.241 OA
ATOM     24  O   LIG d   1      -7.169  89.590 114.572  0.00  0.00    -0.241 OA
ENDBRANCH   3  22
TORSDOF 7
ENDMDL
MODEL 3
REMARK VINA RESULT:      -5.2      2.304      4.697
REMARK  7 active torsions:
REMARK  status: ('A' for Active; 'I' for Inactive)
REMARK    1  A    between atoms: C_2  and  C_3 
REMARK    2  A    between atoms: C_3  and  O_6 
REMARK    3  A    between atoms: C_3  and  C_4 
REMARK    4  A    between atoms: C_7  and  O_6 
REMARK    5  A    between atoms: C_9  and  C_10 
REMARK    6  A    between atoms: N_15  and  C_14 
REMARK    7  A    between atoms: N_20  and  C_19 
REMARK       I    between atoms: C_22  and  N_20 
ROOT
ATOM      1  C   LIG d   1      -3.619  91.052 117.876  0.00  0.00     0.161 C 
ATOM      2  C   LIG d   1      -4.428  90.238 117.066  0.00  0.00     0.016 C 
ATOM      3  C   LIG d   1      -5.685  90.644 116.563  0.00  0.00     0.038 C 
ATOM      4  C   LIG d   1      -6.153  91.958 116.712  0.00  0.00     0.028 C 
ATOM      5  C   LIG d   1      -5.602  92.661 117.948  0.00  0.00    -0.047 C 
ATOM      6  C   LIG d   1      -4.062  92.528 117.957  0.00  0.00     0.091 C 
ENDROOT
BRANCH   1   7
ATOM      7  O   LIG d   1      -2.247  90.964 117.441  0.00  0.00    -0.368 OA
BRANCH   7   8
ATOM      8  C   LIG d   1      -1.376  90.131 118.245  0.00  0.00     0.119 C 
BRANCH   8   9
ATOM      9  C   LIG d   1      -0.188  91.002 118.695  0.00  0.00     0.028 C 
ATOM     10  C   LIG d   1       0.386  91.850 117.547  0.00  0.00     0.006 C 
ENDBRANCH   8   9
BRANCH   8  11
ATOM     11  C   LIG d   1      -0.760  89.003 117.413  0.00  0.00     0.028 C 
ATOM     12  C   LIG d   1      -1.677  87.775 117.301  0.00  0.00     0.006 C 
ENDBRANCH   8  11
ENDBRANCH   7   8
ENDBRANCH   1   7
BRANCH   6  13
ATOM     13  N   LIG d   1      -3.449  93.115 119.176  0.00  0.00    -0.311 N 
ATOM     14  C   LIG d   1      -2.443  93.988 119.144  0.00  0.00     0.210 C 
ATOM     15  C   LIG d   1      -1.947  94.454 120.516  0.00  0.00     0.109 C 
ATOM     16  O   LIG d   1      -1.936  94.444 118.108  0.00  0.00    -0.276 OA
ATOM     17  H   LIG d   1      -3.821  92.824 120.059  0.00  0.00     0.149 HD
ENDBRANCH   6  13
BRANCH   5  18
ATOM     18  N   LIG d   1      -6.061  94.063 117.905  0.00  0.00     0.381 N 
ATOM     19  H   LIG d   1      -7.051  94.091 117.767  0.00  0.00    -0.090 HD
ATOM     20  H   LIG d   1      -5.621  94.525 117.129  0.00  0.00    -0.090 HD
ATOM     21  H   LIG d   1      -5.823  94.525 118.755  0.00  0.00    -0.090 HD
ENDBRANCH   5  18
BRANCH   3  22
ATOM     22  C   LIG d   1      -6.506  89.720 115.936  0.00  0.00     0.382 C 
ATOM     23  O   LIG d   1      -7.407  89.138 116.587  0.00  0.00    -0.241 OA
ATOM     24  O   LIG d   1      -6.329  89.428 114.738  0.00  0.00    -0.241 OA
ENDBRANCH   3  22
TORSDOF 7
ENDMDL
MODEL 4
REMARK VINA RESULT:      -4.9      2.221      4.472
REMARK  7 active torsions:
REMARK  status: ('A' for Active; 'I' for Inactive)
REMARK    1  A    between atoms: C_2  and  C_3 
REMARK    2  A    between atoms: C_3  and  O_6 
REMARK    3  A    between atoms: C_3  and  C_4 
REMARK    4  A    between atoms: C_7  and  O_6 
REMARK    5  A    between atoms: C_9  and  C_10 
REMARK    6  A    between atoms: N_15  and  C_14 
REMARK    7  A    between atoms: N_20  and  C_19 
REMARK       I    between atoms: C_22  and  N_20 
ROOT
ATOM      1  C   LIG d   1      -4.269  91.300 118.921  0.00  0.00     0.161 C 
ATOM      2  C   LIG d   1      -4.723  90.454 117.896  0.00  0.00     0.016 C 
ATOM      3  C   LIG d   1      -5.659  90.853 116.915  0.00  0.00     0.038 C 
ATOM      4  C   LIG d   1      -6.094  92.182 116.802  0.00  0.00     0.028 C 
ATOM      5  C   LIG d   1      -6.050  92.948 118.120  0.00  0.00    -0.047 C 
ATOM      6  C   LIG d   1      -4.647  92.786 118.748  0.00  0.00     0.091 C 
ENDROOT
BRANCH   1   7
ATOM      7  O   LIG d   1      -2.842  91.161 119.073  0.00  0.00    -0.368 OA
BRANCH   7   8
ATOM      8  C   LIG d   1      -2.045  91.438 117.896  0.00  0.00     0.119 C 
BRANCH   8   9
ATOM      9  C   LIG d   1      -1.198  90.184 117.604  0.00  0.00     0.028 C 
ATOM     10  C   LIG d   1       0.148  90.525 116.944  0.00  0.00     0.006 C 
ENDBRANCH   8   9
BRANCH   8  11
ATOM     11  C   LIG d   1      -1.034  92.558 118.158  0.00  0.00     0.028 C 
ATOM     12  C   LIG d   1      -1.331  93.830 117.348  0.00  0.00     0.006 C 
ENDBRANCH   8  11
ENDBRANCH   7   8
ENDBRANCH   1   7
BRANCH   6  13
ATOM     13  N   LIG d   1      -4.544  93.435 120.081  0.00  0.00    -0.311 N 
ATOM     14  C   LIG d   1      -4.119  94.684 120.258  0.00  0.00     0.210 C 
ATOM     15  C   LIG d   1      -4.071  95.151 121.716  0.00  0.00     0.109 C 
ATOM     16  O   LIG d   1      -3.807  95.461 119.343  0.00  0.00    -0.276 OA
ATOM     17  H   LIG d   1      -4.807  92.886 120.877  0.00  0.00     0.149 HD
ENDBRANCH   6  13
BRANCH   5  18
ATOM     18  N   LIG d   1      -6.396  94.352 117.832  0.00  0.00     0.381 N 
ATOM     19  H   LIG d   1      -5.608  94.820 117.429  0.00  0.00    -0.090 HD
ATOM     20  H   LIG d   1      -6.630  94.813 118.693  0.00  0.00    -0.090 HD
ATOM     21  H   LIG d   1      -7.170  94.391 117.205  0.00  0.00    -0.090 HD
ENDBRANCH   5  18
BRANCH   3  22
ATOM     22  C   LIG d   1      -6.202  89.908 116.057  0.00  0.00     0.382 C 
ATOM     23  O   LIG d   1      -5.804  89.838 114.869  0.00  0.00    -0.241 OA
ATOM     24  O   LIG d   1      -7.115  89.154 116.444  0.00  0.00    -0.241 OA
ENDBRANCH   3  22
TORSDOF 7
ENDMDL
MODEL 5
REMARK VINA RESULT:      -4.9      2.017      4.581
REMARK  7 active torsions:
REMARK  status: ('A' for Active; 'I' for Inactive)
REMARK    1  A    between atoms: C_2  and  C_3 
REMARK    2  A    between atoms: C_3  and  O_6 
REMARK    3  A    between atoms: C_3  and  C_4 
REMARK    4  A    between atoms: C_7  and  O_6 
REMARK    5  A    between atoms: C_9  and  C_10 
REMARK    6  A    between atoms: N_15  and  C_14 
REMARK    7  A    between atoms: N_20  and  C_19 
REMARK       I    between atoms: C_22  and  N_20 
ROOT
ATOM      1  C   LIG d   1      -5.988  91.887 118.480  0.00  0.00     0.161 C 
ATOM      2  C   LIG d   1      -5.168  92.160 119.587  0.00  0.00     0.016 C 
ATOM      3  C   LIG d   1      -3.812  91.766 119.667  0.00  0.00     0.038 C 
ATOM      4  C   LIG d   1      -3.138  91.201 118.574  0.00  0.00     0.028 C 
ATOM      5  C   LIG d   1      -4.059  90.450 117.617  0.00  0.00    -0.047 C 
ATOM      6  C   LIG d   1      -5.240  91.370 117.233  0.00  0.00     0.091 C 
ENDROOT
BRANCH   1   7
ATOM      7  O   LIG d   1      -6.766  93.054 118.149  0.00  0.00    -0.368 OA
BRANCH   7   8
ATOM      8  C   LIG d   1      -6.806  94.099 119.152  0.00  0.00     0.119 C 
BRANCH   8   9
ATOM      9  C   LIG d   1      -8.232  94.126 119.735  0.00  0.00     0.028 C 
ATOM     10  C   LIG d   1      -9.085  95.263 119.147  0.00  0.00     0.006 C 
ENDBRANCH   8   9
BRANCH   8  11
ATOM     11  C   LIG d   1      -6.598  95.481 118.526  0.00  0.00     0.028 C 
ATOM     12  C   LIG d   1      -5.362  96.206 119.082  0.00  0.00     0.006 C 
ENDBRANCH   8  11
ENDBRANCH   7   8
ENDBRANCH   1   7
BRANCH   6  13
ATOM     13  N   LIG d   1      -6.233  90.684 116.365  0.00  0.00    -0.311 N 
ATOM     14  C   LIG d   1      -6.580  91.126 115.157  0.00  0.00     0.210 C 
ATOM     15  C   LIG d   1      -7.636  90.280 114.438  0.00  0.00     0.109 C 
ATOM     16  O   LIG d   1      -6.089  92.119 114.600  0.00  0.00    -0.276 OA
ATOM     17  H   LIG d   1      -6.657  89.853 116.727  0.00  0.00     0.149 HD
ENDBRANCH   6  13
BRANCH   5  18
ATOM     18  N   LIG d   1      -3.250  90.033 116.457  0.00  0.00     0.381 N 
ATOM     19  H   LIG d   1      -2.625  90.769 116.196  0.00  0.00    -0.090 HD
ATOM     20  H   LIG d   1      -3.863  89.850 115.682  0.00  0.00    -0.090 HD
ATOM     21  H   LIG d   1      -2.732  89.211 116.680  0.00  0.00    -0.090 HD
ENDBRANCH   5  18
BRANCH   3  22
ATOM     22  C   LIG d   1      -3.127  91.900 120.865  0.00  0.00     0.382 C 
ATOM     23  O   LIG d   1      -3.714  92.359 121.875  0.00  0.00    -0.241 OA
ATOM     24  O   LIG d   1      -1.918  91.610 120.938  0.00  0.00    -0.241 OA
ENDBRANCH   3  22
TORSDOF 7
ENDMDL
MODEL 6
REMARK VINA RESULT:      -4.9      1.536      2.004
REMARK  7 active torsions:
REMARK  status: ('A' for Active; 'I' for Inactive)
REMARK    1  A    between atoms: C_2  and  C_3 
REMARK    2  A    between atoms: C_3  and  O_6 
REMARK    3  A    between atoms: C_3  and  C_4 
REMARK    4  A    between atoms: C_7  and  O_6 
REMARK    5  A    between atoms: C_9  and  C_10 
REMARK    6  A    between atoms: N_15  and  C_14 
REMARK    7  A    between atoms: N_20  and  C_19 
REMARK       I    between atoms: C_22  and  N_20 
ROOT
ATOM      1  C   LIG d   1      -4.499  92.238 117.352  0.00  0.00     0.161 C 
ATOM      2  C   LIG d   1      -5.715  91.672 116.933  0.00  0.00     0.016 C 
ATOM      3  C   LIG d   1      -5.855  90.314 116.567  0.00  0.00     0.038 C 
ATOM      4  C   LIG d   1      -4.816  89.387 116.740  0.00  0.00     0.028 C 
ATOM      5  C   LIG d   1      -3.428  90.016 116.683  0.00  0.00    -0.047 C 
ATOM      6  C   LIG d   1      -3.381  91.218 117.654  0.00  0.00     0.091 C 
ENDROOT
BRANCH   1   7
ATOM      7  O   LIG d   1      -4.724  93.088 118.494  0.00  0.00    -0.368 OA
BRANCH   7   8
ATOM      8  C   LIG d   1      -5.983  92.904 119.188  0.00  0.00     0.119 C 
BRANCH   8   9
ATOM      9  C   LIG d   1      -6.586  94.301 119.431  0.00  0.00     0.028 C 
ATOM     10  C   LIG d   1      -7.358  94.827 118.210  0.00  0.00     0.006 C 
ENDBRANCH   8   9
BRANCH   8  11
ATOM     11  C   LIG d   1      -5.769  92.306 120.582  0.00  0.00     0.028 C 
ATOM     12  C   LIG d   1      -6.393  93.158 121.698  0.00  0.00     0.006 C 
ENDBRANCH   8  11
ENDBRANCH   7   8
ENDBRANCH   1   7
BRANCH   6  13
ATOM     13  N   LIG d   1      -2.085  91.942 117.598  0.00  0.00    -0.311 N 
ATOM     14  C   LIG d   1      -1.066  91.685 118.416  0.00  0.00     0.210 C 
ATOM     15  C   LIG d   1       0.173  92.561 118.201  0.00  0.00     0.109 C 
ATOM     16  O   LIG d   1      -1.058  90.794 119.279  0.00  0.00    -0.276 OA
ATOM     17  H   LIG d   1      -1.993  92.661 116.907  0.00  0.00     0.149 HD
ENDBRANCH   6  13
BRANCH   5  18
ATOM     18  N   LIG d   1      -2.449  88.965 117.016  0.00  0.00     0.381 N 
ATOM     19  H   LIG d   1      -2.722  88.502 117.860  0.00  0.00    -0.090 HD
ATOM     20  H   LIG d   1      -1.552  89.392 117.167  0.00  0.00    -0.090 HD
ATOM     21  H   LIG d   1      -2.390  88.306 116.271  0.00  0.00    -0.090 HD
ENDBRANCH   5  18
BRANCH   3  22
ATOM     22  C   LIG d   1      -7.035  89.878 115.982  0.00  0.00     0.382 C 
ATOM     23  O   LIG d   1      -7.437  90.403 114.916  0.00  0.00    -0.241 OA
ATOM     24  O   LIG d   1      -7.725  88.998 116.530  0.00  0.00    -0.241 OA
ENDBRANCH   3  22
TORSDOF 7
ENDMDL
MODEL 7
REMARK VINA RESULT:      -4.9      2.828      6.681
REMARK  7 active torsions:
REMARK  status: ('A' for Active; 'I' for Inactive)
REMARK    1  A    between atoms: C_2  and  C_3 
REMARK    2  A    between atoms: C_3  and  O_6 
REMARK    3  A    between atoms: C_3  and  C_4 
REMARK    4  A    between atoms: C_7  and  O_6 
REMARK    5  A    between atoms: C_9  and  C_10 
REMARK    6  A    between atoms: N_15  and  C_14 
REMARK    7  A    between atoms: N_20  and  C_19 
REMARK       I    between atoms: C_22  and  N_20 
ROOT
ATOM      1  C   LIG d   1      -3.454  90.765 117.650  0.00  0.00     0.161 C 
ATOM      2  C   LIG d   1      -2.734  91.356 118.702  0.00  0.00     0.016 C 
ATOM      3  C   LIG d   1      -3.327  92.186 119.680  0.00  0.00     0.038 C 
ATOM      4  C   LIG d   1      -4.717  92.361 119.761  0.00  0.00     0.028 C 
ATOM      5  C   LIG d   1      -5.427  92.192 118.423  0.00  0.00    -0.047 C 
ATOM      6  C   LIG d   1      -4.988  90.853 117.787  0.00  0.00     0.091 C 
ENDROOT
BRANCH   1   7
ATOM      7  O   LIG d   1      -3.044  89.392 117.488  0.00  0.00    -0.368 OA
BRANCH   7   8
ATOM      8  C   LIG d   1      -1.834  89.003 118.183  0.00  0.00     0.119 C 
BRANCH   8   9
ATOM      9  C   LIG d   1      -0.742  88.777 117.120  0.00  0.00     0.028 C 
ATOM     10  C   LIG d   1      -0.540  87.288 116.793  0.00  0.00     0.006 C 
ENDBRANCH   8   9
BRANCH   8  11
ATOM     11  C   LIG d   1      -2.004  87.651 118.883  0.00  0.00     0.028 C 
ATOM     12  C   LIG d   1      -2.895  87.734 120.132  0.00  0.00     0.006 C 
ENDBRANCH   8  11
ENDBRANCH   7   8
ENDBRANCH   1   7
BRANCH   6  13
ATOM     13  N   LIG d   1      -5.573  90.649 116.435  0.00  0.00    -0.311 N 
ATOM     14  C   LIG d   1      -6.732  90.029 116.224  0.00  0.00     0.210 C 
ATOM     15  C   LIG d   1      -7.142  89.907 114.753  0.00  0.00     0.109 C 
ATOM     16  O   LIG d   1      -7.475  89.595 117.117  0.00  0.00    -0.276 OA
ATOM     17  H   LIG d   1      -5.050  90.997 115.655  0.00  0.00     0.149 HD
ENDBRANCH   6  13
BRANCH   5  18
ATOM     18  N   LIG d   1      -6.879  92.263 118.677  0.00  0.00     0.381 N 
ATOM     19  H   LIG d   1      -7.156  93.217 118.794  0.00  0.00    -0.090 HD
ATOM     20  H   LIG d   1      -7.085  91.768 119.526  0.00  0.00    -0.090 HD
ATOM     21  H   LIG d   1      -7.378  91.856 117.917  0.00  0.00    -0.090 HD
ENDBRANCH   5  18
BRANCH   3  22
ATOM     22  C   LIG d   1      -2.523  92.885 120.568  0.00  0.00     0.382 C 
ATOM     23  O   LIG d   1      -1.416  93.338 120.188  0.00  0.00    -0.241 OA
ATOM     24  O   LIG d   1      -2.870  93.029 121.755  0.00  0.00    -0.241 OA
ENDBRANCH   3  22
TORSDOF 7
ENDMDL
MODEL 8
REMARK VINA RESULT:      -4.8      3.324      5.808
REMARK  7 active torsions:
REMARK  status: ('A' for Active; 'I' for Inactive)
REMARK    1  A    between atoms: C_2  and  C_3 
REMARK    2  A    between atoms: C_3  and  O_6 
REMARK    3  A    between atoms: C_3  and  C_4 
REMARK    4  A    between atoms: C_7  and  O_6 
REMARK    5  A    between atoms: C_9  and  C_10 
REMARK    6  A    between atoms: N_15  and  C_14 
REMARK    7  A    between atoms: N_20  and  C_19 
REMARK       I    between atoms: C_22  and  N_20 
ROOT
ATOM      1  C   LIG d   1      -2.541  89.900 117.724  0.00  0.00     0.161 C 
ATOM      2  C   LIG d   1      -3.816  89.700 117.169  0.00  0.00     0.016 C 
ATOM      3  C   LIG d   1      -4.735  90.749 116.934  0.00  0.00     0.038 C 
ATOM      4  C   LIG d   1      -4.381  92.096 117.100  0.00  0.00     0.028 C 
ATOM      5  C   LIG d   1      -3.281  92.311 118.135  0.00  0.00    -0.047 C 
ATOM      6  C   LIG d   1      -2.095  91.374 117.808  0.00  0.00     0.091 C 
ENDROOT
BRANCH   1   7
ATOM      7  O   LIG d   1      -1.566  89.122 117.001  0.00  0.00    -0.368 OA
BRANCH   7   8
ATOM      8  C   LIG d   1      -1.282  87.804 117.532  0.00  0.00     0.119 C 
BRANCH   8   9
ATOM      9  C   LIG d   1      -1.110  87.946 119.057  0.00  0.00     0.028 C 
ATOM     10  C   LIG d   1      -2.007  86.974 119.842  0.00  0.00     0.006 C 
ENDBRANCH   8   9
BRANCH   8  11
ATOM     11  C   LIG d   1       0.061  87.275 117.020  0.00  0.00     0.028 C 
ATOM     12  C   LIG d   1       1.264  87.909 117.738  0.00  0.00     0.006 C 
ENDBRANCH   8  11
ENDBRANCH   7   8
ENDBRANCH   1   7
BRANCH   6  13
ATOM     13  N   LIG d   1      -1.011  91.460 118.820  0.00  0.00    -0.311 N 
ATOM     14  C   LIG d   1       0.254  91.748 118.517  0.00  0.00     0.210 C 
ATOM     15  C   LIG d   1       1.217  91.765 119.709  0.00  0.00     0.109 C 
ATOM     16  O   LIG d   1       0.664  92.022 117.379  0.00  0.00    -0.276 OA
ATOM     17  H   LIG d   1      -1.261  91.282 119.773  0.00  0.00     0.149 HD
ENDBRANCH   6  13
BRANCH   5  18
ATOM     18  N   LIG d   1      -2.915  93.739 118.106  0.00  0.00     0.381 N 
ATOM     19  H   LIG d   1      -2.075  93.884 118.630  0.00  0.00    -0.090 HD
ATOM     20  H   LIG d   1      -3.651  94.272 118.536  0.00  0.00    -0.090 HD
ATOM     21  H   LIG d   1      -2.784  94.039 117.165  0.00  0.00    -0.090 HD
ENDBRANCH   5  18
BRANCH   3  22
ATOM     22  C   LIG d   1      -6.038  90.451 116.566  0.00  0.00     0.382 C 
ATOM     23  O   LIG d   1      -6.869  91.376 116.398  0.00  0.00    -0.241 OA
ATOM     24  O   LIG d   1      -6.405  89.267 116.443  0.00  0.00    -0.241 OA
ENDBRANCH   3  22
TORSDOF 7
ENDMDL
MODEL 9
REMARK VINA RESULT:      -4.7      1.643      2.160
REMARK  7 active torsions:
REMARK  status: ('A' for Active; 'I' for Inactive)
REMARK    1  A    between atoms: C_2  and  C_3 
REMARK    2  A    between atoms: C_3  and  O_6 
REMARK    3  A    between atoms: C_3  and  C_4 
REMARK    4  A    between atoms: C_7  and  O_6 
REMARK    5  A    between atoms: C_9  and  C_10 
REMARK    6  A    between atoms: N_15  and  C_14 
REMARK    7  A    between atoms: N_20  and  C_19 
REMARK       I    between atoms: C_22  and  N_20 
ROOT
ATOM      1  C   LIG d   1      -5.616  93.023 118.588  0.00  0.00     0.161 C 
ATOM      2  C   LIG d   1      -6.264  91.882 118.087  0.00  0.00     0.016 C 
ATOM      3  C   LIG d   1      -5.586  90.822 117.442  0.00  0.00     0.038 C 
ATOM      4  C   LIG d   1      -4.185  90.761 117.389  0.00  0.00     0.028 C 
ATOM      5  C   LIG d   1      -3.517  92.131 117.435  0.00  0.00    -0.047 C 
ATOM      6  C   LIG d   1      -4.077  92.922 118.639  0.00  0.00     0.091 C 
ENDROOT
BRANCH   1   7
ATOM      7  O   LIG d   1      -6.140  93.349 119.891  0.00  0.00    -0.368 OA
BRANCH   7   8
ATOM      8  C   LIG d   1      -7.459  93.947 119.915  0.00  0.00     0.119 C 
BRANCH   8   9
ATOM      9  C   LIG d   1      -7.386  95.263 119.117  0.00  0.00     0.028 C 
ATOM     10  C   LIG d   1      -8.778  95.851 118.827  0.00  0.00     0.006 C 
ENDBRANCH   8   9
BRANCH   8  11
ATOM     11  C   LIG d   1      -7.859  94.356 121.336  0.00  0.00     0.028 C 
ATOM     12  C   LIG d   1      -9.126  93.638 121.828  0.00  0.00     0.006 C 
ENDBRANCH   8  11
ENDBRANCH   7   8
ENDBRANCH   1   7
BRANCH   6  13
ATOM     13  N   LIG d   1      -3.538  94.305 118.708  0.00  0.00    -0.311 N 
ATOM     14  C   LIG d   1      -2.896  94.790 119.770  0.00  0.00     0.210 C 
ATOM     15  C   LIG d   1      -2.440  96.247 119.640  0.00  0.00     0.109 C 
ATOM     16  O   LIG d   1      -2.632  94.142 120.794  0.00  0.00    -0.276 OA
ATOM     17  H   LIG d   1      -3.680  94.891 117.908  0.00  0.00     0.149 HD
ENDBRANCH   6  13
BRANCH   5  18
ATOM     18  N   LIG d   1      -2.060  91.914 117.512  0.00  0.00     0.381 N 
ATOM     19  H   LIG d   1      -1.873  91.002 117.878  0.00  0.00    -0.090 HD
ATOM     20  H   LIG d   1      -1.663  92.592 118.138  0.00  0.00    -0.090 HD
ATOM     21  H   LIG d   1      -1.653  92.007 116.608  0.00  0.00    -0.090 HD
ENDBRANCH   5  18
BRANCH   3  22
ATOM     22  C   LIG d   1      -6.313  89.827 116.806  0.00  0.00     0.382 C 
ATOM     23  O   LIG d   1      -5.777  89.138 115.905  0.00  0.00    -0.241 OA
ATOM     24  O   LIG d   1      -7.511  89.640 117.091  0.00  0.00    -0.241 OA
ENDBRANCH   3  22
TORSDOF 7
ENDMDL
