MODEL 1
REMARK VINA RESULT:      -5.8      0.000      0.000
REMARK  7 active torsions:
REMARK  status: ('A' for Active; 'I' for Inactive)
REMARK    1  A    between atoms: C_2  and  C_3 
REMARK    2  A    between atoms: C_3  and  O_6 
REMARK    3  A    between atoms: C_3  and  C_4 
REMARK    4  A    between atoms: C_7  and  O_6 
REMARK    5  A    between atoms: C_9  and  C_10 
REMARK    6  A    between atoms: N_15  and  C_14 
REMARK    7  A    between atoms: N_20  and  C_19 
REMARK       I    between atoms: C_22  and  N_20 
ROOT
ATOM      1  C   LIG d   1      -5.863  92.642 117.880  0.00  0.00     0.161 C 
ATOM      2  C   LIG d   1      -6.794  91.743 117.332  0.00  0.00     0.016 C 
ATOM      3  C   LIG d   1      -6.427  90.539 116.689  0.00  0.00     0.038 C 
ATOM      4  C   LIG d   1      -5.103  90.075 116.683  0.00  0.00     0.028 C 
ATOM      5  C   LIG d   1      -4.069  91.192 116.781  0.00  0.00    -0.047 C 
ATOM      6  C   LIG d   1      -4.422  92.098 117.982  0.00  0.00     0.091 C 
ENDROOT
BRANCH   1   7
ATOM      7  O   LIG d   1      -6.321  93.092 119.171  0.00  0.00    -0.368 OA
BRANCH   7   8
ATOM      8  C   LIG d   1      -7.241  94.211 119.165  0.00  0.00     0.119 C 
BRANCH   8   9
ATOM      9  C   LIG d   1      -6.411  95.494 119.369  0.00  0.00     0.028 C 
ATOM     10  C   LIG d   1      -5.344  95.335 120.464  0.00  0.00     0.006 C 
ENDBRANCH   8   9
BRANCH   8  11
ATOM     11  C   LIG d   1      -8.196  94.153 120.361  0.00  0.00     0.028 C 
ATOM     12  C   LIG d   1      -9.492  93.387 120.051  0.00  0.00     0.006 C 
ENDBRANCH   8  11
ENDBRANCH   7   8
ENDBRANCH   1   7
BRANCH   6  13
ATOM     13  N   LIG d   1      -3.509  93.265 118.099  0.00  0.00    -0.311 N 
ATOM     14  C   LIG d   1      -2.425  93.273 118.872  0.00  0.00     0.210 C 
ATOM     15  C   LIG d   1      -1.633  94.584 118.863  0.00  0.00     0.109 C 
ATOM     16  O   LIG d   1      -2.026  92.307 119.541  0.00  0.00    -0.276 OA
ATOM     17  H   LIG d   1      -3.740  94.081 117.566  0.00  0.00     0.149 HD
ENDBRANCH   6  13
BRANCH   5  18
ATOM     18  N   LIG d   1      -2.742  90.561 116.903  0.00  0.00     0.381 N 
ATOM     19  H   LIG d   1      -2.053  91.130 116.454  0.00  0.00    -0.090 HD
ATOM     20  H   LIG d   1      -2.762  89.668 116.443  0.00  0.00    -0.090 HD
ATOM     21  H   LIG d   1      -2.508  90.441 117.865  0.00  0.00    -0.090 HD
ENDBRANCH   5  18
BRANCH   3  22
ATOM     22  C   LIG d   1      -7.385  89.805 116.007  0.00  0.00     0.382 C 
ATOM     23  O   LIG d   1      -7.803  90.201 114.892  0.00  0.00    -0.241 OA
ATOM     24  O   LIG d   1      -7.869  88.774 116.512  0.00  0.00    -0.241 OA
ENDBRANCH   3  22
TORSDOF 7
ENDMDL
MODEL 2
REMARK VINA RESULT:      -5.3      2.506      5.837
REMARK  7 active torsions:
REMARK  status: ('A' for Active; 'I' for Inactive)
REMARK    1  A    between atoms: C_2  and  C_3 
REMARK    2  A    between atoms: C_3  and  O_6 
REMARK    3  A    between atoms: C_3  and  C_4 
REMARK    4  A    between atoms: C_7  and  O_6 
REMARK    5  A    between atoms: C_9  and  C_10 
REMARK    6  A    between atoms: N_15  and  C_14 
REMARK    7  A    between atoms: N_20  and  C_19 
REMARK       I    between atoms: C_22  and  N_20 
ROOT
ATOM      1  C   LIG d   1      -5.045  92.012 118.468  0.00  0.00     0.161 C 
ATOM      2  C   LIG d   1      -5.291  93.039 119.394  0.00  0.00     0.016 C 
ATOM      3  C   LIG d   1      -6.360  93.956 119.272  0.00  0.00     0.038 C 
ATOM      4  C   LIG d   1      -7.352  93.814 118.290  0.00  0.00     0.028 C 
ATOM      5  C   LIG d   1      -6.863  93.096 117.037  0.00  0.00    -0.047 C 
ATOM      6  C   LIG d   1      -6.180  91.772 117.451  0.00  0.00     0.091 C 
ENDROOT
BRANCH   1   7
ATOM      7  O   LIG d   1      -4.731  90.790 119.165  0.00  0.00    -0.368 OA
BRANCH   7   8
ATOM      8  C   LIG d   1      -3.322  90.500 119.340  0.00  0.00     0.119 C 
BRANCH   8   9
ATOM      9  C   LIG d   1      -2.882  89.615 118.158  0.00  0.00     0.028 C 
ATOM     10  C   LIG d   1      -1.527  90.049 117.573  0.00  0.00     0.006 C 
ENDBRANCH   8   9
BRANCH   8  11
ATOM     11  C   LIG d   1      -3.079  89.654 120.593  0.00  0.00     0.028 C 
ATOM     12  C   LIG d   1      -1.762  90.006 121.303  0.00  0.00     0.006 C 
ENDBRANCH   8  11
ENDBRANCH   7   8
ENDBRANCH   1   7
BRANCH   6  13
ATOM     13  N   LIG d   1      -5.599  91.047 116.291  0.00  0.00    -0.311 N 
ATOM     14  C   LIG d   1      -6.042  89.864 115.869  0.00  0.00     0.210 C 
ATOM     15  C   LIG d   1      -5.289  89.282 114.669  0.00  0.00     0.109 C 
ATOM     16  O   LIG d   1      -7.007  89.256 116.356  0.00  0.00    -0.276 OA
ATOM     17  H   LIG d   1      -4.832  91.484 115.818  0.00  0.00     0.149 HD
ENDBRANCH   6  13
BRANCH   5  18
ATOM     18  N   LIG d   1      -8.029  92.894 116.156  0.00  0.00     0.381 N 
ATOM     19  H   LIG d   1      -7.801  92.238 115.436  0.00  0.00    -0.090 HD
ATOM     20  H   LIG d   1      -8.265  93.769 115.722  0.00  0.00    -0.090 HD
ATOM     21  H   LIG d   1      -8.803  92.559 116.686  0.00  0.00    -0.090 HD
ENDBRANCH   5  18
BRANCH   3  22
ATOM     22  C   LIG d   1      -6.423  95.055 120.117  0.00  0.00     0.382 C 
ATOM     23  O   LIG d   1      -6.177  94.920 121.340  0.00  0.00    -0.241 OA
ATOM     24  O   LIG d   1      -6.765  96.169 119.679  0.00  0.00    -0.241 OA
ENDBRANCH   3  22
TORSDOF 7
ENDMDL
MODEL 3
REMARK VINA RESULT:      -5.2      2.128      4.345
REMARK  7 active torsions:
REMARK  status: ('A' for Active; 'I' for Inactive)
REMARK    1  A    between atoms: C_2  and  C_3 
REMARK    2  A    between atoms: C_3  and  O_6 
REMARK    3  A    between atoms: C_3  and  C_4 
REMARK    4  A    between atoms: C_7  and  O_6 
REMARK    5  A    between atoms: C_9  and  C_10 
REMARK    6  A    between atoms: N_15  and  C_14 
REMARK    7  A    between atoms: N_20  and  C_19 
REMARK       I    between atoms: C_22  and  N_20 
ROOT
ATOM      1  C   LIG d   1      -5.664  91.519 119.020  0.00  0.00     0.161 C 
ATOM      2  C   LIG d   1      -5.831  90.654 117.926  0.00  0.00     0.016 C 
ATOM      3  C   LIG d   1      -6.693  90.931 116.840  0.00  0.00     0.038 C 
ATOM      4  C   LIG d   1      -7.336  92.170 116.701  0.00  0.00     0.028 C 
ATOM      5  C   LIG d   1      -7.592  92.872 118.030  0.00  0.00    -0.047 C 
ATOM      6  C   LIG d   1      -6.272  92.925 118.832  0.00  0.00     0.091 C 
ENDROOT
BRANCH   1   7
ATOM      7  O   LIG d   1      -4.265  91.618 119.355  0.00  0.00    -0.368 OA
BRANCH   7   8
ATOM      8  C   LIG d   1      -3.335  91.492 118.252  0.00  0.00     0.119 C 
BRANCH   8   9
ATOM      9  C   LIG d   1      -2.276  90.448 118.656  0.00  0.00     0.028 C 
ATOM     10  C   LIG d   1      -2.570  89.815 120.026  0.00  0.00     0.006 C 
ENDBRANCH   8   9
BRANCH   8  11
ATOM     11  C   LIG d   1      -2.558  92.792 118.026  0.00  0.00     0.028 C 
ATOM     12  C   LIG d   1      -2.610  93.735 119.239  0.00  0.00     0.006 C 
ENDBRANCH   8  11
ENDBRANCH   7   8
ENDBRANCH   1   7
BRANCH   6  13
ATOM     13  N   LIG d   1      -6.452  93.521 120.182  0.00  0.00    -0.311 N 
ATOM     14  C   LIG d   1      -6.241  94.808 120.448  0.00  0.00     0.210 C 
ATOM     15  C   LIG d   1      -6.466  95.211 121.909  0.00  0.00     0.109 C 
ATOM     16  O   LIG d   1      -5.920  95.662 119.607  0.00  0.00    -0.276 OA
ATOM     17  H   LIG d   1      -6.741  92.906 120.917  0.00  0.00     0.149 HD
ENDBRANCH   6  13
BRANCH   5  18
ATOM     18  N   LIG d   1      -8.140  94.208 117.730  0.00  0.00     0.381 N 
ATOM     19  H   LIG d   1      -8.642  94.182 116.865  0.00  0.00    -0.090 HD
ATOM     20  H   LIG d   1      -7.379  94.858 117.633  0.00  0.00    -0.090 HD
ATOM     21  H   LIG d   1      -8.745  94.502 118.465  0.00  0.00    -0.090 HD
ENDBRANCH   5  18
BRANCH   3  22
ATOM     22  C   LIG d   1      -6.950  89.946 115.898  0.00  0.00     0.382 C 
ATOM     23  O   LIG d   1      -6.055  89.121 115.593  0.00  0.00    -0.241 OA
ATOM     24  O   LIG d   1      -8.050  89.900 115.316  0.00  0.00    -0.241 OA
ENDBRANCH   3  22
TORSDOF 7
ENDMDL
MODEL 4
REMARK VINA RESULT:      -5.2      2.370      3.834
REMARK  7 active torsions:
REMARK  status: ('A' for Active; 'I' for Inactive)
REMARK    1  A    between atoms: C_2  and  C_3 
REMARK    2  A    between atoms: C_3  and  O_6 
REMARK    3  A    between atoms: C_3  and  C_4 
REMARK    4  A    between atoms: C_7  and  O_6 
REMARK    5  A    between atoms: C_9  and  C_10 
REMARK    6  A    between atoms: N_15  and  C_14 
REMARK    7  A    between atoms: N_20  and  C_19 
REMARK       I    between atoms: C_22  and  N_20 
ROOT
ATOM      1  C   LIG d   1      -5.144  92.599 118.495  0.00  0.00     0.161 C 
ATOM      2  C   LIG d   1      -6.424  93.179 118.478  0.00  0.00     0.016 C 
ATOM      3  C   LIG d   1      -7.336  93.019 117.409  0.00  0.00     0.038 C 
ATOM      4  C   LIG d   1      -7.086  92.138 116.347  0.00  0.00     0.028 C 
ATOM      5  C   LIG d   1      -5.601  91.924 116.074  0.00  0.00    -0.047 C 
ATOM      6  C   LIG d   1      -4.897  91.545 117.396  0.00  0.00     0.091 C 
ENDROOT
BRANCH   1   7
ATOM      7  O   LIG d   1      -4.880  92.038 119.797  0.00  0.00    -0.368 OA
BRANCH   7   8
ATOM      8  C   LIG d   1      -3.975  92.789 120.643  0.00  0.00     0.119 C 
BRANCH   8   9
ATOM      9  C   LIG d   1      -3.163  93.730 119.732  0.00  0.00     0.028 C 
ATOM     10  C   LIG d   1      -1.656  93.425 119.768  0.00  0.00     0.006 C 
ENDBRANCH   8   9
BRANCH   8  11
ATOM     11  C   LIG d   1      -2.941  91.873 121.304  0.00  0.00     0.028 C 
ATOM     12  C   LIG d   1      -3.315  90.385 121.208  0.00  0.00     0.006 C 
ENDBRANCH   8  11
ENDBRANCH   7   8
ENDBRANCH   1   7
BRANCH   6  13
ATOM     13  N   LIG d   1      -3.426  91.400 117.235  0.00  0.00    -0.311 N 
ATOM     14  C   LIG d   1      -2.761  90.287 117.540  0.00  0.00     0.210 C 
ATOM     15  C   LIG d   1      -1.247  90.357 117.316  0.00  0.00     0.109 C 
ATOM     16  O   LIG d   1      -3.285  89.238 117.943  0.00  0.00    -0.276 OA
ATOM     17  H   LIG d   1      -2.926  92.193 116.883  0.00  0.00     0.149 HD
ENDBRANCH   6  13
BRANCH   5  18
ATOM     18  N   LIG d   1      -5.483  90.882 115.036  0.00  0.00     0.381 N 
ATOM     19  H   LIG d   1      -5.221  91.299 114.165  0.00  0.00    -0.090 HD
ATOM     20  H   LIG d   1      -6.378  90.439 114.918  0.00  0.00    -0.090 HD
ATOM     21  H   LIG d   1      -4.804  90.206 115.307  0.00  0.00    -0.090 HD
ENDBRANCH   5  18
BRANCH   3  22
ATOM     22  C   LIG d   1      -8.497  93.776 117.378  0.00  0.00     0.382 C 
ATOM     23  O   LIG d   1      -8.894  94.357 118.416  0.00  0.00    -0.241 OA
ATOM     24  O   LIG d   1      -9.176  93.848 116.336  0.00  0.00    -0.241 OA
ENDBRANCH   3  22
TORSDOF 7
ENDMDL
MODEL 5
REMARK VINA RESULT:      -5.2      2.479      5.903
REMARK  7 active torsions:
REMARK  status: ('A' for Active; 'I' for Inactive)
REMARK    1  A    between atoms: C_2  and  C_3 
REMARK    2  A    between atoms: C_3  and  O_6 
REMARK    3  A    between atoms: C_3  and  C_4 
REMARK    4  A    between atoms: C_7  and  O_6 
REMARK    5  A    between atoms: C_9  and  C_10 
REMARK    6  A    between atoms: N_15  and  C_14 
REMARK    7  A    between atoms: N_20  and  C_19 
REMARK       I    between atoms: C_22  and  N_20 
ROOT
ATOM      1  C   LIG d   1      -4.751  91.671 118.321  0.00  0.00     0.161 C 
ATOM      2  C   LIG d   1      -4.853  92.659 119.314  0.00  0.00     0.016 C 
ATOM      3  C   LIG d   1      -5.864  93.647 119.328  0.00  0.00     0.038 C 
ATOM      4  C   LIG d   1      -6.938  93.621 118.426  0.00  0.00     0.028 C 
ATOM      5  C   LIG d   1      -6.601  92.944 117.102  0.00  0.00    -0.047 C 
ATOM      6  C   LIG d   1      -5.978  91.559 117.391  0.00  0.00     0.091 C 
ENDROOT
BRANCH   1   7
ATOM      7  O   LIG d   1      -4.465  90.395 118.928  0.00  0.00    -0.368 OA
BRANCH   7   8
ATOM      8  C   LIG d   1      -3.176  89.814 118.613  0.00  0.00     0.119 C 
BRANCH   8   9
ATOM      9  C   LIG d   1      -2.269  90.006 119.844  0.00  0.00     0.028 C 
ATOM     10  C   LIG d   1      -3.005  89.725 121.165  0.00  0.00     0.006 C 
ENDBRANCH   8   9
BRANCH   8  11
ATOM     11  C   LIG d   1      -2.484  90.575 117.478  0.00  0.00     0.028 C 
ATOM     12  C   LIG d   1      -0.963  90.679 117.670  0.00  0.00     0.006 C 
ENDBRANCH   8  11
ENDBRANCH   7   8
ENDBRANCH   1   7
BRANCH   6  13
ATOM     13  N   LIG d   1      -5.541  90.864 116.152  0.00  0.00    -0.311 N 
ATOM     14  C   LIG d   1      -6.085  89.729 115.719  0.00  0.00     0.210 C 
ATOM     15  C   LIG d   1      -5.473  89.169 114.430  0.00  0.00     0.109 C 
ATOM     16  O   LIG d   1      -7.037  89.148 116.261  0.00  0.00    -0.276 OA
ATOM     17  H   LIG d   1      -4.794  91.283 115.633  0.00  0.00     0.149 HD
ENDBRANCH   6  13
BRANCH   5  18
ATOM     18  N   LIG d   1      -7.845  92.865 116.313  0.00  0.00     0.381 N 
ATOM     19  H   LIG d   1      -7.704  92.274 115.518  0.00  0.00    -0.090 HD
ATOM     20  H   LIG d   1      -8.080  93.785 115.984  0.00  0.00    -0.090 HD
ATOM     21  H   LIG d   1      -8.584  92.506 116.876  0.00  0.00    -0.090 HD
ENDBRANCH   5  18
BRANCH   3  22
ATOM     22  C   LIG d   1      -5.785  94.699 120.229  0.00  0.00     0.382 C 
ATOM     23  O   LIG d   1      -6.220  94.558 121.397  0.00  0.00    -0.241 OA
ATOM     24  O   LIG d   1      -5.324  95.800 119.874  0.00  0.00    -0.241 OA
ENDBRANCH   3  22
TORSDOF 7
ENDMDL
MODEL 6
REMARK VINA RESULT:      -5.1      2.032      4.313
REMARK  7 active torsions:
REMARK  status: ('A' for Active; 'I' for Inactive)
REMARK    1  A    between atoms: C_2  and  C_3 
REMARK    2  A    between atoms: C_3  and  O_6 
REMARK    3  A    between atoms: C_3  and  C_4 
REMARK    4  A    between atoms: C_7  and  O_6 
REMARK    5  A    between atoms: C_9  and  C_10 
REMARK    6  A    between atoms: N_15  and  C_14 
REMARK    7  A    between atoms: N_20  and  C_19 
REMARK       I    between atoms: C_22  and  N_20 
ROOT
ATOM      1  C   LIG d   1      -4.587  91.836 117.896  0.00  0.00     0.161 C 
ATOM      2  C   LIG d   1      -4.655  90.909 116.843  0.00  0.00     0.016 C 
ATOM      3  C   LIG d   1      -5.797  90.742 116.026  0.00  0.00     0.038 C 
ATOM      4  C   LIG d   1      -6.902  91.602 116.111  0.00  0.00     0.028 C 
ATOM      5  C   LIG d   1      -7.080  92.224 117.492  0.00  0.00    -0.047 C 
ATOM      6  C   LIG d   1      -5.742  92.859 117.933  0.00  0.00     0.091 C 
ENDROOT
BRANCH   1   7
ATOM      7  O   LIG d   1      -3.316  92.516 117.868  0.00  0.00    -0.368 OA
BRANCH   7   8
ATOM      8  C   LIG d   1      -2.439  92.274 118.995  0.00  0.00     0.119 C 
BRANCH   8   9
ATOM      9  C   LIG d   1      -1.246  93.241 118.868  0.00  0.00     0.028 C 
ATOM     10  C   LIG d   1      -1.301  94.076 117.578  0.00  0.00     0.006 C 
ENDBRANCH   8   9
BRANCH   8  11
ATOM     11  C   LIG d   1      -1.831  90.870 118.938  0.00  0.00     0.028 C 
ATOM     12  C   LIG d   1      -2.385  89.936 120.026  0.00  0.00     0.006 C 
ENDBRANCH   8  11
ENDBRANCH   7   8
ENDBRANCH   1   7
BRANCH   6  13
ATOM     13  N   LIG d   1      -5.805  93.417 119.309  0.00  0.00    -0.311 N 
ATOM     14  C   LIG d   1      -6.186  94.665 119.577  0.00  0.00     0.210 C 
ATOM     15  C   LIG d   1      -6.160  95.043 121.061  0.00  0.00     0.109 C 
ATOM     16  O   LIG d   1      -6.573  95.484 118.730  0.00  0.00    -0.276 OA
ATOM     17  H   LIG d   1      -5.537  92.811 120.059  0.00  0.00     0.149 HD
ENDBRANCH   6  13
BRANCH   5  18
ATOM     18  N   LIG d   1      -8.182  93.201 117.401  0.00  0.00     0.381 N 
ATOM     19  H   LIG d   1      -7.813  94.131 117.436  0.00  0.00    -0.090 HD
ATOM     20  H   LIG d   1      -8.794  93.075 118.188  0.00  0.00    -0.090 HD
ATOM     21  H   LIG d   1      -8.687  93.068 116.553  0.00  0.00    -0.090 HD
ENDBRANCH   5  18
BRANCH   3  22
ATOM     22  C   LIG d   1      -5.857  89.679 115.137  0.00  0.00     0.382 C 
ATOM     23  O   LIG d   1      -6.879  89.509 114.431  0.00  0.00    -0.241 OA
ATOM     24  O   LIG d   1      -4.919  88.862 115.065  0.00  0.00    -0.241 OA
ENDBRANCH   3  22
TORSDOF 7
ENDMDL
MODEL 7
REMARK VINA RESULT:      -5.1      2.247      4.580
REMARK  7 active torsions:
REMARK  status: ('A' for Active; 'I' for Inactive)
REMARK    1  A    between atoms: C_2  and  C_3 
REMARK    2  A    between atoms: C_3  and  O_6 
REMARK    3  A    between atoms: C_3  and  C_4 
REMARK    4  A    between atoms: C_7  and  O_6 
REMARK    5  A    between atoms: C_9  and  C_10 
REMARK    6  A    between atoms: N_15  and  C_14 
REMARK    7  A    between atoms: N_20  and  C_19 
REMARK       I    between atoms: C_22  and  N_20 
ROOT
ATOM      1  C   LIG d   1      -5.626  91.916 119.226  0.00  0.00     0.161 C 
ATOM      2  C   LIG d   1      -6.890  92.234 118.701  0.00  0.00     0.016 C 
ATOM      3  C   LIG d   1      -7.346  93.561 118.521  0.00  0.00     0.038 C 
ATOM      4  C   LIG d   1      -6.504  94.666 118.713  0.00  0.00     0.028 C 
ATOM      5  C   LIG d   1      -5.389  94.411 119.721  0.00  0.00    -0.047 C 
ATOM      6  C   LIG d   1      -4.653  93.108 119.336  0.00  0.00     0.091 C 
ENDROOT
BRANCH   1   7
ATOM      7  O   LIG d   1      -5.031  90.853 118.455  0.00  0.00    -0.368 OA
BRANCH   7   8
ATOM      8  C   LIG d   1      -4.248  91.260 117.306  0.00  0.00     0.119 C 
BRANCH   8   9
ATOM      9  C   LIG d   1      -4.924  90.670 116.053  0.00  0.00     0.028 C 
ATOM     10  C   LIG d   1      -5.817  91.693 115.332  0.00  0.00     0.006 C 
ENDBRANCH   8   9
BRANCH   8  11
ATOM     11  C   LIG d   1      -2.847  90.642 117.340  0.00  0.00     0.028 C 
ATOM     12  C   LIG d   1      -2.646  89.685 118.525  0.00  0.00     0.006 C 
ENDBRANCH   8  11
ENDBRANCH   7   8
ENDBRANCH   1   7
BRANCH   6  13
ATOM     13  N   LIG d   1      -3.601  92.739 120.320  0.00  0.00    -0.311 N 
ATOM     14  C   LIG d   1      -2.314  93.050 120.168  0.00  0.00     0.210 C 
ATOM     15  C   LIG d   1      -1.394  92.557 121.289  0.00  0.00     0.109 C 
ATOM     16  O   LIG d   1      -1.853  93.714 119.227  0.00  0.00    -0.276 OA
ATOM     17  H   LIG d   1      -3.892  92.226 121.128  0.00  0.00     0.149 HD
ENDBRANCH   6  13
BRANCH   5  18
ATOM     18  N   LIG d   1      -4.508  95.594 119.721  0.00  0.00     0.381 N 
ATOM     19  H   LIG d   1      -4.721  96.175 120.508  0.00  0.00    -0.090 HD
ATOM     20  H   LIG d   1      -4.676  96.124 118.884  0.00  0.00    -0.090 HD
ATOM     21  H   LIG d   1      -3.554  95.309 119.757  0.00  0.00    -0.090 HD
ENDBRANCH   5  18
BRANCH   3  22
ATOM     22  C   LIG d   1      -8.670  93.792 118.182  0.00  0.00     0.382 C 
ATOM     23  O   LIG d   1      -9.003  93.873 116.975  0.00  0.00    -0.241 OA
ATOM     24  O   LIG d   1      -9.528  93.965 119.068  0.00  0.00    -0.241 OA
ENDBRANCH   3  22
TORSDOF 7
ENDMDL
MODEL 8
REMARK VINA RESULT:      -5.1      1.899      4.842
REMARK  7 active torsions:
REMARK  status: ('A' for Active; 'I' for Inactive)
REMARK    1  A    between atoms: C_2  and  C_3 
REMARK    2  A    between atoms: C_3  and  O_6 
REMARK    3  A    between atoms: C_3  and  C_4 
REMARK    4  A    between atoms: C_7  and  O_6 
REMARK    5  A    between atoms: C_9  and  C_10 
REMARK    6  A    between atoms: N_15  and  C_14 
REMARK    7  A    between atoms: N_20  and  C_19 
REMARK       I    between atoms: C_22  and  N_20 
ROOT
ATOM      1  C   LIG d   1      -5.639  92.656 118.537  0.00  0.00     0.161 C 
ATOM      2  C   LIG d   1      -4.868  93.210 119.573  0.00  0.00     0.016 C 
ATOM      3  C   LIG d   1      -3.468  93.038 119.678  0.00  0.00     0.038 C 
ATOM      4  C   LIG d   1      -2.719  92.422 118.664  0.00  0.00     0.028 C 
ATOM      5  C   LIG d   1      -3.517  91.409 117.851  0.00  0.00    -0.047 C 
ATOM      6  C   LIG d   1      -4.824  92.075 117.363  0.00  0.00     0.091 C 
ENDROOT
BRANCH   1   7
ATOM      7  O   LIG d   1      -6.585  93.632 118.057  0.00  0.00    -0.368 OA
BRANCH   7   8
ATOM      8  C   LIG d   1      -7.463  94.213 119.052  0.00  0.00     0.119 C 
BRANCH   8   9
ATOM      9  C   LIG d   1      -8.855  93.580 118.867  0.00  0.00     0.028 C 
ATOM     10  C   LIG d   1      -9.606  93.413 120.198  0.00  0.00     0.006 C 
ENDBRANCH   8   9
BRANCH   8  11
ATOM     11  C   LIG d   1      -7.663  95.712 118.812  0.00  0.00     0.028 C 
ATOM     12  C   LIG d   1      -6.452  96.552 119.245  0.00  0.00     0.006 C 
ENDBRANCH   8  11
ENDBRANCH   7   8
ENDBRANCH   1   7
BRANCH   6  13
ATOM     13  N   LIG d   1      -5.704  91.128 116.630  0.00  0.00    -0.311 N 
ATOM     14  C   LIG d   1      -6.237  91.394 115.439  0.00  0.00     0.210 C 
ATOM     15  C   LIG d   1      -7.130  90.288 114.868  0.00  0.00     0.109 C 
ATOM     16  O   LIG d   1      -6.029  92.428 114.786  0.00  0.00    -0.276 OA
ATOM     17  H   LIG d   1      -5.900  90.252 117.073  0.00  0.00     0.149 HD
ENDBRANCH   6  13
BRANCH   5  18
ATOM     18  N   LIG d   1      -2.657  90.947 116.745  0.00  0.00     0.381 N 
ATOM     19  H   LIG d   1      -1.721  91.274 116.885  0.00  0.00    -0.090 HD
ATOM     20  H   LIG d   1      -3.000  91.332 115.883  0.00  0.00    -0.090 HD
ATOM     21  H   LIG d   1      -2.665  89.952 116.700  0.00  0.00    -0.090 HD
ENDBRANCH   5  18
BRANCH   3  22
ATOM     22  C   LIG d   1      -2.809  93.450 120.826  0.00  0.00     0.382 C 
ATOM     23  O   LIG d   1      -1.908  94.320 120.754  0.00  0.00    -0.241 OA
ATOM     24  O   LIG d   1      -3.074  92.931 121.927  0.00  0.00    -0.241 OA
ENDBRANCH   3  22
TORSDOF 7
ENDMDL
MODEL 9
REMARK VINA RESULT:      -5.1      2.051      5.047
REMARK  7 active torsions:
REMARK  status: ('A' for Active; 'I' for Inactive)
REMARK    1  A    between atoms: C_2  and  C_3 
REMARK    2  A    between atoms: C_3  and  O_6 
REMARK    3  A    between atoms: C_3  and  C_4 
REMARK    4  A    between atoms: C_7  and  O_6 
REMARK    5  A    between atoms: C_9  and  C_10 
REMARK    6  A    between atoms: N_15  and  C_14 
REMARK    7  A    between atoms: N_20  and  C_19 
REMARK       I    between atoms: C_22  and  N_20 
ROOT
ATOM      1  C   LIG d   1      -6.432  92.133 117.345  0.00  0.00     0.161 C 
ATOM      2  C   LIG d   1      -7.462  93.072 117.515  0.00  0.00     0.016 C 
ATOM      3  C   LIG d   1      -7.392  94.148 118.431  0.00  0.00     0.038 C 
ATOM      4  C   LIG d   1      -6.216  94.446 119.135  0.00  0.00     0.028 C 
ATOM      5  C   LIG d   1      -5.326  93.231 119.371  0.00  0.00    -0.047 C 
ATOM      6  C   LIG d   1      -5.097  92.507 118.024  0.00  0.00     0.091 C 
ENDROOT
BRANCH   1   7
ATOM      7  O   LIG d   1      -6.226  91.882 115.941  0.00  0.00    -0.368 OA
BRANCH   7   8
ATOM      8  C   LIG d   1      -6.890  90.714 115.399  0.00  0.00     0.119 C 
BRANCH   8   9
ATOM      9  C   LIG d   1      -7.266  89.803 116.584  0.00  0.00     0.028 C 
ATOM     10  C   LIG d   1      -8.403  88.827 116.236  0.00  0.00     0.006 C 
ENDBRANCH   8   9
BRANCH   8  11
ATOM     11  C   LIG d   1      -5.938  89.882 114.534  0.00  0.00     0.028 C 
ATOM     12  C   LIG d   1      -4.786  89.264 115.342  0.00  0.00     0.006 C 
ENDBRANCH   8  11
ENDBRANCH   7   8
ENDBRANCH   1   7
BRANCH   6  13
ATOM     13  N   LIG d   1      -4.306  91.259 118.179  0.00  0.00    -0.311 N 
ATOM     14  C   LIG d   1      -2.982  91.208 118.038  0.00  0.00     0.210 C 
ATOM     15  C   LIG d   1      -2.366  89.817 118.219  0.00  0.00     0.109 C 
ATOM     16  O   LIG d   1      -2.257  92.188 117.811  0.00  0.00    -0.276 OA
ATOM     17  H   LIG d   1      -4.811  90.422 118.394  0.00  0.00     0.149 HD
ENDBRANCH   6  13
BRANCH   5  18
ATOM     18  N   LIG d   1      -4.076  93.708 119.991  0.00  0.00     0.381 N 
ATOM     19  H   LIG d   1      -3.299  93.487 119.400  0.00  0.00    -0.090 HD
ATOM     20  H   LIG d   1      -3.948  93.236 120.869  0.00  0.00    -0.090 HD
ATOM     21  H   LIG d   1      -4.122  94.692 120.138  0.00  0.00    -0.090 HD
ENDBRANCH   5  18
BRANCH   3  22
ATOM     22  C   LIG d   1      -8.521  94.914 118.678  0.00  0.00     0.382 C 
ATOM     23  O   LIG d   1      -8.506  96.146 118.444  0.00  0.00    -0.241 OA
ATOM     24  O   LIG d   1      -9.539  94.396 119.175  0.00  0.00    -0.241 OA
ENDBRANCH   3  22
TORSDOF 7
ENDMDL
