MODEL 1
REMARK VINA RESULT:      -5.2      0.000      0.000
REMARK  7 active torsions:
REMARK  status: ('A' for Active; 'I' for Inactive)
REMARK    1  A    between atoms: C_2  and  C_3 
REMARK    2  A    between atoms: C_3  and  O_6 
REMARK    3  A    between atoms: C_3  and  C_4 
REMARK    4  A    between atoms: C_7  and  O_6 
REMARK    5  A    between atoms: C_9  and  C_10 
REMARK    6  A    between atoms: N_15  and  C_14 
REMARK    7  A    between atoms: N_20  and  C_19 
REMARK       I    between atoms: C_22  and  N_20 
ROOT
ATOM      1  C   LIG d   1      -5.704  91.870 118.276  0.00  0.00     0.161 C 
ATOM      2  C   LIG d   1      -6.270  90.954 117.373  0.00  0.00     0.016 C 
ATOM      3  C   LIG d   1      -7.026  91.342 116.243  0.00  0.00     0.038 C 
ATOM      4  C   LIG d   1      -7.142  92.685 115.854  0.00  0.00     0.028 C 
ATOM      5  C   LIG d   1      -7.012  93.666 117.014  0.00  0.00    -0.047 C 
ATOM      6  C   LIG d   1      -5.725  93.339 117.806  0.00  0.00     0.091 C 
ENDROOT
BRANCH   1   7
ATOM      7  O   LIG d   1      -4.359  91.467 118.601  0.00  0.00    -0.368 OA
BRANCH   7   8
ATOM      8  C   LIG d   1      -3.384  91.584 117.537  0.00  0.00     0.119 C 
BRANCH   8   9
ATOM      9  C   LIG d   1      -2.635  90.241 117.444  0.00  0.00     0.028 C 
ATOM     10  C   LIG d   1      -3.102  89.234 118.510  0.00  0.00     0.006 C 
ENDBRANCH   8   9
BRANCH   8  11
ATOM     11  C   LIG d   1      -2.311  92.624 117.876  0.00  0.00     0.028 C 
ATOM     12  C   LIG d   1      -2.059  92.748 119.387  0.00  0.00     0.006 C 
ENDBRANCH   8  11
ENDBRANCH   7   8
ENDBRANCH   1   7
BRANCH   6  13
ATOM     13  N   LIG d   1      -5.566  94.198 119.009  0.00  0.00    -0.311 N 
ATOM     14  C   LIG d   1      -4.787  95.278 119.040  0.00  0.00     0.210 C 
ATOM     15  C   LIG d   1      -4.751  96.010 120.385  0.00  0.00     0.109 C 
ATOM     16  O   LIG d   1      -4.148  95.718 118.072  0.00  0.00    -0.276 OA
ATOM     17  H   LIG d   1      -6.073  93.932 119.830  0.00  0.00     0.149 HD
ENDBRANCH   6  13
BRANCH   5  18
ATOM     18  N   LIG d   1      -7.013  95.028 116.449  0.00  0.00     0.381 N 
ATOM     19  H   LIG d   1      -7.424  95.016 115.537  0.00  0.00    -0.090 HD
ATOM     20  H   LIG d   1      -6.063  95.345 116.363  0.00  0.00    -0.090 HD
ATOM     21  H   LIG d   1      -7.523  95.644 117.043  0.00  0.00    -0.090 HD
ENDBRANCH   5  18
BRANCH   3  22
ATOM     22  C   LIG d   1      -7.711  90.384 115.512  0.00  0.00     0.382 C 
ATOM     23  O   LIG d   1      -8.411  90.726 114.529  0.00  0.00    -0.241 OA
ATOM     24  O   LIG d   1      -7.673  89.185 115.850  0.00  0.00    -0.241 OA
ENDBRANCH   3  22
TORSDOF 7
ENDMDL
MODEL 2
REMARK VINA RESULT:      -5.0      2.338      4.405
REMARK  7 active torsions:
REMARK  status: ('A' for Active; 'I' for Inactive)
REMARK    1  A    between atoms: C_2  and  C_3 
REMARK    2  A    between atoms: C_3  and  O_6 
REMARK    3  A    between atoms: C_3  and  C_4 
REMARK    4  A    between atoms: C_7  and  O_6 
REMARK    5  A    between atoms: C_9  and  C_10 
REMARK    6  A    between atoms: N_15  and  C_14 
REMARK    7  A    between atoms: N_20  and  C_19 
REMARK       I    between atoms: C_22  and  N_20 
ROOT
ATOM      1  C   LIG d   1      -6.952  93.213 117.372  0.00  0.00     0.161 C 
ATOM      2  C   LIG d   1      -7.288  91.955 116.843  0.00  0.00     0.016 C 
ATOM      3  C   LIG d   1      -6.330  91.028 116.372  0.00  0.00     0.038 C 
ATOM      4  C   LIG d   1      -4.953  91.236 116.538  0.00  0.00     0.028 C 
ATOM      5  C   LIG d   1      -4.567  92.710 116.607  0.00  0.00    -0.047 C 
ATOM      6  C   LIG d   1      -5.450  93.411 117.664  0.00  0.00     0.091 C 
ENDROOT
BRANCH   1   7
ATOM      7  O   LIG d   1      -7.731  93.468 118.558  0.00  0.00    -0.368 OA
BRANCH   7   8
ATOM      8  C   LIG d   1      -8.868  94.352 118.396  0.00  0.00     0.119 C 
BRANCH   8   9
ATOM      9  C   LIG d   1      -8.556  95.296 117.219  0.00  0.00     0.028 C 
ATOM     10  C   LIG d   1      -8.313  96.744 117.677  0.00  0.00     0.006 C 
ENDBRANCH   8   9
BRANCH   8  11
ATOM     11  C   LIG d   1      -9.041  95.265 119.614  0.00  0.00     0.028 C 
ATOM     12  C   LIG d   1     -10.316  94.956 120.414  0.00  0.00     0.006 C 
ENDBRANCH   8  11
ENDBRANCH   7   8
ENDBRANCH   1   7
BRANCH   6  13
ATOM     13  N   LIG d   1      -5.196  94.874 117.735  0.00  0.00    -0.311 N 
ATOM     14  C   LIG d   1      -4.326  95.426 118.580  0.00  0.00     0.210 C 
ATOM     15  C   LIG d   1      -4.232  96.953 118.503  0.00  0.00     0.109 C 
ATOM     16  O   LIG d   1      -3.602  94.794 119.363  0.00  0.00    -0.276 OA
ATOM     17  H   LIG d   1      -5.718  95.459 117.113  0.00  0.00     0.149 HD
ENDBRANCH   6  13
BRANCH   5  18
ATOM     18  N   LIG d   1      -3.127  92.779 116.919  0.00  0.00     0.381 N 
ATOM     19  H   LIG d   1      -2.978  93.388 117.699  0.00  0.00    -0.090 HD
ATOM     20  H   LIG d   1      -2.640  93.159 116.126  0.00  0.00    -0.090 HD
ATOM     21  H   LIG d   1      -2.779  91.869 117.127  0.00  0.00    -0.090 HD
ENDBRANCH   5  18
BRANCH   3  22
ATOM     22  C   LIG d   1      -6.748  89.896 115.690  0.00  0.00     0.382 C 
ATOM     23  O   LIG d   1      -6.163  89.547 114.636  0.00  0.00    -0.241 OA
ATOM     24  O   LIG d   1      -7.730  89.243 116.091  0.00  0.00    -0.241 OA
ENDBRANCH   3  22
TORSDOF 7
ENDMDL
MODEL 3
REMARK VINA RESULT:      -5.0      2.279      3.869
REMARK  7 active torsions:
REMARK  status: ('A' for Active; 'I' for Inactive)
REMARK    1  A    between atoms: C_2  and  C_3 
REMARK    2  A    between atoms: C_3  and  O_6 
REMARK    3  A    between atoms: C_3  and  C_4 
REMARK    4  A    between atoms: C_7  and  O_6 
REMARK    5  A    between atoms: C_9  and  C_10 
REMARK    6  A    between atoms: N_15  and  C_14 
REMARK    7  A    between atoms: N_20  and  C_19 
REMARK       I    between atoms: C_22  and  N_20 
ROOT
ATOM      1  C   LIG d   1      -6.855  93.894 117.200  0.00  0.00     0.161 C 
ATOM      2  C   LIG d   1      -7.483  92.742 116.697  0.00  0.00     0.016 C 
ATOM      3  C   LIG d   1      -6.779  91.579 116.308  0.00  0.00     0.038 C 
ATOM      4  C   LIG d   1      -5.403  91.433 116.540  0.00  0.00     0.028 C 
ATOM      5  C   LIG d   1      -4.652  92.759 116.579  0.00  0.00    -0.047 C 
ATOM      6  C   LIG d   1      -5.367  93.712 117.564  0.00  0.00     0.091 C 
ENDROOT
BRANCH   1   7
ATOM      7  O   LIG d   1      -7.590  94.395 118.334  0.00  0.00    -0.368 OA
BRANCH   7   8
ATOM      8  C   LIG d   1      -8.205  93.398 119.187  0.00  0.00     0.119 C 
BRANCH   8   9
ATOM      9  C   LIG d   1      -9.551  93.970 119.672  0.00  0.00     0.028 C 
ATOM     10  C   LIG d   1      -9.857  93.594 121.131  0.00  0.00     0.006 C 
ENDBRANCH   8   9
BRANCH   8  11
ATOM     11  C   LIG d   1      -7.382  93.166 120.457  0.00  0.00     0.028 C 
ATOM     12  C   LIG d   1      -6.559  91.869 120.405  0.00  0.00     0.006 C 
ENDBRANCH   8  11
ENDBRANCH   7   8
ENDBRANCH   1   7
BRANCH   6  13
ATOM     13  N   LIG d   1      -4.745  95.062 117.599  0.00  0.00    -0.311 N 
ATOM     14  C   LIG d   1      -4.299  95.635 118.716  0.00  0.00     0.210 C 
ATOM     15  C   LIG d   1      -3.712  97.037 118.533  0.00  0.00     0.109 C 
ATOM     16  O   LIG d   1      -4.306  95.101 119.836  0.00  0.00    -0.276 OA
ATOM     17  H   LIG d   1      -4.671  95.553 116.730  0.00  0.00     0.149 HD
ENDBRANCH   6  13
BRANCH   5  18
ATOM     18  N   LIG d   1      -3.257  92.470 116.964  0.00  0.00     0.381 N 
ATOM     19  H   LIG d   1      -2.904  93.209 117.538  0.00  0.00    -0.090 HD
ATOM     20  H   LIG d   1      -2.695  92.419 116.133  0.00  0.00    -0.090 HD
ATOM     21  H   LIG d   1      -3.212  91.606 117.458  0.00  0.00    -0.090 HD
ENDBRANCH   5  18
BRANCH   3  22
ATOM     22  C   LIG d   1      -7.447  90.562 115.644  0.00  0.00     0.382 C 
ATOM     23  O   LIG d   1      -8.228  90.836 114.701  0.00  0.00    -0.241 OA
ATOM     24  O   LIG d   1      -7.312  89.377 116.004  0.00  0.00    -0.241 OA
ENDBRANCH   3  22
TORSDOF 7
ENDMDL
MODEL 4
REMARK VINA RESULT:      -5.0      2.165      4.187
REMARK  7 active torsions:
REMARK  status: ('A' for Active; 'I' for Inactive)
REMARK    1  A    between atoms: C_2  and  C_3 
REMARK    2  A    between atoms: C_3  and  O_6 
REMARK    3  A    between atoms: C_3  and  C_4 
REMARK    4  A    between atoms: C_7  and  O_6 
REMARK    5  A    between atoms: C_9  and  C_10 
REMARK    6  A    between atoms: N_15  and  C_14 
REMARK    7  A    between atoms: N_20  and  C_19 
REMARK       I    between atoms: C_22  and  N_20 
ROOT
ATOM      1  C   LIG d   1      -6.136  93.038 117.204  0.00  0.00     0.161 C 
ATOM      2  C   LIG d   1      -7.123  92.177 116.695  0.00  0.00     0.016 C 
ATOM      3  C   LIG d   1      -6.852  90.865 116.243  0.00  0.00     0.038 C 
ATOM      4  C   LIG d   1      -5.594  90.268 116.410  0.00  0.00     0.028 C 
ATOM      5  C   LIG d   1      -4.448  91.273 116.455  0.00  0.00    -0.047 C 
ATOM      6  C   LIG d   1      -4.779  92.365 117.498  0.00  0.00     0.091 C 
ENDROOT
BRANCH   1   7
ATOM      7  O   LIG d   1      -6.630  93.704 118.383  0.00  0.00    -0.368 OA
BRANCH   7   8
ATOM      8  C   LIG d   1      -8.012  93.442 118.732  0.00  0.00     0.119 C 
BRANCH   8   9
ATOM      9  C   LIG d   1      -8.747  94.796 118.759  0.00  0.00     0.028 C 
ATOM     10  C   LIG d   1      -8.653  95.542 117.417  0.00  0.00     0.006 C 
ENDBRANCH   8   9
BRANCH   8  11
ATOM     11  C   LIG d   1      -8.132  92.887 120.154  0.00  0.00     0.028 C 
ATOM     12  C   LIG d   1      -7.032  91.868 120.491  0.00  0.00     0.006 C 
ENDBRANCH   8  11
ENDBRANCH   7   8
ENDBRANCH   1   7
BRANCH   6  13
ATOM     13  N   LIG d   1      -3.748  93.434 117.545  0.00  0.00    -0.311 N 
ATOM     14  C   LIG d   1      -2.720  93.424 118.393  0.00  0.00     0.210 C 
ATOM     15  C   LIG d   1      -1.785  94.633 118.289  0.00  0.00     0.109 C 
ATOM     16  O   LIG d   1      -2.477  92.513 119.198  0.00  0.00    -0.276 OA
ATOM     17  H   LIG d   1      -3.851  94.196 116.905  0.00  0.00     0.149 HD
ENDBRANCH   6  13
BRANCH   5  18
ATOM     18  N   LIG d   1      -3.214  90.528 116.771  0.00  0.00     0.381 N 
ATOM     19  H   LIG d   1      -2.501  90.757 116.107  0.00  0.00    -0.090 HD
ATOM     20  H   LIG d   1      -3.403  89.543 116.703  0.00  0.00    -0.090 HD
ATOM     21  H   LIG d   1      -2.906  90.752 117.691  0.00  0.00    -0.090 HD
ENDBRANCH   5  18
BRANCH   3  22
ATOM     22  C   LIG d   1      -7.837  90.151 115.578  0.00  0.00     0.382 C 
ATOM     23  O   LIG d   1      -8.108  88.978 115.932  0.00  0.00    -0.241 OA
ATOM     24  O   LIG d   1      -8.429  90.648 114.601  0.00  0.00    -0.241 OA
ENDBRANCH   3  22
TORSDOF 7
ENDMDL
MODEL 5
REMARK VINA RESULT:      -5.0      2.655      3.862
REMARK  7 active torsions:
REMARK  status: ('A' for Active; 'I' for Inactive)
REMARK    1  A    between atoms: C_2  and  C_3 
REMARK    2  A    between atoms: C_3  and  O_6 
REMARK    3  A    between atoms: C_3  and  C_4 
REMARK    4  A    between atoms: C_7  and  O_6 
REMARK    5  A    between atoms: C_9  and  C_10 
REMARK    6  A    between atoms: N_15  and  C_14 
REMARK    7  A    between atoms: N_20  and  C_19 
REMARK       I    between atoms: C_22  and  N_20 
ROOT
ATOM      1  C   LIG d   1      -6.411  92.568 118.421  0.00  0.00     0.161 C 
ATOM      2  C   LIG d   1      -7.647  92.571 119.088  0.00  0.00     0.016 C 
ATOM      3  C   LIG d   1      -8.615  93.590 118.930  0.00  0.00     0.038 C 
ATOM      4  C   LIG d   1      -8.473  94.605 117.973  0.00  0.00     0.028 C 
ATOM      5  C   LIG d   1      -7.020  94.924 117.638  0.00  0.00    -0.047 C 
ATOM      6  C   LIG d   1      -6.285  93.609 117.288  0.00  0.00     0.091 C 
ENDROOT
BRANCH   1   7
ATOM      7  O   LIG d   1      -6.128  91.247 117.920  0.00  0.00    -0.368 OA
BRANCH   7   8
ATOM      8  C   LIG d   1      -6.179  91.086 116.481  0.00  0.00     0.119 C 
BRANCH   8   9
ATOM      9  C   LIG d   1      -7.403  90.207 116.156  0.00  0.00     0.028 C 
ATOM     10  C   LIG d   1      -7.947  90.459 114.740  0.00  0.00     0.006 C 
ENDBRANCH   8   9
BRANCH   8  11
ATOM     11  C   LIG d   1      -4.969  90.303 115.964  0.00  0.00     0.028 C 
ATOM     12  C   LIG d   1      -3.789  90.312 116.948  0.00  0.00     0.006 C 
ENDBRANCH   8  11
ENDBRANCH   7   8
ENDBRANCH   1   7
BRANCH   6  13
ATOM     13  N   LIG d   1      -4.837  93.820 117.030  0.00  0.00    -0.311 N 
ATOM     14  C   LIG d   1      -3.959  94.127 117.984  0.00  0.00     0.210 C 
ATOM     15  C   LIG d   1      -2.519  94.321 117.499  0.00  0.00     0.109 C 
ATOM     16  O   LIG d   1      -4.231  94.225 119.190  0.00  0.00    -0.276 OA
ATOM     17  H   LIG d   1      -4.524  93.730 116.083  0.00  0.00     0.149 HD
ENDBRANCH   6  13
BRANCH   5  18
ATOM     18  N   LIG d   1      -7.020  95.898 116.531  0.00  0.00     0.381 N 
ATOM     19  H   LIG d   1      -7.232  96.811 116.883  0.00  0.00    -0.090 HD
ATOM     20  H   LIG d   1      -7.734  95.641 115.872  0.00  0.00    -0.090 HD
ATOM     21  H   LIG d   1      -6.131  95.905 116.082  0.00  0.00    -0.090 HD
ENDBRANCH   5  18
BRANCH   3  22
ATOM     22  C   LIG d   1      -9.721  93.621 119.765  0.00  0.00     0.382 C 
ATOM     23  O   LIG d   1      -9.950  92.661 120.540  0.00  0.00    -0.241 OA
ATOM     24  O   LIG d   1     -10.518  94.578 119.721  0.00  0.00    -0.241 OA
ENDBRANCH   3  22
TORSDOF 7
ENDMDL
MODEL 6
REMARK VINA RESULT:      -4.7      1.987      2.745
REMARK  7 active torsions:
REMARK  status: ('A' for Active; 'I' for Inactive)
REMARK    1  A    between atoms: C_2  and  C_3 
REMARK    2  A    between atoms: C_3  and  O_6 
REMARK    3  A    between atoms: C_3  and  C_4 
REMARK    4  A    between atoms: C_7  and  O_6 
REMARK    5  A    between atoms: C_9  and  C_10 
REMARK    6  A    between atoms: N_15  and  C_14 
REMARK    7  A    between atoms: N_20  and  C_19 
REMARK       I    between atoms: C_22  and  N_20 
ROOT
ATOM      1  C   LIG d   1      -3.874  90.835 117.314  0.00  0.00     0.161 C 
ATOM      2  C   LIG d   1      -4.774  90.374 116.339  0.00  0.00     0.016 C 
ATOM      3  C   LIG d   1      -5.750  91.196 115.729  0.00  0.00     0.038 C 
ATOM      4  C   LIG d   1      -5.792  92.581 115.946  0.00  0.00     0.028 C 
ATOM      5  C   LIG d   1      -5.232  92.999 117.301  0.00  0.00    -0.047 C 
ATOM      6  C   LIG d   1      -3.832  92.368 117.482  0.00  0.00     0.091 C 
ENDROOT
BRANCH   1   7
ATOM      7  O   LIG d   1      -2.554  90.324 117.041  0.00  0.00    -0.368 OA
BRANCH   7   8
ATOM      8  C   LIG d   1      -2.144  89.171 117.816  0.00  0.00     0.119 C 
BRANCH   8   9
ATOM      9  C   LIG d   1      -2.876  89.238 119.170  0.00  0.00     0.028 C 
ATOM     10  C   LIG d   1      -2.951  87.869 119.866  0.00  0.00     0.006 C 
ENDBRANCH   8   9
BRANCH   8  11
ATOM     11  C   LIG d   1      -0.652  89.231 118.158  0.00  0.00     0.028 C 
ATOM     12  C   LIG d   1       0.156  88.101 117.500  0.00  0.00     0.006 C 
ENDBRANCH   8  11
ENDBRANCH   7   8
ENDBRANCH   1   7
BRANCH   6  13
ATOM     13  N   LIG d   1      -3.248  92.658 118.817  0.00  0.00    -0.311 N 
ATOM     14  C   LIG d   1      -1.984  93.038 118.997  0.00  0.00     0.210 C 
ATOM     15  C   LIG d   1      -1.579  93.267 120.456  0.00  0.00     0.109 C 
ATOM     16  O   LIG d   1      -1.169  93.239 118.084  0.00  0.00    -0.276 OA
ATOM     17  H   LIG d   1      -3.848  92.551 119.611  0.00  0.00     0.149 HD
ENDBRANCH   6  13
BRANCH   5  18
ATOM     18  N   LIG d   1      -5.210  94.474 117.338  0.00  0.00     0.381 N 
ATOM     19  H   LIG d   1      -4.296  94.793 117.592  0.00  0.00    -0.090 HD
ATOM     20  H   LIG d   1      -5.860  94.791 118.035  0.00  0.00    -0.090 HD
ATOM     21  H   LIG d   1      -5.462  94.841 116.447  0.00  0.00    -0.090 HD
ENDBRANCH   5  18
BRANCH   3  22
ATOM     22  C   LIG d   1      -6.723  90.625 114.923  0.00  0.00     0.382 C 
ATOM     23  O   LIG d   1      -7.803  91.229 114.721  0.00  0.00    -0.241 OA
ATOM     24  O   LIG d   1      -6.551  89.494 114.430  0.00  0.00    -0.241 OA
ENDBRANCH   3  22
TORSDOF 7
ENDMDL
MODEL 7
REMARK VINA RESULT:      -4.7      1.494      2.219
REMARK  7 active torsions:
REMARK  status: ('A' for Active; 'I' for Inactive)
REMARK    1  A    between atoms: C_2  and  C_3 
REMARK    2  A    between atoms: C_3  and  O_6 
REMARK    3  A    between atoms: C_3  and  C_4 
REMARK    4  A    between atoms: C_7  and  O_6 
REMARK    5  A    between atoms: C_9  and  C_10 
REMARK    6  A    between atoms: N_15  and  C_14 
REMARK    7  A    between atoms: N_20  and  C_19 
REMARK       I    between atoms: C_22  and  N_20 
ROOT
ATOM      1  C   LIG d   1      -4.850  92.511 117.143  0.00  0.00     0.161 C 
ATOM      2  C   LIG d   1      -5.168  91.306 116.494  0.00  0.00     0.016 C 
ATOM      3  C   LIG d   1      -6.389  91.086 115.816  0.00  0.00     0.038 C 
ATOM      4  C   LIG d   1      -7.320  92.116 115.611  0.00  0.00     0.028 C 
ATOM      5  C   LIG d   1      -7.266  93.202 116.680  0.00  0.00    -0.047 C 
ATOM      6  C   LIG d   1      -5.806  93.683 116.834  0.00  0.00     0.091 C 
ENDROOT
BRANCH   1   7
ATOM      7  O   LIG d   1      -3.490  92.882 116.845  0.00  0.00    -0.368 OA
BRANCH   7   8
ATOM      8  C   LIG d   1      -2.527  92.682 117.909  0.00  0.00     0.119 C 
BRANCH   8   9
ATOM      9  C   LIG d   1      -1.868  94.044 118.200  0.00  0.00     0.028 C 
ATOM     10  C   LIG d   1      -0.513  93.901 118.913  0.00  0.00     0.006 C 
ENDBRANCH   8   9
BRANCH   8  11
ATOM     11  C   LIG d   1      -1.384  91.766 117.460  0.00  0.00     0.028 C 
ATOM     12  C   LIG d   1      -1.724  90.274 117.604  0.00  0.00     0.006 C 
ENDBRANCH   8  11
ENDBRANCH   7   8
ENDBRANCH   1   7
BRANCH   6  13
ATOM     13  N   LIG d   1      -5.651  94.687 117.919  0.00  0.00    -0.311 N 
ATOM     14  C   LIG d   1      -5.900  94.425 119.201  0.00  0.00     0.210 C 
ATOM     15  C   LIG d   1      -5.696  95.607 120.154  0.00  0.00     0.109 C 
ATOM     16  O   LIG d   1      -6.240  93.317 119.644  0.00  0.00    -0.276 OA
ATOM     17  H   LIG d   1      -5.349  95.604 117.653  0.00  0.00     0.149 HD
ENDBRANCH   6  13
BRANCH   5  18
ATOM     18  N   LIG d   1      -8.189  94.278 116.268  0.00  0.00     0.381 N 
ATOM     19  H   LIG d   1      -9.135  93.968 116.366  0.00  0.00    -0.090 HD
ATOM     20  H   LIG d   1      -8.026  94.493 115.301  0.00  0.00    -0.090 HD
ATOM     21  H   LIG d   1      -8.038  95.089 116.827  0.00  0.00    -0.090 HD
ENDBRANCH   5  18
BRANCH   3  22
ATOM     22  C   LIG d   1      -6.708  89.812 115.370  0.00  0.00     0.382 C 
ATOM     23  O   LIG d   1      -6.056  89.297 114.430  0.00  0.00    -0.241 OA
ATOM     24  O   LIG d   1      -7.666  89.191 115.866  0.00  0.00    -0.241 OA
ENDBRANCH   3  22
TORSDOF 7
ENDMDL
MODEL 8
REMARK VINA RESULT:      -4.6      1.732      5.024
REMARK  7 active torsions:
REMARK  status: ('A' for Active; 'I' for Inactive)
REMARK    1  A    between atoms: C_2  and  C_3 
REMARK    2  A    between atoms: C_3  and  O_6 
REMARK    3  A    between atoms: C_3  and  C_4 
REMARK    4  A    between atoms: C_7  and  O_6 
REMARK    5  A    between atoms: C_9  and  C_10 
REMARK    6  A    between atoms: N_15  and  C_14 
REMARK    7  A    between atoms: N_20  and  C_19 
REMARK       I    between atoms: C_22  and  N_20 
ROOT
ATOM      1  C   LIG d   1      -3.586  93.198 117.158  0.00  0.00     0.161 C 
ATOM      2  C   LIG d   1      -3.405  94.420 117.826  0.00  0.00     0.016 C 
ATOM      3  C   LIG d   1      -4.470  95.286 118.168  0.00  0.00     0.038 C 
ATOM      4  C   LIG d   1      -5.811  94.914 117.996  0.00  0.00     0.028 C 
ATOM      5  C   LIG d   1      -6.023  93.911 116.867  0.00  0.00    -0.047 C 
ATOM      6  C   LIG d   1      -5.052  92.724 117.062  0.00  0.00     0.091 C 
ENDROOT
BRANCH   1   7
ATOM      7  O   LIG d   1      -2.770  92.180 117.770  0.00  0.00    -0.368 OA
BRANCH   7   8
ATOM      8  C   LIG d   1      -3.294  91.588 118.984  0.00  0.00     0.119 C 
BRANCH   8   9
ATOM      9  C   LIG d   1      -2.235  91.780 120.087  0.00  0.00     0.028 C 
ATOM     10  C   LIG d   1      -0.855  92.150 119.518  0.00  0.00     0.006 C 
ENDBRANCH   8   9
BRANCH   8  11
ATOM     11  C   LIG d   1      -3.457  90.072 118.839  0.00  0.00     0.028 C 
ATOM     12  C   LIG d   1      -2.754  89.514 117.592  0.00  0.00     0.006 C 
ENDBRANCH   8  11
ENDBRANCH   7   8
ENDBRANCH   1   7
BRANCH   6  13
ATOM     13  N   LIG d   1      -5.134  91.737 115.954  0.00  0.00    -0.311 N 
ATOM     14  C   LIG d   1      -5.875  90.632 116.010  0.00  0.00     0.210 C 
ATOM     15  C   LIG d   1      -5.801  89.740 114.767  0.00  0.00     0.109 C 
ATOM     16  O   LIG d   1      -6.612  90.322 116.958  0.00  0.00    -0.276 OA
ATOM     17  H   LIG d   1      -4.592  91.926 115.133  0.00  0.00     0.149 HD
ENDBRANCH   6  13
BRANCH   5  18
ATOM     18  N   LIG d   1      -7.441  93.507 116.889  0.00  0.00     0.381 N 
ATOM     19  H   LIG d   1      -7.580  92.723 116.284  0.00  0.00    -0.090 HD
ATOM     20  H   LIG d   1      -8.002  94.270 116.551  0.00  0.00    -0.090 HD
ATOM     21  H   LIG d   1      -7.714  93.272 117.818  0.00  0.00    -0.090 HD
ENDBRANCH   5  18
BRANCH   3  22
ATOM     22  C   LIG d   1      -4.195  96.556 118.651  0.00  0.00     0.382 C 
ATOM     23  O   LIG d   1      -5.088  97.208 119.243  0.00  0.00    -0.241 OA
ATOM     24  O   LIG d   1      -3.078  97.076 118.462  0.00  0.00    -0.241 OA
ENDBRANCH   3  22
TORSDOF 7
ENDMDL
MODEL 9
REMARK VINA RESULT:      -4.5      2.270      4.438
REMARK  7 active torsions:
REMARK  status: ('A' for Active; 'I' for Inactive)
REMARK    1  A    between atoms: C_2  and  C_3 
REMARK    2  A    between atoms: C_3  and  O_6 
REMARK    3  A    between atoms: C_3  and  C_4 
REMARK    4  A    between atoms: C_7  and  O_6 
REMARK    5  A    between atoms: C_9  and  C_10 
REMARK    6  A    between atoms: N_15  and  C_14 
REMARK    7  A    between atoms: N_20  and  C_19 
REMARK       I    between atoms: C_22  and  N_20 
ROOT
ATOM      1  C   LIG d   1      -4.019  93.314 117.036  0.00  0.00     0.161 C 
ATOM      2  C   LIG d   1      -5.347  93.255 116.580  0.00  0.00     0.016 C 
ATOM      3  C   LIG d   1      -6.021  92.043 116.303  0.00  0.00     0.038 C 
ATOM      4  C   LIG d   1      -5.459  90.795 116.609  0.00  0.00     0.028 C 
ATOM      5  C   LIG d   1      -3.934  90.798 116.597  0.00  0.00    -0.047 C 
ATOM      6  C   LIG d   1      -3.428  91.960 117.482  0.00  0.00     0.091 C 
ENDROOT
BRANCH   1   7
ATOM      7  O   LIG d   1      -3.911  94.282 118.099  0.00  0.00    -0.368 OA
BRANCH   7   8
ATOM      8  C   LIG d   1      -5.128  94.564 118.831  0.00  0.00     0.119 C 
BRANCH   8   9
ATOM      9  C   LIG d   1      -5.160  96.079 119.111  0.00  0.00     0.028 C 
ATOM     10  C   LIG d   1      -3.988  96.823 118.449  0.00  0.00     0.006 C 
ENDBRANCH   8   9
BRANCH   8  11
ATOM     11  C   LIG d   1      -5.116  93.897 120.210  0.00  0.00     0.028 C 
ATOM     12  C   LIG d   1      -5.914  92.585 120.244  0.00  0.00     0.006 C 
ENDBRANCH   8  11
ENDBRANCH   7   8
ENDBRANCH   1   7
BRANCH   6  13
ATOM     13  N   LIG d   1      -1.947  92.088 117.458  0.00  0.00    -0.311 N 
ATOM     14  C   LIG d   1      -1.149  91.524 118.363  0.00  0.00     0.210 C 
ATOM     15  C   LIG d   1       0.346  91.797 118.166  0.00  0.00     0.109 C 
ATOM     16  O   LIG d   1      -1.534  90.798 119.292  0.00  0.00    -0.276 OA
ATOM     17  H   LIG d   1      -1.548  92.634 116.721  0.00  0.00     0.149 HD
ENDBRANCH   6  13
BRANCH   5  18
ATOM     18  N   LIG d   1      -3.481  89.475 117.066  0.00  0.00     0.381 N 
ATOM     19  H   LIG d   1      -4.037  88.758 116.644  0.00  0.00    -0.090 HD
ATOM     20  H   LIG d   1      -3.605  89.424 118.062  0.00  0.00    -0.090 HD
ATOM     21  H   LIG d   1      -2.521  89.341 116.836  0.00  0.00    -0.090 HD
ENDBRANCH   5  18
BRANCH   3  22
ATOM     22  C   LIG d   1      -7.257  92.073 115.675  0.00  0.00     0.382 C 
ATOM     23  O   LIG d   1      -7.862  91.001 115.430  0.00  0.00    -0.241 OA
ATOM     24  O   LIG d   1      -7.755  93.155 115.311  0.00  0.00    -0.241 OA
ENDBRANCH   3  22
TORSDOF 7
ENDMDL
