MODEL 1
REMARK VINA RESULT:      -5.6      0.000      0.000
REMARK  7 active torsions:
REMARK  status: ('A' for Active; 'I' for Inactive)
REMARK    1  A    between atoms: C_2  and  C_3 
REMARK    2  A    between atoms: C_3  and  O_6 
REMARK    3  A    between atoms: C_3  and  C_4 
REMARK    4  A    between atoms: C_7  and  O_6 
REMARK    5  A    between atoms: C_9  and  C_10 
REMARK    6  A    between atoms: N_15  and  C_14 
REMARK    7  A    between atoms: N_20  and  C_19 
REMARK       I    between atoms: C_22  and  N_20 
ROOT
ATOM      1  C   LIG d   1      -6.315  93.111 117.719  0.00  0.00     0.161 C 
ATOM      2  C   LIG d   1      -7.074  92.083 117.136  0.00  0.00     0.016 C 
ATOM      3  C   LIG d   1      -6.502  90.925 116.559  0.00  0.00     0.038 C 
ATOM      4  C   LIG d   1      -5.132  90.645 116.663  0.00  0.00     0.028 C 
ATOM      5  C   LIG d   1      -4.266  91.893 116.797  0.00  0.00    -0.047 C 
ATOM      6  C   LIG d   1      -4.826  92.771 117.940  0.00  0.00     0.091 C 
ENDROOT
BRANCH   1   7
ATOM      7  O   LIG d   1      -6.924  93.525 118.958  0.00  0.00    -0.368 OA
BRANCH   7   8
ATOM      8  C   LIG d   1      -8.042  94.440 118.844  0.00  0.00     0.119 C 
BRANCH   8   9
ATOM      9  C   LIG d   1      -7.481  95.803 118.396  0.00  0.00     0.028 C 
ATOM     10  C   LIG d   1      -6.515  96.408 119.428  0.00  0.00     0.006 C 
ENDBRANCH   8   9
BRANCH   8  11
ATOM     11  C   LIG d   1      -8.692  94.697 120.207  0.00  0.00     0.028 C 
ATOM     12  C   LIG d   1     -10.209  94.452 120.199  0.00  0.00     0.006 C 
ENDBRANCH   8  11
ENDBRANCH   7   8
ENDBRANCH   1   7
BRANCH   6  13
ATOM     13  N   LIG d   1      -4.088  94.053 118.084  0.00  0.00    -0.311 N 
ATOM     14  C   LIG d   1      -3.081  94.227 118.938  0.00  0.00     0.210 C 
ATOM     15  C   LIG d   1      -2.472  95.633 118.940  0.00  0.00     0.109 C 
ATOM     16  O   LIG d   1      -2.614  93.343 119.671  0.00  0.00    -0.276 OA
ATOM     17  H   LIG d   1      -4.381  94.815 117.504  0.00  0.00     0.149 HD
ENDBRANCH   6  13
BRANCH   5  18
ATOM     18  N   LIG d   1      -2.879  91.450 117.035  0.00  0.00     0.381 N 
ATOM     19  H   LIG d   1      -2.547  91.826 117.900  0.00  0.00    -0.090 HD
ATOM     20  H   LIG d   1      -2.296  91.799 116.295  0.00  0.00    -0.090 HD
ATOM     21  H   LIG d   1      -2.838  90.455 117.059  0.00  0.00    -0.090 HD
ENDBRANCH   5  18
BRANCH   3  22
ATOM     22  C   LIG d   1      -7.300  90.052 115.835  0.00  0.00     0.382 C 
ATOM     23  O   LIG d   1      -7.181  89.982 114.588  0.00  0.00    -0.241 OA
ATOM     24  O   LIG d   1      -8.168  89.367 116.408  0.00  0.00    -0.241 OA
ENDBRANCH   3  22
TORSDOF 7
ENDMDL
MODEL 2
REMARK VINA RESULT:      -5.1      2.119      4.629
REMARK  7 active torsions:
REMARK  status: ('A' for Active; 'I' for Inactive)
REMARK    1  A    between atoms: C_2  and  C_3 
REMARK    2  A    between atoms: C_3  and  O_6 
REMARK    3  A    between atoms: C_3  and  C_4 
REMARK    4  A    between atoms: C_7  and  O_6 
REMARK    5  A    between atoms: C_9  and  C_10 
REMARK    6  A    between atoms: N_15  and  C_14 
REMARK    7  A    between atoms: N_20  and  C_19 
REMARK       I    between atoms: C_22  and  N_20 
ROOT
ATOM      1  C   LIG d   1      -4.885  92.681 117.747  0.00  0.00     0.161 C 
ATOM      2  C   LIG d   1      -4.990  91.662 116.786  0.00  0.00     0.016 C 
ATOM      3  C   LIG d   1      -6.167  91.409 116.045  0.00  0.00     0.038 C 
ATOM      4  C   LIG d   1      -7.280  92.261 116.108  0.00  0.00     0.028 C 
ATOM      5  C   LIG d   1      -7.400  93.003 117.435  0.00  0.00    -0.047 C 
ATOM      6  C   LIG d   1      -6.052  93.690 117.750  0.00  0.00     0.091 C 
ENDROOT
BRANCH   1   7
ATOM      7  O   LIG d   1      -3.628  93.370 117.595  0.00  0.00    -0.368 OA
BRANCH   7   8
ATOM      8  C   LIG d   1      -2.440  92.607 117.919  0.00  0.00     0.119 C 
BRANCH   8   9
ATOM      9  C   LIG d   1      -2.347  92.525 119.455  0.00  0.00     0.028 C 
ATOM     10  C   LIG d   1      -2.328  91.074 119.965  0.00  0.00     0.006 C 
ENDBRANCH   8   9
BRANCH   8  11
ATOM     11  C   LIG d   1      -1.169  93.338 117.475  0.00  0.00     0.028 C 
ATOM     12  C   LIG d   1      -1.373  94.854 117.333  0.00  0.00     0.006 C 
ENDBRANCH   8  11
ENDBRANCH   7   8
ENDBRANCH   1   7
BRANCH   6  13
ATOM     13  N   LIG d   1      -6.057  94.369 119.072  0.00  0.00    -0.311 N 
ATOM     14  C   LIG d   1      -6.402  95.644 119.241  0.00  0.00     0.210 C 
ATOM     15  C   LIG d   1      -6.319  96.152 120.683  0.00  0.00     0.109 C 
ATOM     16  O   LIG d   1      -6.801  96.394 118.337  0.00  0.00    -0.276 OA
ATOM     17  H   LIG d   1      -5.777  93.825 119.865  0.00  0.00     0.149 HD
ENDBRANCH   6  13
BRANCH   5  18
ATOM     18  N   LIG d   1      -8.520  93.955 117.313  0.00  0.00     0.381 N 
ATOM     19  H   LIG d   1      -9.113  93.685 116.554  0.00  0.00    -0.090 HD
ATOM     20  H   LIG d   1      -8.151  94.868 117.116  0.00  0.00    -0.090 HD
ATOM     21  H   LIG d   1      -9.043  93.977 118.161  0.00  0.00    -0.090 HD
ENDBRANCH   5  18
BRANCH   3  22
ATOM     22  C   LIG d   1      -6.253  90.270 115.259  0.00  0.00     0.382 C 
ATOM     23  O   LIG d   1      -7.334  89.981 114.691  0.00  0.00    -0.241 OA
ATOM     24  O   LIG d   1      -5.277  89.505 115.147  0.00  0.00    -0.241 OA
ENDBRANCH   3  22
TORSDOF 7
ENDMDL
MODEL 3
REMARK VINA RESULT:      -5.0      2.080      4.161
REMARK  7 active torsions:
REMARK  status: ('A' for Active; 'I' for Inactive)
REMARK    1  A    between atoms: C_2  and  C_3 
REMARK    2  A    between atoms: C_3  and  O_6 
REMARK    3  A    between atoms: C_3  and  C_4 
REMARK    4  A    between atoms: C_7  and  O_6 
REMARK    5  A    between atoms: C_9  and  C_10 
REMARK    6  A    between atoms: N_15  and  C_14 
REMARK    7  A    between atoms: N_20  and  C_19 
REMARK       I    between atoms: C_22  and  N_20 
ROOT
ATOM      1  C   LIG d   1      -5.442  91.996 118.626  0.00  0.00     0.161 C 
ATOM      2  C   LIG d   1      -5.415  91.127 117.523  0.00  0.00     0.016 C 
ATOM      3  C   LIG d   1      -6.318  91.216 116.439  0.00  0.00     0.038 C 
ATOM      4  C   LIG d   1      -7.221  92.282 116.312  0.00  0.00     0.028 C 
ATOM      5  C   LIG d   1      -7.625  92.897 117.649  0.00  0.00    -0.047 C 
ATOM      6  C   LIG d   1      -6.348  93.233 118.452  0.00  0.00     0.091 C 
ENDROOT
BRANCH   1   7
ATOM      7  O   LIG d   1      -4.101  92.401 118.963  0.00  0.00    -0.368 OA
BRANCH   7   8
ATOM      8  C   LIG d   1      -3.578  93.542 118.239  0.00  0.00     0.119 C 
BRANCH   8   9
ATOM      9  C   LIG d   1      -2.343  93.064 117.450  0.00  0.00     0.028 C 
ATOM     10  C   LIG d   1      -1.754  91.761 118.016  0.00  0.00     0.006 C 
ENDBRANCH   8   9
BRANCH   8  11
ATOM     11  C   LIG d   1      -3.057  94.618 119.196  0.00  0.00     0.028 C 
ATOM     12  C   LIG d   1      -3.094  94.176 120.667  0.00  0.00     0.006 C 
ENDBRANCH   8  11
ENDBRANCH   7   8
ENDBRANCH   1   7
BRANCH   6  13
ATOM     13  N   LIG d   1      -6.654  93.761 119.808  0.00  0.00    -0.311 N 
ATOM     14  C   LIG d   1      -6.691  95.061 120.097  0.00  0.00     0.210 C 
ATOM     15  C   LIG d   1      -7.006  95.388 121.560  0.00  0.00     0.109 C 
ATOM     16  O   LIG d   1      -6.524  95.974 119.275  0.00  0.00    -0.276 OA
ATOM     17  H   LIG d   1      -6.833  93.090 120.529  0.00  0.00     0.149 HD
ENDBRANCH   6  13
BRANCH   5  18
ATOM     18  N   LIG d   1      -8.456  94.081 117.362  0.00  0.00     0.381 N 
ATOM     19  H   LIG d   1      -7.910  94.912 117.465  0.00  0.00    -0.090 HD
ATOM     20  H   LIG d   1      -9.212  94.115 118.024  0.00  0.00    -0.090 HD
ATOM     21  H   LIG d   1      -8.819  94.026 116.435  0.00  0.00    -0.090 HD
ENDBRANCH   5  18
BRANCH   3  22
ATOM     22  C   LIG d   1      -6.351  90.208 115.487  0.00  0.00     0.382 C 
ATOM     23  O   LIG d   1      -5.324  89.523 115.264  0.00  0.00    -0.241 OA
ATOM     24  O   LIG d   1      -7.382  90.005 114.818  0.00  0.00    -0.241 OA
ENDBRANCH   3  22
TORSDOF 7
ENDMDL
MODEL 4
REMARK VINA RESULT:      -4.7      2.366      4.945
REMARK  7 active torsions:
REMARK  status: ('A' for Active; 'I' for Inactive)
REMARK    1  A    between atoms: C_2  and  C_3 
REMARK    2  A    between atoms: C_3  and  O_6 
REMARK    3  A    between atoms: C_3  and  C_4 
REMARK    4  A    between atoms: C_7  and  O_6 
REMARK    5  A    between atoms: C_9  and  C_10 
REMARK    6  A    between atoms: N_15  and  C_14 
REMARK    7  A    between atoms: N_20  and  C_19 
REMARK       I    between atoms: C_22  and  N_20 
ROOT
ATOM      1  C   LIG d   1      -3.773  91.810 117.718  0.00  0.00     0.161 C 
ATOM      2  C   LIG d   1      -4.607  90.951 116.984  0.00  0.00     0.016 C 
ATOM      3  C   LIG d   1      -5.931  91.282 116.612  0.00  0.00     0.038 C 
ATOM      4  C   LIG d   1      -6.461  92.565 116.820  0.00  0.00     0.028 C 
ATOM      5  C   LIG d   1      -5.833  93.294 118.003  0.00  0.00    -0.047 C 
ATOM      6  C   LIG d   1      -4.295  93.256 117.857  0.00  0.00     0.091 C 
ENDROOT
BRANCH   1   7
ATOM      7  O   LIG d   1      -2.448  91.809 117.149  0.00  0.00    -0.368 OA
BRANCH   7   8
ATOM      8  C   LIG d   1      -1.455  91.021 117.849  0.00  0.00     0.119 C 
BRANCH   8   9
ATOM      9  C   LIG d   1      -1.945  90.841 119.299  0.00  0.00     0.028 C 
ATOM     10  C   LIG d   1      -1.015  91.516 120.321  0.00  0.00     0.006 C 
ENDBRANCH   8   9
BRANCH   8  11
ATOM     11  C   LIG d   1      -0.125  91.773 117.961  0.00  0.00     0.028 C 
ATOM     12  C   LIG d   1       0.965  91.197 117.044  0.00  0.00     0.006 C 
ENDBRANCH   8  11
ENDBRANCH   7   8
ENDBRANCH   1   7
BRANCH   6  13
ATOM     13  N   LIG d   1      -3.600  93.874 119.016  0.00  0.00    -0.311 N 
ATOM     14  C   LIG d   1      -2.526  94.653 118.897  0.00  0.00     0.210 C 
ATOM     15  C   LIG d   1      -1.954  95.172 120.220  0.00  0.00     0.109 C 
ATOM     16  O   LIG d   1      -2.013  94.990 117.820  0.00  0.00    -0.276 OA
ATOM     17  H   LIG d   1      -3.969  93.679 119.927  0.00  0.00     0.149 HD
ENDBRANCH   6  13
BRANCH   5  18
ATOM     18  N   LIG d   1      -6.378  94.665 118.020  0.00  0.00     0.381 N 
ATOM     19  H   LIG d   1      -7.376  94.634 117.957  0.00  0.00    -0.090 HD
ATOM     20  H   LIG d   1      -6.027  95.165 117.222  0.00  0.00    -0.090 HD
ATOM     21  H   LIG d   1      -6.105  95.130 118.859  0.00  0.00    -0.090 HD
ENDBRANCH   5  18
BRANCH   3  22
ATOM     22  C   LIG d   1      -6.753  90.312 116.059  0.00  0.00     0.382 C 
ATOM     23  O   LIG d   1      -6.446  89.778 114.966  0.00  0.00    -0.241 OA
ATOM     24  O   LIG d   1      -7.820  89.995 116.618  0.00  0.00    -0.241 OA
ENDBRANCH   3  22
TORSDOF 7
ENDMDL
MODEL 5
REMARK VINA RESULT:      -4.5      2.275      4.736
REMARK  7 active torsions:
REMARK  status: ('A' for Active; 'I' for Inactive)
REMARK    1  A    between atoms: C_2  and  C_3 
REMARK    2  A    between atoms: C_3  and  O_6 
REMARK    3  A    between atoms: C_3  and  C_4 
REMARK    4  A    between atoms: C_7  and  O_6 
REMARK    5  A    between atoms: C_9  and  C_10 
REMARK    6  A    between atoms: N_15  and  C_14 
REMARK    7  A    between atoms: N_20  and  C_19 
REMARK       I    between atoms: C_22  and  N_20 
ROOT
ATOM      1  C   LIG d   1      -3.612  93.361 118.075  0.00  0.00     0.161 C 
ATOM      2  C   LIG d   1      -4.938  93.813 118.187  0.00  0.00     0.016 C 
ATOM      3  C   LIG d   1      -6.050  93.090 117.698  0.00  0.00     0.038 C 
ATOM      4  C   LIG d   1      -5.924  91.786 117.195  0.00  0.00     0.028 C 
ATOM      5  C   LIG d   1      -4.550  91.496 116.602  0.00  0.00    -0.047 C 
ATOM      6  C   LIG d   1      -3.465  91.891 117.630  0.00  0.00     0.091 C 
ENDROOT
BRANCH   1   7
ATOM      7  O   LIG d   1      -2.915  93.580 119.318  0.00  0.00    -0.368 OA
BRANCH   7   8
ATOM      8  C   LIG d   1      -2.099  94.775 119.388  0.00  0.00     0.119 C 
BRANCH   8   9
ATOM      9  C   LIG d   1      -1.584  95.069 117.966  0.00  0.00     0.028 C 
ATOM     10  C   LIG d   1      -0.072  94.826 117.827  0.00  0.00     0.006 C 
ENDBRANCH   8   9
BRANCH   8  11
ATOM     11  C   LIG d   1      -0.843  94.542 120.234  0.00  0.00     0.028 C 
ATOM     12  C   LIG d   1      -0.984  93.351 121.195  0.00  0.00     0.006 C 
ENDBRANCH   8  11
ENDBRANCH   7   8
ENDBRANCH   1   7
BRANCH   6  13
ATOM     13  N   LIG d   1      -2.089  91.718 117.097  0.00  0.00    -0.311 N 
ATOM     14  C   LIG d   1      -1.098  91.164 117.793  0.00  0.00     0.210 C 
ATOM     15  C   LIG d   1       0.248  91.100 117.064  0.00  0.00     0.109 C 
ATOM     16  O   LIG d   1      -1.213  90.690 118.934  0.00  0.00    -0.276 OA
ATOM     17  H   LIG d   1      -1.915  92.046 116.168  0.00  0.00     0.149 HD
ENDBRANCH   6  13
BRANCH   5  18
ATOM     18  N   LIG d   1      -4.513  90.066 116.243  0.00  0.00     0.381 N 
ATOM     19  H   LIG d   1      -5.422  89.765 115.955  0.00  0.00    -0.090 HD
ATOM     20  H   LIG d   1      -4.247  89.534 117.053  0.00  0.00    -0.090 HD
ATOM     21  H   LIG d   1      -3.857  89.915 115.508  0.00  0.00    -0.090 HD
ENDBRANCH   5  18
BRANCH   3  22
ATOM     22  C   LIG d   1      -7.301  93.688 117.672  0.00  0.00     0.382 C 
ATOM     23  O   LIG d   1      -8.236  93.158 117.025  0.00  0.00    -0.241 OA
ATOM     24  O   LIG d   1      -7.494  94.774 118.251  0.00  0.00    -0.241 OA
ENDBRANCH   3  22
TORSDOF 7
ENDMDL
MODEL 6
REMARK VINA RESULT:      -4.3      1.629      4.851
REMARK  7 active torsions:
REMARK  status: ('A' for Active; 'I' for Inactive)
REMARK    1  A    between atoms: C_2  and  C_3 
REMARK    2  A    between atoms: C_3  and  O_6 
REMARK    3  A    between atoms: C_3  and  C_4 
REMARK    4  A    between atoms: C_7  and  O_6 
REMARK    5  A    between atoms: C_9  and  C_10 
REMARK    6  A    between atoms: N_15  and  C_14 
REMARK    7  A    between atoms: N_20  and  C_19 
REMARK       I    between atoms: C_22  and  N_20 
ROOT
ATOM      1  C   LIG d   1      -5.304  93.778 118.503  0.00  0.00     0.161 C 
ATOM      2  C   LIG d   1      -4.425  94.639 119.180  0.00  0.00     0.016 C 
ATOM      3  C   LIG d   1      -3.018  94.515 119.127  0.00  0.00     0.038 C 
ATOM      4  C   LIG d   1      -2.386  93.606 118.265  0.00  0.00     0.028 C 
ATOM      5  C   LIG d   1      -3.238  92.382 117.946  0.00  0.00    -0.047 C 
ATOM      6  C   LIG d   1      -4.632  92.850 117.469  0.00  0.00     0.091 C 
ENDROOT
BRANCH   1   7
ATOM      7  O   LIG d   1      -6.355  94.543 117.881  0.00  0.00    -0.368 OA
BRANCH   7   8
ATOM      8  C   LIG d   1      -7.682  94.371 118.435  0.00  0.00     0.119 C 
BRANCH   8   9
ATOM      9  C   LIG d   1      -8.340  95.763 118.501  0.00  0.00     0.028 C 
ATOM     10  C   LIG d   1      -7.311  96.903 118.422  0.00  0.00     0.006 C 
ENDBRANCH   8   9
BRANCH   8  11
ATOM     11  C   LIG d   1      -7.621  93.883 119.885  0.00  0.00     0.028 C 
ATOM     12  C   LIG d   1      -8.753  94.454 120.755  0.00  0.00     0.006 C 
ENDBRANCH   8  11
ENDBRANCH   7   8
ENDBRANCH   1   7
BRANCH   6  13
ATOM     13  N   LIG d   1      -5.556  91.714 117.217  0.00  0.00    -0.311 N 
ATOM     14  C   LIG d   1      -6.203  91.538 116.066  0.00  0.00     0.210 C 
ATOM     15  C   LIG d   1      -7.122  90.313 116.023  0.00  0.00     0.109 C 
ATOM     16  O   LIG d   1      -6.080  92.262 115.067  0.00  0.00    -0.276 OA
ATOM     17  H   LIG d   1      -5.691  91.061 117.963  0.00  0.00     0.149 HD
ENDBRANCH   6  13
BRANCH   5  18
ATOM     18  N   LIG d   1      -2.516  91.589 116.932  0.00  0.00     0.381 N 
ATOM     19  H   LIG d   1      -1.992  92.198 116.336  0.00  0.00    -0.090 HD
ATOM     20  H   LIG d   1      -3.186  91.096 116.368  0.00  0.00    -0.090 HD
ATOM     21  H   LIG d   1      -1.905  90.941 117.378  0.00  0.00    -0.090 HD
ENDBRANCH   5  18
BRANCH   3  22
ATOM     22  C   LIG d   1      -2.227  95.278 119.972  0.00  0.00     0.382 C 
ATOM     23  O   LIG d   1      -1.313  94.734 120.637  0.00  0.00    -0.241 OA
ATOM     24  O   LIG d   1      -2.446  96.497 120.113  0.00  0.00    -0.241 OA
ENDBRANCH   3  22
TORSDOF 7
ENDMDL
MODEL 7
REMARK VINA RESULT:      -4.3      3.829      7.507
REMARK  7 active torsions:
REMARK  status: ('A' for Active; 'I' for Inactive)
REMARK    1  A    between atoms: C_2  and  C_3 
REMARK    2  A    between atoms: C_3  and  O_6 
REMARK    3  A    between atoms: C_3  and  C_4 
REMARK    4  A    between atoms: C_7  and  O_6 
REMARK    5  A    between atoms: C_9  and  C_10 
REMARK    6  A    between atoms: N_15  and  C_14 
REMARK    7  A    between atoms: N_20  and  C_19 
REMARK       I    between atoms: C_22  and  N_20 
ROOT
ATOM      1  C   LIG d   1      -0.544  91.471 117.170  0.00  0.00     0.161 C 
ATOM      2  C   LIG d   1       0.602  92.199 117.532  0.00  0.00     0.016 C 
ATOM      3  C   LIG d   1       0.557  93.515 118.046  0.00  0.00     0.038 C 
ATOM      4  C   LIG d   1      -0.653  94.141 118.377  0.00  0.00     0.028 C 
ATOM      5  C   LIG d   1      -1.838  93.639 117.559  0.00  0.00    -0.047 C 
ATOM      6  C   LIG d   1      -1.879  92.096 117.628  0.00  0.00     0.091 C 
ENDROOT
BRANCH   1   7
ATOM      7  O   LIG d   1      -0.434  90.116 117.650  0.00  0.00    -0.368 OA
BRANCH   7   8
ATOM      8  C   LIG d   1      -1.236  89.784 118.810  0.00  0.00     0.119 C 
BRANCH   8   9
ATOM      9  C   LIG d   1      -0.270  89.546 119.987  0.00  0.00     0.028 C 
ATOM     10  C   LIG d   1      -0.134  90.780 120.893  0.00  0.00     0.006 C 
ENDBRANCH   8   9
BRANCH   8  11
ATOM     11  C   LIG d   1      -1.974  88.456 118.615  0.00  0.00     0.028 C 
ATOM     12  C   LIG d   1      -2.970  88.157 119.747  0.00  0.00     0.006 C 
ENDBRANCH   8  11
ENDBRANCH   7   8
ENDBRANCH   1   7
BRANCH   6  13
ATOM     13  N   LIG d   1      -2.958  91.518 116.786  0.00  0.00    -0.311 N 
ATOM     14  C   LIG d   1      -4.169  91.215 117.252  0.00  0.00     0.210 C 
ATOM     15  C   LIG d   1      -5.126  90.611 116.220  0.00  0.00     0.109 C 
ATOM     16  O   LIG d   1      -4.550  91.418 118.414  0.00  0.00    -0.276 OA
ATOM     17  H   LIG d   1      -2.745  91.350 115.822  0.00  0.00     0.149 HD
ENDBRANCH   6  13
BRANCH   5  18
ATOM     18  N   LIG d   1      -3.055  94.274 118.101  0.00  0.00     0.381 N 
ATOM     19  H   LIG d   1      -3.838  94.060 117.517  0.00  0.00    -0.090 HD
ATOM     20  H   LIG d   1      -2.927  95.271 118.104  0.00  0.00    -0.090 HD
ATOM     21  H   LIG d   1      -3.224  93.951 119.028  0.00  0.00    -0.090 HD
ENDBRANCH   5  18
BRANCH   3  22
ATOM     22  C   LIG d   1       1.733  94.234 118.197  0.00  0.00     0.382 C 
ATOM     23  O   LIG d   1       2.812  93.772 117.752  0.00  0.00    -0.241 OA
ATOM     24  O   LIG d   1       1.737  95.318 118.810  0.00  0.00    -0.241 OA
ENDBRANCH   3  22
TORSDOF 7
ENDMDL
MODEL 8
REMARK VINA RESULT:      -4.2      2.461      5.216
REMARK  7 active torsions:
REMARK  status: ('A' for Active; 'I' for Inactive)
REMARK    1  A    between atoms: C_2  and  C_3 
REMARK    2  A    between atoms: C_3  and  O_6 
REMARK    3  A    between atoms: C_3  and  C_4 
REMARK    4  A    between atoms: C_7  and  O_6 
REMARK    5  A    between atoms: C_9  and  C_10 
REMARK    6  A    between atoms: N_15  and  C_14 
REMARK    7  A    between atoms: N_20  and  C_19 
REMARK       I    between atoms: C_22  and  N_20 
ROOT
ATOM      1  C   LIG d   1      -4.211  93.092 118.261  0.00  0.00     0.161 C 
ATOM      2  C   LIG d   1      -5.407  92.923 117.544  0.00  0.00     0.016 C 
ATOM      3  C   LIG d   1      -6.550  93.733 117.735  0.00  0.00     0.038 C 
ATOM      4  C   LIG d   1      -6.524  94.871 118.556  0.00  0.00     0.028 C 
ATOM      5  C   LIG d   1      -5.498  94.782 119.681  0.00  0.00    -0.047 C 
ATOM      6  C   LIG d   1      -4.127  94.397 119.081  0.00  0.00     0.091 C 
ENDROOT
BRANCH   1   7
ATOM      7  O   LIG d   1      -3.086  92.988 117.366  0.00  0.00    -0.368 OA
BRANCH   7   8
ATOM      8  C   LIG d   1      -2.270  91.799 117.503  0.00  0.00     0.119 C 
BRANCH   8   9
ATOM      9  C   LIG d   1      -2.828  90.988 118.689  0.00  0.00     0.028 C 
ATOM     10  C   LIG d   1      -3.088  89.517 118.324  0.00  0.00     0.006 C 
ENDBRANCH   8   9
BRANCH   8  11
ATOM     11  C   LIG d   1      -0.832  92.151 117.894  0.00  0.00     0.028 C 
ATOM     12  C   LIG d   1       0.213  91.498 116.975  0.00  0.00     0.006 C 
ENDBRANCH   8  11
ENDBRANCH   7   8
ENDBRANCH   1   7
BRANCH   6  13
ATOM     13  N   LIG d   1      -3.085  94.206 120.123  0.00  0.00    -0.311 N 
ATOM     14  C   LIG d   1      -1.931  94.872 120.136  0.00  0.00     0.210 C 
ATOM     15  C   LIG d   1      -0.989  94.510 121.289  0.00  0.00     0.109 C 
ATOM     16  O   LIG d   1      -1.612  95.751 119.322  0.00  0.00    -0.276 OA
ATOM     17  H   LIG d   1      -3.275  93.535 120.841  0.00  0.00     0.149 HD
ENDBRANCH   6  13
BRANCH   5  18
ATOM     18  N   LIG d   1      -5.481  96.085 120.372  0.00  0.00     0.381 N 
ATOM     19  H   LIG d   1      -5.286  96.814 119.715  0.00  0.00    -0.090 HD
ATOM     20  H   LIG d   1      -4.749  96.078 121.061  0.00  0.00    -0.090 HD
ATOM     21  H   LIG d   1      -6.360  96.250 120.811  0.00  0.00    -0.090 HD
ENDBRANCH   5  18
BRANCH   3  22
ATOM     22  C   LIG d   1      -7.749  93.384 117.132  0.00  0.00     0.382 C 
ATOM     23  O   LIG d   1      -8.837  93.692 117.675  0.00  0.00    -0.241 OA
ATOM     24  O   LIG d   1      -7.755  92.726 116.074  0.00  0.00    -0.241 OA
ENDBRANCH   3  22
TORSDOF 7
ENDMDL
MODEL 9
REMARK VINA RESULT:      -4.2      2.809      5.455
REMARK  7 active torsions:
REMARK  status: ('A' for Active; 'I' for Inactive)
REMARK    1  A    between atoms: C_2  and  C_3 
REMARK    2  A    between atoms: C_3  and  O_6 
REMARK    3  A    between atoms: C_3  and  C_4 
REMARK    4  A    between atoms: C_7  and  O_6 
REMARK    5  A    between atoms: C_9  and  C_10 
REMARK    6  A    between atoms: N_15  and  C_14 
REMARK    7  A    between atoms: N_20  and  C_19 
REMARK       I    between atoms: C_22  and  N_20 
ROOT
ATOM      1  C   LIG d   1      -3.647  92.241 118.847  0.00  0.00     0.161 C 
ATOM      2  C   LIG d   1      -3.269  93.516 118.395  0.00  0.00     0.016 C 
ATOM      3  C   LIG d   1      -1.995  93.804 117.853  0.00  0.00     0.038 C 
ATOM      4  C   LIG d   1      -1.058  92.795 117.585  0.00  0.00     0.028 C 
ATOM      5  C   LIG d   1      -1.206  91.575 118.489  0.00  0.00    -0.047 C 
ATOM      6  C   LIG d   1      -2.678  91.104 118.460  0.00  0.00     0.091 C 
ENDROOT
BRANCH   1   7
ATOM      7  O   LIG d   1      -4.981  91.937 118.394  0.00  0.00    -0.368 OA
BRANCH   7   8
ATOM      8  C   LIG d   1      -5.370  92.516 117.124  0.00  0.00     0.119 C 
BRANCH   8   9
ATOM      9  C   LIG d   1      -6.808  93.047 117.278  0.00  0.00     0.028 C 
ATOM     10  C   LIG d   1      -6.863  94.381 118.042  0.00  0.00     0.006 C 
ENDBRANCH   8   9
BRANCH   8  11
ATOM     11  C   LIG d   1      -5.446  91.451 116.026  0.00  0.00     0.028 C 
ATOM     12  C   LIG d   1      -6.535  91.748 114.982  0.00  0.00     0.006 C 
ENDBRANCH   8  11
ENDBRANCH   7   8
ENDBRANCH   1   7
BRANCH   6  13
ATOM     13  N   LIG d   1      -2.927  89.966 119.383  0.00  0.00    -0.311 N 
ATOM     14  C   LIG d   1      -2.810  88.690 119.021  0.00  0.00     0.210 C 
ATOM     15  C   LIG d   1      -3.133  87.674 120.122  0.00  0.00     0.109 C 
ATOM     16  O   LIG d   1      -2.439  88.302 117.903  0.00  0.00    -0.276 OA
ATOM     17  H   LIG d   1      -3.202  90.191 120.319  0.00  0.00     0.149 HD
ENDBRANCH   6  13
BRANCH   5  18
ATOM     18  N   LIG d   1      -0.260  90.549 118.011  0.00  0.00     0.381 N 
ATOM     19  H   LIG d   1      -0.313  89.740 118.597  0.00  0.00    -0.090 HD
ATOM     20  H   LIG d   1       0.673  90.917 118.065  0.00  0.00    -0.090 HD
ATOM     21  H   LIG d   1      -0.474  90.301 117.070  0.00  0.00    -0.090 HD
ENDBRANCH   5  18
BRANCH   3  22
ATOM     22  C   LIG d   1      -1.633  95.120 117.611  0.00  0.00     0.382 C 
ATOM     23  O   LIG d   1      -0.958  95.407 116.593  0.00  0.00    -0.241 OA
ATOM     24  O   LIG d   1      -1.935  96.018 118.420  0.00  0.00    -0.241 OA
ENDBRANCH   3  22
TORSDOF 7
ENDMDL
