MODEL 1
REMARK VINA RESULT:      -5.5      0.000      0.000
REMARK  7 active torsions:
REMARK  status: ('A' for Active; 'I' for Inactive)
REMARK    1  A    between atoms: C_2  and  C_3 
REMARK    2  A    between atoms: C_3  and  O_6 
REMARK    3  A    between atoms: C_3  and  C_4 
REMARK    4  A    between atoms: C_7  and  O_6 
REMARK    5  A    between atoms: C_9  and  C_10 
REMARK    6  A    between atoms: N_15  and  C_14 
REMARK    7  A    between atoms: N_20  and  C_19 
REMARK       I    between atoms: C_22  and  N_20 
ROOT
ATOM      1  C   LIG d   1      -6.233  92.844 118.036  0.00  0.00     0.161 C 
ATOM      2  C   LIG d   1      -6.904  91.877 117.270  0.00  0.00     0.016 C 
ATOM      3  C   LIG d   1      -6.244  90.830 116.586  0.00  0.00     0.038 C 
ATOM      4  C   LIG d   1      -4.871  90.590 116.747  0.00  0.00     0.028 C 
ATOM      5  C   LIG d   1      -4.075  91.840 117.106  0.00  0.00    -0.047 C 
ATOM      6  C   LIG d   1      -4.747  92.532 118.314  0.00  0.00     0.091 C 
ENDROOT
BRANCH   1   7
ATOM      7  O   LIG d   1      -6.939  93.063 119.274  0.00  0.00    -0.368 OA
BRANCH   7   8
ATOM      8  C   LIG d   1      -7.133  94.445 119.662  0.00  0.00     0.119 C 
BRANCH   8   9
ATOM      9  C   LIG d   1      -8.220  94.472 120.754  0.00  0.00     0.028 C 
ATOM     10  C   LIG d   1      -8.436  93.093 121.399  0.00  0.00     0.006 C 
ENDBRANCH   8   9
BRANCH   8  11
ATOM     11  C   LIG d   1      -7.699  95.274 118.505  0.00  0.00     0.028 C 
ATOM     12  C   LIG d   1      -9.085  95.862 118.816  0.00  0.00     0.006 C 
ENDBRANCH   8  11
ENDBRANCH   7   8
ENDBRANCH   1   7
BRANCH   6  13
ATOM     13  N   LIG d   1      -4.080  93.810 118.678  0.00  0.00    -0.311 N 
ATOM     14  C   LIG d   1      -3.124  93.900 119.601  0.00  0.00     0.210 C 
ATOM     15  C   LIG d   1      -2.585  95.314 119.837  0.00  0.00     0.109 C 
ATOM     16  O   LIG d   1      -2.649  92.938 120.223  0.00  0.00    -0.276 OA
ATOM     17  H   LIG d   1      -4.383  94.635 118.199  0.00  0.00     0.149 HD
ENDBRANCH   6  13
BRANCH   5  18
ATOM     18  N   LIG d   1      -2.687  91.421 117.379  0.00  0.00     0.381 N 
ATOM     19  H   LIG d   1      -2.672  90.462 117.663  0.00  0.00    -0.090 HD
ATOM     20  H   LIG d   1      -2.321  91.978 118.131  0.00  0.00    -0.090 HD
ATOM     21  H   LIG d   1      -2.128  91.543 116.564  0.00  0.00    -0.090 HD
ENDBRANCH   5  18
BRANCH   3  22
ATOM     22  C   LIG d   1      -6.952  90.035 115.698  0.00  0.00     0.382 C 
ATOM     23  O   LIG d   1      -7.996  89.450 116.076  0.00  0.00    -0.241 OA
ATOM     24  O   LIG d   1      -6.537  89.860 114.537  0.00  0.00    -0.241 OA
ENDBRANCH   3  22
TORSDOF 7
ENDMDL
MODEL 2
REMARK VINA RESULT:      -5.4      2.338      4.923
REMARK  7 active torsions:
REMARK  status: ('A' for Active; 'I' for Inactive)
REMARK    1  A    between atoms: C_2  and  C_3 
REMARK    2  A    between atoms: C_3  and  O_6 
REMARK    3  A    between atoms: C_3  and  C_4 
REMARK    4  A    between atoms: C_7  and  O_6 
REMARK    5  A    between atoms: C_9  and  C_10 
REMARK    6  A    between atoms: N_15  and  C_14 
REMARK    7  A    between atoms: N_20  and  C_19 
REMARK       I    between atoms: C_22  and  N_20 
ROOT
ATOM      1  C   LIG d   1      -4.562  91.014 117.615  0.00  0.00     0.161 C 
ATOM      2  C   LIG d   1      -5.508  90.442 116.748  0.00  0.00     0.016 C 
ATOM      3  C   LIG d   1      -6.703  91.092 116.363  0.00  0.00     0.038 C 
ATOM      4  C   LIG d   1      -6.962  92.429 116.701  0.00  0.00     0.028 C 
ATOM      5  C   LIG d   1      -6.276  92.871 117.989  0.00  0.00    -0.047 C 
ATOM      6  C   LIG d   1      -4.774  92.514 117.906  0.00  0.00     0.091 C 
ENDROOT
BRANCH   1   7
ATOM      7  O   LIG d   1      -3.233  90.785 117.107  0.00  0.00    -0.368 OA
BRANCH   7   8
ATOM      8  C   LIG d   1      -2.338  90.045 117.973  0.00  0.00     0.119 C 
BRANCH   8   9
ATOM      9  C   LIG d   1      -0.899  90.311 117.489  0.00  0.00     0.028 C 
ATOM     10  C   LIG d   1      -0.057  91.062 118.534  0.00  0.00     0.006 C 
ENDBRANCH   8   9
BRANCH   8  11
ATOM     11  C   LIG d   1      -2.542  88.534 117.826  0.00  0.00     0.028 C 
ATOM     12  C   LIG d   1      -2.419  87.783 119.161  0.00  0.00     0.006 C 
ENDBRANCH   8  11
ENDBRANCH   7   8
ENDBRANCH   1   7
BRANCH   6  13
ATOM     13  N   LIG d   1      -4.044  92.837 119.160  0.00  0.00    -0.311 N 
ATOM     14  C   LIG d   1      -2.881  93.485 119.185  0.00  0.00     0.210 C 
ATOM     15  C   LIG d   1      -2.289  93.698 120.581  0.00  0.00     0.109 C 
ATOM     16  O   LIG d   1      -2.300  93.933 118.185  0.00  0.00    -0.276 OA
ATOM     17  H   LIG d   1      -4.461  92.538 120.020  0.00  0.00     0.149 HD
ENDBRANCH   6  13
BRANCH   5  18
ATOM     18  N   LIG d   1      -6.518  94.318 118.149  0.00  0.00     0.381 N 
ATOM     19  H   LIG d   1      -7.195  94.624 117.479  0.00  0.00    -0.090 HD
ATOM     20  H   LIG d   1      -5.660  94.812 117.979  0.00  0.00    -0.090 HD
ATOM     21  H   LIG d   1      -6.843  94.509 119.071  0.00  0.00    -0.090 HD
ENDBRANCH   5  18
BRANCH   3  22
ATOM     22  C   LIG d   1      -7.672  90.390 115.663  0.00  0.00     0.382 C 
ATOM     23  O   LIG d   1      -8.099  90.832 114.569  0.00  0.00    -0.241 OA
ATOM     24  O   LIG d   1      -8.158  89.344 116.133  0.00  0.00    -0.241 OA
ENDBRANCH   3  22
TORSDOF 7
ENDMDL
MODEL 3
REMARK VINA RESULT:      -5.1      1.052      1.757
REMARK  7 active torsions:
REMARK  status: ('A' for Active; 'I' for Inactive)
REMARK    1  A    between atoms: C_2  and  C_3 
REMARK    2  A    between atoms: C_3  and  O_6 
REMARK    3  A    between atoms: C_3  and  C_4 
REMARK    4  A    between atoms: C_7  and  O_6 
REMARK    5  A    between atoms: C_9  and  C_10 
REMARK    6  A    between atoms: N_15  and  C_14 
REMARK    7  A    between atoms: N_20  and  C_19 
REMARK       I    between atoms: C_22  and  N_20 
ROOT
ATOM      1  C   LIG d   1      -5.763  92.955 118.182  0.00  0.00     0.161 C 
ATOM      2  C   LIG d   1      -6.754  92.220 117.511  0.00  0.00     0.016 C 
ATOM      3  C   LIG d   1      -6.476  91.084 116.716  0.00  0.00     0.038 C 
ATOM      4  C   LIG d   1      -5.196  90.513 116.661  0.00  0.00     0.028 C 
ATOM      5  C   LIG d   1      -4.075  91.514 116.916  0.00  0.00    -0.047 C 
ATOM      6  C   LIG d   1      -4.375  92.282 118.224  0.00  0.00     0.091 C 
ENDROOT
BRANCH   1   7
ATOM      7  O   LIG d   1      -6.208  93.270 119.516  0.00  0.00    -0.368 OA
BRANCH   7   8
ATOM      8  C   LIG d   1      -7.205  94.315 119.626  0.00  0.00     0.119 C 
BRANCH   8   9
ATOM      9  C   LIG d   1      -6.458  95.661 119.708  0.00  0.00     0.028 C 
ATOM     10  C   LIG d   1      -6.836  96.466 120.963  0.00  0.00     0.006 C 
ENDBRANCH   8   9
BRANCH   8  11
ATOM     11  C   LIG d   1      -7.986  94.204 120.939  0.00  0.00     0.028 C 
ATOM     12  C   LIG d   1      -8.261  92.749 121.347  0.00  0.00     0.006 C 
ENDBRANCH   8  11
ENDBRANCH   7   8
ENDBRANCH   1   7
BRANCH   6  13
ATOM     13  N   LIG d   1      -3.370  93.341 118.503  0.00  0.00    -0.311 N 
ATOM     14  C   LIG d   1      -2.295  93.148 119.265  0.00  0.00     0.210 C 
ATOM     15  C   LIG d   1      -1.398  94.377 119.440  0.00  0.00     0.109 C 
ATOM     16  O   LIG d   1      -1.982  92.067 119.786  0.00  0.00    -0.276 OA
ATOM     17  H   LIG d   1      -3.530  94.241 118.094  0.00  0.00     0.149 HD
ENDBRANCH   6  13
BRANCH   5  18
ATOM     18  N   LIG d   1      -2.807  90.761 116.966  0.00  0.00     0.381 N 
ATOM     19  H   LIG d   1      -2.762  90.231 117.813  0.00  0.00    -0.090 HD
ATOM     20  H   LIG d   1      -2.042  91.412 116.960  0.00  0.00    -0.090 HD
ATOM     21  H   LIG d   1      -2.741  90.152 116.180  0.00  0.00    -0.090 HD
ENDBRANCH   5  18
BRANCH   3  22
ATOM     22  C   LIG d   1      -7.479  90.531 115.934  0.00  0.00     0.382 C 
ATOM     23  O   LIG d   1      -7.952  91.179 114.970  0.00  0.00    -0.241 OA
ATOM     24  O   LIG d   1      -7.947  89.409 116.207  0.00  0.00    -0.241 OA
ENDBRANCH   3  22
TORSDOF 7
ENDMDL
MODEL 4
REMARK VINA RESULT:      -5.1      2.737      6.382
REMARK  7 active torsions:
REMARK  status: ('A' for Active; 'I' for Inactive)
REMARK    1  A    between atoms: C_2  and  C_3 
REMARK    2  A    between atoms: C_3  and  O_6 
REMARK    3  A    between atoms: C_3  and  C_4 
REMARK    4  A    between atoms: C_7  and  O_6 
REMARK    5  A    between atoms: C_9  and  C_10 
REMARK    6  A    between atoms: N_15  and  C_14 
REMARK    7  A    between atoms: N_20  and  C_19 
REMARK       I    between atoms: C_22  and  N_20 
ROOT
ATOM      1  C   LIG d   1      -4.368  90.946 117.251  0.00  0.00     0.161 C 
ATOM      2  C   LIG d   1      -3.293  91.756 117.654  0.00  0.00     0.016 C 
ATOM      3  C   LIG d   1      -3.451  92.936 118.417  0.00  0.00     0.038 C 
ATOM      4  C   LIG d   1      -4.690  93.307 118.961  0.00  0.00     0.028 C 
ATOM      5  C   LIG d   1      -5.881  92.794 118.158  0.00  0.00    -0.047 C 
ATOM      6  C   LIG d   1      -5.715  91.275 117.928  0.00  0.00     0.091 C 
ENDROOT
BRANCH   1   7
ATOM      7  O   LIG d   1      -4.034  89.558 117.447  0.00  0.00    -0.368 OA
BRANCH   7   8
ATOM      8  C   LIG d   1      -2.886  89.291 118.290  0.00  0.00     0.119 C 
BRANCH   8   9
ATOM      9  C   LIG d   1      -2.106  88.124 117.655  0.00  0.00     0.028 C 
ATOM     10  C   LIG d   1      -1.651  87.087 118.695  0.00  0.00     0.006 C 
ENDBRANCH   8   9
BRANCH   8  11
ATOM     11  C   LIG d   1      -3.315  88.788 119.672  0.00  0.00     0.028 C 
ATOM     12  C   LIG d   1      -3.128  89.843 120.774  0.00  0.00     0.006 C 
ENDBRANCH   8  11
ENDBRANCH   7   8
ENDBRANCH   1   7
BRANCH   6  13
ATOM     13  N   LIG d   1      -6.795  90.708 117.079  0.00  0.00    -0.311 N 
ATOM     14  C   LIG d   1      -7.111  91.188 115.878  0.00  0.00     0.210 C 
ATOM     15  C   LIG d   1      -8.269  90.470 115.179  0.00  0.00     0.109 C 
ATOM     16  O   LIG d   1      -6.520  92.120 115.310  0.00  0.00    -0.276 OA
ATOM     17  H   LIG d   1      -7.305  89.930 117.449  0.00  0.00     0.149 HD
ENDBRANCH   6  13
BRANCH   5  18
ATOM     18  N   LIG d   1      -7.104  93.134 118.910  0.00  0.00     0.381 N 
ATOM     19  H   LIG d   1      -7.871  93.248 118.276  0.00  0.00    -0.090 HD
ATOM     20  H   LIG d   1      -6.960  94.006 119.389  0.00  0.00    -0.090 HD
ATOM     21  H   LIG d   1      -7.311  92.416 119.568  0.00  0.00    -0.090 HD
ENDBRANCH   5  18
BRANCH   3  22
ATOM     22  C   LIG d   1      -2.368  93.780 118.610  0.00  0.00     0.382 C 
ATOM     23  O   LIG d   1      -1.640  94.098 117.639  0.00  0.00    -0.241 OA
ATOM     24  O   LIG d   1      -2.084  94.192 119.750  0.00  0.00    -0.241 OA
ENDBRANCH   3  22
TORSDOF 7
ENDMDL
MODEL 5
REMARK VINA RESULT:      -5.0      3.937      6.380
REMARK  7 active torsions:
REMARK  status: ('A' for Active; 'I' for Inactive)
REMARK    1  A    between atoms: C_2  and  C_3 
REMARK    2  A    between atoms: C_3  and  O_6 
REMARK    3  A    between atoms: C_3  and  C_4 
REMARK    4  A    between atoms: C_7  and  O_6 
REMARK    5  A    between atoms: C_9  and  C_10 
REMARK    6  A    between atoms: N_15  and  C_14 
REMARK    7  A    between atoms: N_20  and  C_19 
REMARK       I    between atoms: C_22  and  N_20 
ROOT
ATOM      1  C   LIG d   1      -2.787  89.812 118.273  0.00  0.00     0.161 C 
ATOM      2  C   LIG d   1      -4.180  89.870 118.100  0.00  0.00     0.016 C 
ATOM      3  C   LIG d   1      -4.866  91.040 117.702  0.00  0.00     0.038 C 
ATOM      4  C   LIG d   1      -4.185  92.199 117.301  0.00  0.00     0.028 C 
ATOM      5  C   LIG d   1      -2.809  92.345 117.942  0.00  0.00    -0.047 C 
ATOM      6  C   LIG d   1      -2.017  91.035 117.733  0.00  0.00     0.091 C 
ENDROOT
BRANCH   1   7
ATOM      7  O   LIG d   1      -2.272  88.598 117.689  0.00  0.00    -0.368 OA
BRANCH   7   8
ATOM      8  C   LIG d   1      -1.325  87.855 118.495  0.00  0.00     0.119 C 
BRANCH   8   9
ATOM      9  C   LIG d   1      -0.256  87.284 117.544  0.00  0.00     0.028 C 
ATOM     10  C   LIG d   1       0.078  85.814 117.850  0.00  0.00     0.006 C 
ENDBRANCH   8   9
BRANCH   8  11
ATOM     11  C   LIG d   1      -1.983  86.635 119.145  0.00  0.00     0.028 C 
ATOM     12  C   LIG d   1      -2.590  86.948 120.522  0.00  0.00     0.006 C 
ENDBRANCH   8  11
ENDBRANCH   7   8
ENDBRANCH   1   7
BRANCH   6  13
ATOM     13  N   LIG d   1      -0.690  91.062 118.402  0.00  0.00    -0.311 N 
ATOM     14  C   LIG d   1       0.465  90.991 117.743  0.00  0.00     0.210 C 
ATOM     15  C   LIG d   1       1.716  91.015 118.627  0.00  0.00     0.109 C 
ATOM     16  O   LIG d   1       0.573  90.942 116.509  0.00  0.00    -0.276 OA
ATOM     17  H   LIG d   1      -0.684  91.132 119.401  0.00  0.00     0.149 HD
ENDBRANCH   6  13
BRANCH   5  18
ATOM     18  N   LIG d   1      -2.157  93.520 117.333  0.00  0.00     0.381 N 
ATOM     19  H   LIG d   1      -1.929  93.324 116.379  0.00  0.00    -0.090 HD
ATOM     20  H   LIG d   1      -1.303  93.710 117.828  0.00  0.00    -0.090 HD
ATOM     21  H   LIG d   1      -2.761  94.310 117.383  0.00  0.00    -0.090 HD
ENDBRANCH   5  18
BRANCH   3  22
ATOM     22  C   LIG d   1      -6.252  91.070 117.741  0.00  0.00     0.382 C 
ATOM     23  O   LIG d   1      -6.917  90.286 117.022  0.00  0.00    -0.241 OA
ATOM     24  O   LIG d   1      -6.846  91.903 118.452  0.00  0.00    -0.241 OA
ENDBRANCH   3  22
TORSDOF 7
ENDMDL
MODEL 6
REMARK VINA RESULT:      -4.7      2.521      6.514
REMARK  7 active torsions:
REMARK  status: ('A' for Active; 'I' for Inactive)
REMARK    1  A    between atoms: C_2  and  C_3 
REMARK    2  A    between atoms: C_3  and  O_6 
REMARK    3  A    between atoms: C_3  and  C_4 
REMARK    4  A    between atoms: C_7  and  O_6 
REMARK    5  A    between atoms: C_9  and  C_10 
REMARK    6  A    between atoms: N_15  and  C_14 
REMARK    7  A    between atoms: N_20  and  C_19 
REMARK       I    between atoms: C_22  and  N_20 
ROOT
ATOM      1  C   LIG d   1      -3.730  92.337 117.722  0.00  0.00     0.161 C 
ATOM      2  C   LIG d   1      -3.127  92.725 118.930  0.00  0.00     0.016 C 
ATOM      3  C   LIG d   1      -3.847  92.921 120.131  0.00  0.00     0.038 C 
ATOM      4  C   LIG d   1      -5.207  92.592 120.242  0.00  0.00     0.028 C 
ATOM      5  C   LIG d   1      -5.961  92.679 118.920  0.00  0.00    -0.047 C 
ATOM      6  C   LIG d   1      -5.194  91.867 117.851  0.00  0.00     0.091 C 
ENDROOT
BRANCH   1   7
ATOM      7  O   LIG d   1      -2.932  91.321 117.082  0.00  0.00    -0.368 OA
BRANCH   7   8
ATOM      8  C   LIG d   1      -2.154  90.474 117.963  0.00  0.00     0.119 C 
BRANCH   8   9
ATOM      9  C   LIG d   1      -0.727  90.394 117.386  0.00  0.00     0.028 C 
ATOM     10  C   LIG d   1       0.296  91.160 118.242  0.00  0.00     0.006 C 
ENDBRANCH   8   9
BRANCH   8  11
ATOM     11  C   LIG d   1      -2.676  89.034 117.955  0.00  0.00     0.028 C 
ATOM     12  C   LIG d   1      -3.234  88.595 119.318  0.00  0.00     0.006 C 
ENDBRANCH   8  11
ENDBRANCH   7   8
ENDBRANCH   1   7
BRANCH   6  13
ATOM     13  N   LIG d   1      -5.819  91.967 116.506  0.00  0.00    -0.311 N 
ATOM     14  C   LIG d   1      -6.216  90.909 115.801  0.00  0.00     0.210 C 
ATOM     15  C   LIG d   1      -6.817  91.234 114.430  0.00  0.00     0.109 C 
ATOM     16  O   LIG d   1      -6.157  89.735 116.195  0.00  0.00    -0.276 OA
ATOM     17  H   LIG d   1      -5.933  92.886 116.124  0.00  0.00     0.149 HD
ENDBRANCH   6  13
BRANCH   5  18
ATOM     18  N   LIG d   1      -7.329  92.179 119.153  0.00  0.00     0.381 N 
ATOM     19  H   LIG d   1      -7.306  91.192 119.314  0.00  0.00    -0.090 HD
ATOM     20  H   LIG d   1      -7.883  92.353 118.333  0.00  0.00    -0.090 HD
ATOM     21  H   LIG d   1      -7.731  92.641 119.939  0.00  0.00    -0.090 HD
ENDBRANCH   5  18
BRANCH   3  22
ATOM     22  C   LIG d   1      -3.215  93.488 121.227  0.00  0.00     0.382 C 
ATOM     23  O   LIG d   1      -3.818  94.335 121.929  0.00  0.00    -0.241 OA
ATOM     24  O   LIG d   1      -2.034  93.197 121.495  0.00  0.00    -0.241 OA
ENDBRANCH   3  22
TORSDOF 7
ENDMDL
MODEL 7
REMARK VINA RESULT:      -4.5      2.335      3.471
REMARK  7 active torsions:
REMARK  status: ('A' for Active; 'I' for Inactive)
REMARK    1  A    between atoms: C_2  and  C_3 
REMARK    2  A    between atoms: C_3  and  O_6 
REMARK    3  A    between atoms: C_3  and  C_4 
REMARK    4  A    between atoms: C_7  and  O_6 
REMARK    5  A    between atoms: C_9  and  C_10 
REMARK    6  A    between atoms: N_15  and  C_14 
REMARK    7  A    between atoms: N_20  and  C_19 
REMARK       I    between atoms: C_22  and  N_20 
ROOT
ATOM      1  C   LIG d   1      -3.301  92.766 117.858  0.00  0.00     0.161 C 
ATOM      2  C   LIG d   1      -4.635  92.412 117.596  0.00  0.00     0.016 C 
ATOM      3  C   LIG d   1      -5.050  91.087 117.329  0.00  0.00     0.038 C 
ATOM      4  C   LIG d   1      -4.177  89.997 117.456  0.00  0.00     0.028 C 
ATOM      5  C   LIG d   1      -2.715  90.362 117.223  0.00  0.00    -0.047 C 
ATOM      6  C   LIG d   1      -2.353  91.575 118.109  0.00  0.00     0.091 C 
ENDROOT
BRANCH   1   7
ATOM      7  O   LIG d   1      -3.248  93.691 118.962  0.00  0.00    -0.368 OA
BRANCH   7   8
ATOM      8  C   LIG d   1      -4.334  93.604 119.918  0.00  0.00     0.119 C 
BRANCH   8   9
ATOM      9  C   LIG d   1      -4.696  95.042 120.338  0.00  0.00     0.028 C 
ATOM     10  C   LIG d   1      -6.049  95.497 119.765  0.00  0.00     0.006 C 
ENDBRANCH   8   9
BRANCH   8  11
ATOM     11  C   LIG d   1      -3.888  92.905 121.206  0.00  0.00     0.028 C 
ATOM     12  C   LIG d   1      -4.342  91.439 121.276  0.00  0.00     0.006 C 
ENDBRANCH   8  11
ENDBRANCH   7   8
ENDBRANCH   1   7
BRANCH   6  13
ATOM     13  N   LIG d   1      -0.963  92.050 117.881  0.00  0.00    -0.311 N 
ATOM     14  C   LIG d   1       0.075  91.661 118.619  0.00  0.00     0.210 C 
ATOM     15  C   LIG d   1       1.417  92.287 118.227  0.00  0.00     0.109 C 
ATOM     16  O   LIG d   1       0.017  90.833 119.540  0.00  0.00    -0.276 OA
ATOM     17  H   LIG d   1      -0.821  92.700 117.133  0.00  0.00     0.149 HD
ENDBRANCH   6  13
BRANCH   5  18
ATOM     18  N   LIG d   1      -1.904  89.166 117.521  0.00  0.00     0.381 N 
ATOM     19  H   LIG d   1      -1.674  88.692 116.670  0.00  0.00    -0.090 HD
ATOM     20  H   LIG d   1      -2.445  88.541 118.093  0.00  0.00    -0.090 HD
ATOM     21  H   LIG d   1      -1.071  89.429 117.999  0.00  0.00    -0.090 HD
ENDBRANCH   5  18
BRANCH   3  22
ATOM     22  C   LIG d   1      -6.344  90.848 116.892  0.00  0.00     0.382 C 
ATOM     23  O   LIG d   1      -7.254  91.674 117.144  0.00  0.00    -0.241 OA
ATOM     24  O   LIG d   1      -6.622  89.795 116.286  0.00  0.00    -0.241 OA
ENDBRANCH   3  22
TORSDOF 7
ENDMDL
MODEL 8
REMARK VINA RESULT:      -4.4      2.432      4.748
REMARK  7 active torsions:
REMARK  status: ('A' for Active; 'I' for Inactive)
REMARK    1  A    between atoms: C_2  and  C_3 
REMARK    2  A    between atoms: C_3  and  O_6 
REMARK    3  A    between atoms: C_3  and  C_4 
REMARK    4  A    between atoms: C_7  and  O_6 
REMARK    5  A    between atoms: C_9  and  C_10 
REMARK    6  A    between atoms: N_15  and  C_14 
REMARK    7  A    between atoms: N_20  and  C_19 
REMARK       I    between atoms: C_22  and  N_20 
ROOT
ATOM      1  C   LIG d   1      -4.707  91.350 117.843  0.00  0.00     0.161 C 
ATOM      2  C   LIG d   1      -3.561  90.708 117.347  0.00  0.00     0.016 C 
ATOM      3  C   LIG d   1      -2.311  90.727 118.007  0.00  0.00     0.038 C 
ATOM      4  C   LIG d   1      -2.160  91.267 119.293  0.00  0.00     0.028 C 
ATOM      5  C   LIG d   1      -3.167  92.367 119.610  0.00  0.00    -0.047 C 
ATOM      6  C   LIG d   1      -4.590  91.849 119.298  0.00  0.00     0.091 C 
ENDROOT
BRANCH   1   7
ATOM      7  O   LIG d   1      -5.852  90.485 117.701  0.00  0.00    -0.368 OA
BRANCH   7   8
ATOM      8  C   LIG d   1      -6.944  91.001 116.901  0.00  0.00     0.119 C 
BRANCH   8   9
ATOM      9  C   LIG d   1      -7.315  89.916 115.871  0.00  0.00     0.028 C 
ATOM     10  C   LIG d   1      -8.803  89.531 115.934  0.00  0.00     0.006 C 
ENDBRANCH   8   9
BRANCH   8  11
ATOM     11  C   LIG d   1      -6.506  92.213 116.073  0.00  0.00     0.028 C 
ATOM     12  C   LIG d   1      -6.504  91.933 114.562  0.00  0.00     0.006 C 
ENDBRANCH   8  11
ENDBRANCH   7   8
ENDBRANCH   1   7
BRANCH   6  13
ATOM     13  N   LIG d   1      -5.629  92.892 119.501  0.00  0.00    -0.311 N 
ATOM     14  C   LIG d   1      -6.702  92.718 120.271  0.00  0.00     0.210 C 
ATOM     15  C   LIG d   1      -7.659  93.912 120.327  0.00  0.00     0.109 C 
ATOM     16  O   LIG d   1      -6.936  91.699 120.939  0.00  0.00    -0.276 OA
ATOM     17  H   LIG d   1      -5.503  93.762 119.021  0.00  0.00     0.149 HD
ENDBRANCH   6  13
BRANCH   5  18
ATOM     18  N   LIG d   1      -2.986  92.742 121.025  0.00  0.00     0.381 N 
ATOM     19  H   LIG d   1      -3.469  93.598 121.213  0.00  0.00    -0.090 HD
ATOM     20  H   LIG d   1      -2.007  92.888 121.200  0.00  0.00    -0.090 HD
ATOM     21  H   LIG d   1      -3.333  92.020 121.617  0.00  0.00    -0.090 HD
ENDBRANCH   5  18
BRANCH   3  22
ATOM     22  C   LIG d   1      -1.185  90.237 117.362  0.00  0.00     0.382 C 
ATOM     23  O   LIG d   1      -0.367  91.031 116.838  0.00  0.00    -0.241 OA
ATOM     24  O   LIG d   1      -1.000  89.010 117.260  0.00  0.00    -0.241 OA
ENDBRANCH   3  22
TORSDOF 7
ENDMDL
MODEL 9
REMARK VINA RESULT:      -4.4      2.869      4.780
REMARK  7 active torsions:
REMARK  status: ('A' for Active; 'I' for Inactive)
REMARK    1  A    between atoms: C_2  and  C_3 
REMARK    2  A    between atoms: C_3  and  O_6 
REMARK    3  A    between atoms: C_3  and  C_4 
REMARK    4  A    between atoms: C_7  and  O_6 
REMARK    5  A    between atoms: C_9  and  C_10 
REMARK    6  A    between atoms: N_15  and  C_14 
REMARK    7  A    between atoms: N_20  and  C_19 
REMARK       I    between atoms: C_22  and  N_20 
ROOT
ATOM      1  C   LIG d   1      -2.747  92.561 117.714  0.00  0.00     0.161 C 
ATOM      2  C   LIG d   1      -4.140  92.472 117.873  0.00  0.00     0.016 C 
ATOM      3  C   LIG d   1      -4.838  91.245 117.952  0.00  0.00     0.038 C 
ATOM      4  C   LIG d   1      -4.168  90.015 118.031  0.00  0.00     0.028 C 
ATOM      5  C   LIG d   1      -2.795  90.030 117.367  0.00  0.00    -0.047 C 
ATOM      6  C   LIG d   1      -1.989  91.231 117.910  0.00  0.00     0.091 C 
ENDROOT
BRANCH   1   7
ATOM      7  O   LIG d   1      -2.219  93.573 118.594  0.00  0.00    -0.368 OA
BRANCH   7   8
ATOM      8  C   LIG d   1      -1.819  93.126 119.913  0.00  0.00     0.119 C 
BRANCH   8   9
ATOM      9  C   LIG d   1      -2.808  93.731 120.927  0.00  0.00     0.028 C 
ATOM     10  C   LIG d   1      -2.964  95.252 120.758  0.00  0.00     0.006 C 
ENDBRANCH   8   9
BRANCH   8  11
ATOM     11  C   LIG d   1      -0.447  93.688 120.299  0.00  0.00     0.028 C 
ATOM     12  C   LIG d   1       0.280  94.349 119.118  0.00  0.00     0.006 C 
ENDBRANCH   8  11
ENDBRANCH   7   8
ENDBRANCH   1   7
BRANCH   6  13
ATOM     13  N   LIG d   1      -0.664  91.369 117.250  0.00  0.00    -0.311 N 
ATOM     14  C   LIG d   1       0.459  90.850 117.745  0.00  0.00     0.210 C 
ATOM     15  C   LIG d   1       1.718  91.126 116.918  0.00  0.00     0.109 C 
ATOM     16  O   LIG d   1       0.526  90.160 118.773  0.00  0.00    -0.276 OA
ATOM     17  H   LIG d   1      -0.632  91.887 116.394  0.00  0.00     0.149 HD
ENDBRANCH   6  13
BRANCH   5  18
ATOM     18  N   LIG d   1      -2.153  88.731 117.642  0.00  0.00     0.381 N 
ATOM     19  H   LIG d   1      -1.961  88.648 118.621  0.00  0.00    -0.090 HD
ATOM     20  H   LIG d   1      -1.281  88.687 117.145  0.00  0.00    -0.090 HD
ATOM     21  H   LIG d   1      -2.749  87.987 117.350  0.00  0.00    -0.090 HD
ENDBRANCH   5  18
BRANCH   3  22
ATOM     22  C   LIG d   1      -6.224  91.239 117.914  0.00  0.00     0.382 C 
ATOM     23  O   LIG d   1      -6.827  90.439 117.158  0.00  0.00    -0.241 OA
ATOM     24  O   LIG d   1      -6.879  92.053 118.592  0.00  0.00    -0.241 OA
ENDBRANCH   3  22
TORSDOF 7
ENDMDL
