MODEL 1
REMARK VINA RESULT:      -5.6      0.000      0.000
REMARK  7 active torsions:
REMARK  status: ('A' for Active; 'I' for Inactive)
REMARK    1  A    between atoms: C_2  and  C_3 
REMARK    2  A    between atoms: C_3  and  O_6 
REMARK    3  A    between atoms: C_3  and  C_4 
REMARK    4  A    between atoms: C_7  and  O_6 
REMARK    5  A    between atoms: C_9  and  C_10 
REMARK    6  A    between atoms: N_15  and  C_14 
REMARK    7  A    between atoms: N_20  and  C_19 
REMARK       I    between atoms: C_22  and  N_20 
ROOT
ATOM      1  C   LIG d   1      -6.606  93.441 117.931  0.00  0.00     0.161 C 
ATOM      2  C   LIG d   1      -7.174  92.403 117.175  0.00  0.00     0.016 C 
ATOM      3  C   LIG d   1      -6.423  91.337 116.628  0.00  0.00     0.038 C 
ATOM      4  C   LIG d   1      -5.065  91.157 116.930  0.00  0.00     0.028 C 
ATOM      5  C   LIG d   1      -4.343  92.455 117.274  0.00  0.00    -0.047 C 
ATOM      6  C   LIG d   1      -5.145  93.202 118.364  0.00  0.00     0.091 C 
ENDROOT
BRANCH   1   7
ATOM      7  O   LIG d   1      -7.431  93.716 119.081  0.00  0.00    -0.368 OA
BRANCH   7   8
ATOM      8  C   LIG d   1      -8.745  94.261 118.808  0.00  0.00     0.119 C 
BRANCH   8   9
ATOM      9  C   LIG d   1      -8.569  95.760 118.496  0.00  0.00     0.028 C 
ATOM     10  C   LIG d   1      -7.667  96.470 119.519  0.00  0.00     0.006 C 
ENDBRANCH   8   9
BRANCH   8  11
ATOM     11  C   LIG d   1      -9.639  94.208 120.050  0.00  0.00     0.028 C 
ATOM     12  C   LIG d   1      -8.981  93.471 121.227  0.00  0.00     0.006 C 
ENDBRANCH   8  11
ENDBRANCH   7   8
ENDBRANCH   1   7
BRANCH   6  13
ATOM     13  N   LIG d   1      -4.552  94.523 118.699  0.00  0.00    -0.311 N 
ATOM     14  C   LIG d   1      -3.691  94.708 119.698  0.00  0.00     0.210 C 
ATOM     15  C   LIG d   1      -3.217  96.153 119.883  0.00  0.00     0.109 C 
ATOM     16  O   LIG d   1      -3.249  93.808 120.427  0.00  0.00    -0.276 OA
ATOM     17  H   LIG d   1      -4.832  95.304 118.138  0.00  0.00     0.149 HD
ENDBRANCH   6  13
BRANCH   5  18
ATOM     18  N   LIG d   1      -2.975  92.105 117.700  0.00  0.00     0.381 N 
ATOM     19  H   LIG d   1      -3.005  91.335 118.338  0.00  0.00    -0.090 HD
ATOM     20  H   LIG d   1      -2.571  92.893 118.176  0.00  0.00    -0.090 HD
ATOM     21  H   LIG d   1      -2.421  91.867 116.907  0.00  0.00    -0.090 HD
ENDBRANCH   5  18
BRANCH   3  22
ATOM     22  C   LIG d   1      -7.022  90.461 115.736  0.00  0.00     0.382 C 
ATOM     23  O   LIG d   1      -8.160  89.994 115.984  0.00  0.00    -0.241 OA
ATOM     24  O   LIG d   1      -6.420  90.096 114.709  0.00  0.00    -0.241 OA
ENDBRANCH   3  22
TORSDOF 7
ENDMDL
MODEL 2
REMARK VINA RESULT:      -5.4      2.217      4.646
REMARK  7 active torsions:
REMARK  status: ('A' for Active; 'I' for Inactive)
REMARK    1  A    between atoms: C_2  and  C_3 
REMARK    2  A    between atoms: C_3  and  O_6 
REMARK    3  A    between atoms: C_3  and  C_4 
REMARK    4  A    between atoms: C_7  and  O_6 
REMARK    5  A    between atoms: C_9  and  C_10 
REMARK    6  A    between atoms: N_15  and  C_14 
REMARK    7  A    between atoms: N_20  and  C_19 
REMARK       I    between atoms: C_22  and  N_20 
ROOT
ATOM      1  C   LIG d   1      -5.080  92.596 117.971  0.00  0.00     0.161 C 
ATOM      2  C   LIG d   1      -5.383  91.642 116.986  0.00  0.00     0.016 C 
ATOM      3  C   LIG d   1      -6.615  91.603 116.293  0.00  0.00     0.038 C 
ATOM      4  C   LIG d   1      -7.576  92.615 116.433  0.00  0.00     0.028 C 
ATOM      5  C   LIG d   1      -7.524  93.318 117.785  0.00  0.00    -0.047 C 
ATOM      6  C   LIG d   1      -6.072  93.775 118.057  0.00  0.00     0.091 C 
ENDROOT
BRANCH   1   7
ATOM      7  O   LIG d   1      -3.737  93.085 117.781  0.00  0.00    -0.368 OA
BRANCH   7   8
ATOM      8  C   LIG d   1      -2.673  92.125 117.996  0.00  0.00     0.119 C 
BRANCH   8   9
ATOM      9  C   LIG d   1      -2.693  91.738 119.487  0.00  0.00     0.028 C 
ATOM     10  C   LIG d   1      -1.634  90.678 119.833  0.00  0.00     0.006 C 
ENDBRANCH   8   9
BRANCH   8  11
ATOM     11  C   LIG d   1      -1.298  92.756 117.759  0.00  0.00     0.028 C 
ATOM     12  C   LIG d   1      -1.384  94.222 117.308  0.00  0.00     0.006 C 
ENDBRANCH   8  11
ENDBRANCH   7   8
ENDBRANCH   1   7
BRANCH   6  13
ATOM     13  N   LIG d   1      -5.916  94.397 119.397  0.00  0.00    -0.311 N 
ATOM     14  C   LIG d   1      -6.041  95.705 119.617  0.00  0.00     0.210 C 
ATOM     15  C   LIG d   1      -5.820  96.141 121.069  0.00  0.00     0.109 C 
ATOM     16  O   LIG d   1      -6.344  96.542 118.753  0.00  0.00    -0.276 OA
ATOM     17  H   LIG d   1      -5.700  93.787 120.161  0.00  0.00     0.149 HD
ENDBRANCH   6  13
BRANCH   5  18
ATOM     18  N   LIG d   1      -8.483  94.438 117.742  0.00  0.00     0.381 N 
ATOM     19  H   LIG d   1      -9.276  94.183 117.188  0.00  0.00    -0.090 HD
ATOM     20  H   LIG d   1      -8.040  95.230 117.313  0.00  0.00    -0.090 HD
ATOM     21  H   LIG d   1      -8.776  94.671 118.666  0.00  0.00    -0.090 HD
ENDBRANCH   5  18
BRANCH   3  22
ATOM     22  C   LIG d   1      -6.912  90.520 115.479  0.00  0.00     0.382 C 
ATOM     23  O   LIG d   1      -8.099  90.133 115.359  0.00  0.00    -0.241 OA
ATOM     24  O   LIG d   1      -6.002  89.898 114.899  0.00  0.00    -0.241 OA
ENDBRANCH   3  22
TORSDOF 7
ENDMDL
MODEL 3
REMARK VINA RESULT:      -5.4      2.053      4.335
REMARK  7 active torsions:
REMARK  status: ('A' for Active; 'I' for Inactive)
REMARK    1  A    between atoms: C_2  and  C_3 
REMARK    2  A    between atoms: C_3  and  O_6 
REMARK    3  A    between atoms: C_3  and  C_4 
REMARK    4  A    between atoms: C_7  and  O_6 
REMARK    5  A    between atoms: C_9  and  C_10 
REMARK    6  A    between atoms: N_15  and  C_14 
REMARK    7  A    between atoms: N_20  and  C_19 
REMARK       I    between atoms: C_22  and  N_20 
ROOT
ATOM      1  C   LIG d   1      -5.134  92.467 118.015  0.00  0.00     0.161 C 
ATOM      2  C   LIG d   1      -5.461  91.533 117.018  0.00  0.00     0.016 C 
ATOM      3  C   LIG d   1      -6.678  91.556 116.299  0.00  0.00     0.038 C 
ATOM      4  C   LIG d   1      -7.593  92.612 116.425  0.00  0.00     0.028 C 
ATOM      5  C   LIG d   1      -7.536  93.305 117.782  0.00  0.00    -0.047 C 
ATOM      6  C   LIG d   1      -6.071  93.691 118.088  0.00  0.00     0.091 C 
ENDROOT
BRANCH   1   7
ATOM      7  O   LIG d   1      -3.766  92.893 117.857  0.00  0.00    -0.368 OA
BRANCH   7   8
ATOM      8  C   LIG d   1      -2.793  92.243 118.712  0.00  0.00     0.119 C 
BRANCH   8   9
ATOM      9  C   LIG d   1      -1.742  93.300 119.102  0.00  0.00     0.028 C 
ATOM     10  C   LIG d   1      -2.324  94.723 119.136  0.00  0.00     0.006 C 
ENDBRANCH   8   9
BRANCH   8  11
ATOM     11  C   LIG d   1      -2.018  91.162 117.953  0.00  0.00     0.028 C 
ATOM     12  C   LIG d   1      -2.483  89.739 118.304  0.00  0.00     0.006 C 
ENDBRANCH   8  11
ENDBRANCH   7   8
ENDBRANCH   1   7
BRANCH   6  13
ATOM     13  N   LIG d   1      -5.914  94.298 119.435  0.00  0.00    -0.311 N 
ATOM     14  C   LIG d   1      -5.987  95.609 119.661  0.00  0.00     0.210 C 
ATOM     15  C   LIG d   1      -5.777  96.026 121.120  0.00  0.00     0.109 C 
ATOM     16  O   LIG d   1      -6.237  96.463 118.798  0.00  0.00    -0.276 OA
ATOM     17  H   LIG d   1      -5.739  93.675 120.199  0.00  0.00     0.149 HD
ENDBRANCH   6  13
BRANCH   5  18
ATOM     18  N   LIG d   1      -8.441  94.468 117.727  0.00  0.00     0.381 N 
ATOM     19  H   LIG d   1      -9.060  94.379 116.946  0.00  0.00    -0.090 HD
ATOM     20  H   LIG d   1      -7.893  95.301 117.601  0.00  0.00    -0.090 HD
ATOM     21  H   LIG d   1      -8.967  94.532 118.571  0.00  0.00    -0.090 HD
ENDBRANCH   5  18
BRANCH   3  22
ATOM     22  C   LIG d   1      -7.008  90.493 115.472  0.00  0.00     0.382 C 
ATOM     23  O   LIG d   1      -8.190  90.075 115.431  0.00  0.00    -0.241 OA
ATOM     24  O   LIG d   1      -6.130  89.920 114.800  0.00  0.00    -0.241 OA
ENDBRANCH   3  22
TORSDOF 7
ENDMDL
MODEL 4
REMARK VINA RESULT:      -5.2      1.091      1.895
REMARK  7 active torsions:
REMARK  status: ('A' for Active; 'I' for Inactive)
REMARK    1  A    between atoms: C_2  and  C_3 
REMARK    2  A    between atoms: C_3  and  O_6 
REMARK    3  A    between atoms: C_3  and  C_4 
REMARK    4  A    between atoms: C_7  and  O_6 
REMARK    5  A    between atoms: C_9  and  C_10 
REMARK    6  A    between atoms: N_15  and  C_14 
REMARK    7  A    between atoms: N_20  and  C_19 
REMARK       I    between atoms: C_22  and  N_20 
ROOT
ATOM      1  C   LIG d   1      -6.262  93.392 118.151  0.00  0.00     0.161 C 
ATOM      2  C   LIG d   1      -6.905  92.710 117.105  0.00  0.00     0.016 C 
ATOM      3  C   LIG d   1      -6.291  91.679 116.356  0.00  0.00     0.038 C 
ATOM      4  C   LIG d   1      -5.038  91.155 116.704  0.00  0.00     0.028 C 
ATOM      5  C   LIG d   1      -4.146  92.153 117.435  0.00  0.00    -0.047 C 
ATOM      6  C   LIG d   1      -4.935  92.759 118.618  0.00  0.00     0.091 C 
ENDROOT
BRANCH   1   7
ATOM      7  O   LIG d   1      -7.165  93.541 119.265  0.00  0.00    -0.368 OA
BRANCH   7   8
ATOM      8  C   LIG d   1      -7.615  94.889 119.545  0.00  0.00     0.119 C 
BRANCH   8   9
ATOM      9  C   LIG d   1      -9.130  94.940 119.264  0.00  0.00     0.028 C 
ATOM     10  C   LIG d   1      -9.929  94.002 120.184  0.00  0.00     0.006 C 
ENDBRANCH   8   9
BRANCH   8  11
ATOM     11  C   LIG d   1      -6.989  95.898 118.578  0.00  0.00     0.028 C 
ATOM     12  C   LIG d   1      -6.092  96.925 119.286  0.00  0.00     0.006 C 
ENDBRANCH   8  11
ENDBRANCH   7   8
ENDBRANCH   1   7
BRANCH   6  13
ATOM     13  N   LIG d   1      -4.164  93.808 119.336  0.00  0.00    -0.311 N 
ATOM     14  C   LIG d   1      -4.058  93.860 120.662  0.00  0.00     0.210 C 
ATOM     15  C   LIG d   1      -3.233  95.035 121.199  0.00  0.00     0.109 C 
ATOM     16  O   LIG d   1      -4.540  93.027 121.444  0.00  0.00    -0.276 OA
ATOM     17  H   LIG d   1      -3.714  94.506 118.777  0.00  0.00     0.149 HD
ENDBRANCH   6  13
BRANCH   5  18
ATOM     18  N   LIG d   1      -2.928  91.436 117.859  0.00  0.00     0.381 N 
ATOM     19  H   LIG d   1      -2.859  91.447 118.857  0.00  0.00    -0.090 HD
ATOM     20  H   LIG d   1      -2.125  91.908 117.482  0.00  0.00    -0.090 HD
ATOM     21  H   LIG d   1      -2.955  90.496 117.530  0.00  0.00    -0.090 HD
ENDBRANCH   5  18
BRANCH   3  22
ATOM     22  C   LIG d   1      -6.918  91.190 115.220  0.00  0.00     0.382 C 
ATOM     23  O   LIG d   1      -6.639  90.042 114.796  0.00  0.00    -0.241 OA
ATOM     24  O   LIG d   1      -7.724  91.898 114.588  0.00  0.00    -0.241 OA
ENDBRANCH   3  22
TORSDOF 7
ENDMDL
MODEL 5
REMARK VINA RESULT:      -5.1      2.370      4.989
REMARK  7 active torsions:
REMARK  status: ('A' for Active; 'I' for Inactive)
REMARK    1  A    between atoms: C_2  and  C_3 
REMARK    2  A    between atoms: C_3  and  O_6 
REMARK    3  A    between atoms: C_3  and  C_4 
REMARK    4  A    between atoms: C_7  and  O_6 
REMARK    5  A    between atoms: C_9  and  C_10 
REMARK    6  A    between atoms: N_15  and  C_14 
REMARK    7  A    between atoms: N_20  and  C_19 
REMARK       I    between atoms: C_22  and  N_20 
ROOT
ATOM      1  C   LIG d   1      -4.170  91.847 117.847  0.00  0.00     0.161 C 
ATOM      2  C   LIG d   1      -4.910  91.084 116.928  0.00  0.00     0.016 C 
ATOM      3  C   LIG d   1      -6.174  91.476 116.432  0.00  0.00     0.038 C 
ATOM      4  C   LIG d   1      -6.721  92.738 116.707  0.00  0.00     0.028 C 
ATOM      5  C   LIG d   1      -6.243  93.330 118.029  0.00  0.00    -0.047 C 
ATOM      6  C   LIG d   1      -4.699  93.279 118.073  0.00  0.00     0.091 C 
ENDROOT
BRANCH   1   7
ATOM      7  O   LIG d   1      -2.785  91.882 117.450  0.00  0.00    -0.368 OA
BRANCH   7   8
ATOM      8  C   LIG d   1      -1.944  90.827 117.977  0.00  0.00     0.119 C 
BRANCH   8   9
ATOM      9  C   LIG d   1      -2.306  90.646 119.464  0.00  0.00     0.028 C 
ATOM     10  C   LIG d   1      -1.365  91.427 120.397  0.00  0.00     0.006 C 
ENDBRANCH   8   9
BRANCH   8  11
ATOM     11  C   LIG d   1      -0.467  91.233 117.967  0.00  0.00     0.028 C 
ATOM     12  C   LIG d   1       0.409  90.271 117.148  0.00  0.00     0.006 C 
ENDBRANCH   8  11
ENDBRANCH   7   8
ENDBRANCH   1   7
BRANCH   6  13
ATOM     13  N   LIG d   1      -4.153  93.762 119.368  0.00  0.00    -0.311 N 
ATOM     14  C   LIG d   1      -3.120  94.598 119.462  0.00  0.00     0.210 C 
ATOM     15  C   LIG d   1      -2.704  94.953 120.893  0.00  0.00     0.109 C 
ATOM     16  O   LIG d   1      -2.530  95.104 118.496  0.00  0.00    -0.276 OA
ATOM     17  H   LIG d   1      -4.592  93.425 120.202  0.00  0.00     0.149 HD
ENDBRANCH   6  13
BRANCH   5  18
ATOM     18  N   LIG d   1      -6.780  94.700 118.123  0.00  0.00     0.381 N 
ATOM     19  H   LIG d   1      -6.100  95.354 117.791  0.00  0.00    -0.090 HD
ATOM     20  H   LIG d   1      -6.972  94.908 119.087  0.00  0.00    -0.090 HD
ATOM     21  H   LIG d   1      -7.616  94.777 117.586  0.00  0.00    -0.090 HD
ENDBRANCH   5  18
BRANCH   3  22
ATOM     22  C   LIG d   1      -6.925  90.582 115.682  0.00  0.00     0.382 C 
ATOM     23  O   LIG d   1      -6.392  89.959 114.732  0.00  0.00    -0.241 OA
ATOM     24  O   LIG d   1      -8.138  90.425 115.916  0.00  0.00    -0.241 OA
ENDBRANCH   3  22
TORSDOF 7
ENDMDL
MODEL 6
REMARK VINA RESULT:      -4.8      2.493      6.300
REMARK  7 active torsions:
REMARK  status: ('A' for Active; 'I' for Inactive)
REMARK    1  A    between atoms: C_2  and  C_3 
REMARK    2  A    between atoms: C_3  and  O_6 
REMARK    3  A    between atoms: C_3  and  C_4 
REMARK    4  A    between atoms: C_7  and  O_6 
REMARK    5  A    between atoms: C_9  and  C_10 
REMARK    6  A    between atoms: N_15  and  C_14 
REMARK    7  A    between atoms: N_20  and  C_19 
REMARK       I    between atoms: C_22  and  N_20 
ROOT
ATOM      1  C   LIG d   1      -4.858  92.750 118.182  0.00  0.00     0.161 C 
ATOM      2  C   LIG d   1      -4.623  93.597 119.278  0.00  0.00     0.016 C 
ATOM      3  C   LIG d   1      -5.573  94.527 119.760  0.00  0.00     0.038 C 
ATOM      4  C   LIG d   1      -6.886  94.568 119.268  0.00  0.00     0.028 C 
ATOM      5  C   LIG d   1      -7.009  94.083 117.828  0.00  0.00    -0.047 C 
ATOM      6  C   LIG d   1      -6.324  92.703 117.704  0.00  0.00     0.091 C 
ENDROOT
BRANCH   1   7
ATOM      7  O   LIG d   1      -4.385  91.422 118.481  0.00  0.00    -0.368 OA
BRANCH   7   8
ATOM      8  C   LIG d   1      -2.993  91.313 118.868  0.00  0.00     0.119 C 
BRANCH   8   9
ATOM      9  C   LIG d   1      -2.142  91.502 117.597  0.00  0.00     0.028 C 
ATOM     10  C   LIG d   1      -1.073  92.595 117.763  0.00  0.00     0.006 C 
ENDBRANCH   8   9
BRANCH   8  11
ATOM     11  C   LIG d   1      -2.663  89.905 119.371  0.00  0.00     0.028 C 
ATOM     12  C   LIG d   1      -2.271  88.944 118.237  0.00  0.00     0.006 C 
ENDBRANCH   8  11
ENDBRANCH   7   8
ENDBRANCH   1   7
BRANCH   6  13
ATOM     13  N   LIG d   1      -6.325  92.193 116.308  0.00  0.00    -0.311 N 
ATOM     14  C   LIG d   1      -7.010  91.119 115.920  0.00  0.00     0.210 C 
ATOM     15  C   LIG d   1      -6.857  90.753 114.440  0.00  0.00     0.109 C 
ATOM     16  O   LIG d   1      -7.755  90.452 116.654  0.00  0.00    -0.276 OA
ATOM     17  H   LIG d   1      -5.772  92.692 115.639  0.00  0.00     0.149 HD
ENDBRANCH   6  13
BRANCH   5  18
ATOM     18  N   LIG d   1      -8.445  94.048 117.491  0.00  0.00     0.381 N 
ATOM     19  H   LIG d   1      -8.976  94.469 118.227  0.00  0.00    -0.090 HD
ATOM     20  H   LIG d   1      -8.735  93.090 117.402  0.00  0.00    -0.090 HD
ATOM     21  H   LIG d   1      -8.606  94.532 116.635  0.00  0.00    -0.090 HD
ENDBRANCH   5  18
BRANCH   3  22
ATOM     22  C   LIG d   1      -5.198  95.458 120.717  0.00  0.00     0.382 C 
ATOM     23  O   LIG d   1      -6.045  96.264 121.173  0.00  0.00    -0.241 OA
ATOM     24  O   LIG d   1      -4.015  95.530 121.099  0.00  0.00    -0.241 OA
ENDBRANCH   3  22
TORSDOF 7
ENDMDL
MODEL 7
REMARK VINA RESULT:      -4.7      1.887      2.825
REMARK  7 active torsions:
REMARK  status: ('A' for Active; 'I' for Inactive)
REMARK    1  A    between atoms: C_2  and  C_3 
REMARK    2  A    between atoms: C_3  and  O_6 
REMARK    3  A    between atoms: C_3  and  C_4 
REMARK    4  A    between atoms: C_7  and  O_6 
REMARK    5  A    between atoms: C_9  and  C_10 
REMARK    6  A    between atoms: N_15  and  C_14 
REMARK    7  A    between atoms: N_20  and  C_19 
REMARK       I    between atoms: C_22  and  N_20 
ROOT
ATOM      1  C   LIG d   1      -5.034  92.985 119.077  0.00  0.00     0.161 C 
ATOM      2  C   LIG d   1      -6.088  92.510 118.279  0.00  0.00     0.016 C 
ATOM      3  C   LIG d   1      -5.908  91.597 117.214  0.00  0.00     0.038 C 
ATOM      4  C   LIG d   1      -4.673  90.977 116.971  0.00  0.00     0.028 C 
ATOM      5  C   LIG d   1      -3.478  91.806 117.428  0.00  0.00    -0.047 C 
ATOM      6  C   LIG d   1      -3.698  92.235 118.897  0.00  0.00     0.091 C 
ENDROOT
BRANCH   1   7
ATOM      7  O   LIG d   1      -5.430  92.979 120.463  0.00  0.00    -0.368 OA
BRANCH   7   8
ATOM      8  C   LIG d   1      -5.694  94.275 121.056  0.00  0.00     0.119 C 
BRANCH   8   9
ATOM      9  C   LIG d   1      -7.218  94.392 121.252  0.00  0.00     0.028 C 
ATOM     10  C   LIG d   1      -7.859  93.059 121.673  0.00  0.00     0.006 C 
ENDBRANCH   8   9
BRANCH   8  11
ATOM     11  C   LIG d   1      -5.320  95.412 120.100  0.00  0.00     0.028 C 
ATOM     12  C   LIG d   1      -4.258  96.356 120.685  0.00  0.00     0.006 C 
ENDBRANCH   8  11
ENDBRANCH   7   8
ENDBRANCH   1   7
BRANCH   6  13
ATOM     13  N   LIG d   1      -2.614  93.121 119.397  0.00  0.00    -0.311 N 
ATOM     14  C   LIG d   1      -1.550  92.674 120.063  0.00  0.00     0.210 C 
ATOM     15  C   LIG d   1      -0.562  93.757 120.506  0.00  0.00     0.109 C 
ATOM     16  O   LIG d   1      -1.315  91.479 120.300  0.00  0.00    -0.276 OA
ATOM     17  H   LIG d   1      -2.709  94.102 119.221  0.00  0.00     0.149 HD
ENDBRANCH   6  13
BRANCH   5  18
ATOM     18  N   LIG d   1      -2.267  90.984 117.241  0.00  0.00     0.381 N 
ATOM     19  H   LIG d   1      -1.613  91.174 117.973  0.00  0.00    -0.090 HD
ATOM     20  H   LIG d   1      -1.841  91.229 116.365  0.00  0.00    -0.090 HD
ATOM     21  H   LIG d   1      -2.508  90.017 117.243  0.00  0.00    -0.090 HD
ENDBRANCH   5  18
BRANCH   3  22
ATOM     22  C   LIG d   1      -6.962  91.326 116.355  0.00  0.00     0.382 C 
ATOM     23  O   LIG d   1      -7.297  90.139 116.129  0.00  0.00    -0.241 OA
ATOM     24  O   LIG d   1      -7.553  92.253 115.769  0.00  0.00    -0.241 OA
ENDBRANCH   3  22
TORSDOF 7
ENDMDL
MODEL 8
REMARK VINA RESULT:      -4.6      2.479      4.568
REMARK  7 active torsions:
REMARK  status: ('A' for Active; 'I' for Inactive)
REMARK    1  A    between atoms: C_2  and  C_3 
REMARK    2  A    between atoms: C_3  and  O_6 
REMARK    3  A    between atoms: C_3  and  C_4 
REMARK    4  A    between atoms: C_7  and  O_6 
REMARK    5  A    between atoms: C_9  and  C_10 
REMARK    6  A    between atoms: N_15  and  C_14 
REMARK    7  A    between atoms: N_20  and  C_19 
REMARK       I    between atoms: C_22  and  N_20 
ROOT
ATOM      1  C   LIG d   1      -5.373  94.101 119.514  0.00  0.00     0.161 C 
ATOM      2  C   LIG d   1      -4.140  93.685 118.984  0.00  0.00     0.016 C 
ATOM      3  C   LIG d   1      -4.020  92.724 117.954  0.00  0.00     0.038 C 
ATOM      4  C   LIG d   1      -5.140  92.222 117.275  0.00  0.00     0.028 C 
ATOM      5  C   LIG d   1      -6.413  92.234 118.114  0.00  0.00    -0.047 C 
ATOM      6  C   LIG d   1      -6.608  93.647 118.709  0.00  0.00     0.091 C 
ENDROOT
BRANCH   1   7
ATOM      7  O   LIG d   1      -5.377  95.534 119.673  0.00  0.00    -0.368 OA
BRANCH   7   8
ATOM      8  C   LIG d   1      -5.256  96.024 121.030  0.00  0.00     0.119 C 
BRANCH   8   9
ATOM      9  C   LIG d   1      -6.630  96.586 121.444  0.00  0.00     0.028 C 
ATOM     10  C   LIG d   1      -7.342  97.307 120.287  0.00  0.00     0.006 C 
ENDBRANCH   8   9
BRANCH   8  11
ATOM     11  C   LIG d   1      -4.292  97.212 121.110  0.00  0.00     0.028 C 
ATOM     12  C   LIG d   1      -3.347  97.294 119.900  0.00  0.00     0.006 C 
ENDBRANCH   8  11
ENDBRANCH   7   8
ENDBRANCH   1   7
BRANCH   6  13
ATOM     13  N   LIG d   1      -7.786  93.724 119.612  0.00  0.00    -0.311 N 
ATOM     14  C   LIG d   1      -8.983  94.157 119.220  0.00  0.00     0.210 C 
ATOM     15  C   LIG d   1     -10.055  94.175 120.315  0.00  0.00     0.109 C 
ATOM     16  O   LIG d   1      -9.268  94.497 118.062  0.00  0.00    -0.276 OA
ATOM     17  H   LIG d   1      -7.652  93.438 120.562  0.00  0.00     0.149 HD
ENDBRANCH   6  13
BRANCH   5  18
ATOM     18  N   LIG d   1      -7.526  91.815 117.241  0.00  0.00     0.381 N 
ATOM     19  H   LIG d   1      -8.399  92.037 117.675  0.00  0.00    -0.090 HD
ATOM     20  H   LIG d   1      -7.482  90.820 117.112  0.00  0.00    -0.090 HD
ATOM     21  H   LIG d   1      -7.459  92.275 116.359  0.00  0.00    -0.090 HD
ENDBRANCH   5  18
BRANCH   3  22
ATOM     22  C   LIG d   1      -2.769  92.225 117.622  0.00  0.00     0.382 C 
ATOM     23  O   LIG d   1      -2.610  90.992 117.458  0.00  0.00    -0.241 OA
ATOM     24  O   LIG d   1      -1.790  92.989 117.527  0.00  0.00    -0.241 OA
ENDBRANCH   3  22
TORSDOF 7
ENDMDL
MODEL 9
REMARK VINA RESULT:      -4.5      4.826      8.085
REMARK  7 active torsions:
REMARK  status: ('A' for Active; 'I' for Inactive)
REMARK    1  A    between atoms: C_2  and  C_3 
REMARK    2  A    between atoms: C_3  and  O_6 
REMARK    3  A    between atoms: C_3  and  C_4 
REMARK    4  A    between atoms: C_7  and  O_6 
REMARK    5  A    between atoms: C_9  and  C_10 
REMARK    6  A    between atoms: N_15  and  C_14 
REMARK    7  A    between atoms: N_20  and  C_19 
REMARK       I    between atoms: C_22  and  N_20 
ROOT
ATOM      1  C   LIG d   1      -0.310  91.569 117.802  0.00  0.00     0.161 C 
ATOM      2  C   LIG d   1       1.072  91.758 117.962  0.00  0.00     0.016 C 
ATOM      3  C   LIG d   1       1.671  93.029 118.120  0.00  0.00     0.038 C 
ATOM      4  C   LIG d   1       0.906  94.194 118.279  0.00  0.00     0.028 C 
ATOM      5  C   LIG d   1      -0.466  94.113 117.619  0.00  0.00    -0.047 C 
ATOM      6  C   LIG d   1      -1.171  92.818 118.085  0.00  0.00     0.091 C 
ENDROOT
BRANCH   1   7
ATOM      7  O   LIG d   1      -0.750  90.463 118.615  0.00  0.00    -0.368 OA
BRANCH   7   8
ATOM      8  C   LIG d   1      -1.195  89.284 117.900  0.00  0.00     0.119 C 
BRANCH   8   9
ATOM      9  C   LIG d   1      -2.594  88.919 118.434  0.00  0.00     0.028 C 
ATOM     10  C   LIG d   1      -2.532  88.150 119.765  0.00  0.00     0.006 C 
ENDBRANCH   8   9
BRANCH   8  11
ATOM     11  C   LIG d   1      -0.311  88.074 118.217  0.00  0.00     0.028 C 
ATOM     12  C   LIG d   1       0.795  87.854 117.174  0.00  0.00     0.006 C 
ENDBRANCH   8  11
ENDBRANCH   7   8
ENDBRANCH   1   7
BRANCH   6  13
ATOM     13  N   LIG d   1      -2.486  92.618 117.421  0.00  0.00    -0.311 N 
ATOM     14  C   LIG d   1      -3.620  92.411 118.088  0.00  0.00     0.210 C 
ATOM     15  C   LIG d   1      -4.859  92.209 117.210  0.00  0.00     0.109 C 
ATOM     16  O   LIG d   1      -3.723  92.407 119.324  0.00  0.00    -0.276 OA
ATOM     17  H   LIG d   1      -2.499  92.638 116.420  0.00  0.00     0.149 HD
ENDBRANCH   6  13
BRANCH   5  18
ATOM     18  N   LIG d   1      -1.207  95.336 117.980  0.00  0.00     0.381 N 
ATOM     19  H   LIG d   1      -1.070  96.035 117.278  0.00  0.00    -0.090 HD
ATOM     20  H   LIG d   1      -0.848  95.689 118.850  0.00  0.00    -0.090 HD
ATOM     21  H   LIG d   1      -2.178  95.132 118.071  0.00  0.00    -0.090 HD
ENDBRANCH   5  18
BRANCH   3  22
ATOM     22  C   LIG d   1       3.052  93.148 118.078  0.00  0.00     0.382 C 
ATOM     23  O   LIG d   1       3.661  93.008 116.991  0.00  0.00    -0.241 OA
ATOM     24  O   LIG d   1       3.700  93.349 119.123  0.00  0.00    -0.241 OA
ENDBRANCH   3  22
TORSDOF 7
ENDMDL
