MODEL 1
REMARK VINA RESULT:      -5.2      0.000      0.000
REMARK  7 active torsions:
REMARK  status: ('A' for Active; 'I' for Inactive)
REMARK    1  A    between atoms: C_2  and  C_3 
REMARK    2  A    between atoms: C_3  and  O_6 
REMARK    3  A    between atoms: C_3  and  C_4 
REMARK    4  A    between atoms: C_7  and  O_6 
REMARK    5  A    between atoms: C_9  and  C_10 
REMARK    6  A    between atoms: N_15  and  C_14 
REMARK    7  A    between atoms: N_20  and  C_19 
REMARK       I    between atoms: C_22  and  N_20 
ROOT
ATOM      1  C   LIG d   1      -5.028  92.499 117.164  0.00  0.00     0.161 C 
ATOM      2  C   LIG d   1      -6.079  91.625 116.839  0.00  0.00     0.016 C 
ATOM      3  C   LIG d   1      -5.900  90.241 116.617  0.00  0.00     0.038 C 
ATOM      4  C   LIG d   1      -4.672  89.605 116.855  0.00  0.00     0.028 C 
ATOM      5  C   LIG d   1      -3.470  90.529 116.694  0.00  0.00    -0.047 C 
ATOM      6  C   LIG d   1      -3.702  91.805 117.536  0.00  0.00     0.091 C 
ENDROOT
BRANCH   1   7
ATOM      7  O   LIG d   1      -5.441  93.389 118.219  0.00  0.00    -0.368 OA
BRANCH   7   8
ATOM      8  C   LIG d   1      -6.543  92.934 119.043  0.00  0.00     0.119 C 
BRANCH   8   9
ATOM      9  C   LIG d   1      -7.506  94.122 119.226  0.00  0.00     0.028 C 
ATOM     10  C   LIG d   1      -6.995  95.403 118.545  0.00  0.00     0.006 C 
ENDBRANCH   8   9
BRANCH   8  11
ATOM     11  C   LIG d   1      -6.071  92.572 120.455  0.00  0.00     0.028 C 
ATOM     12  C   LIG d   1      -5.673  91.094 120.590  0.00  0.00     0.006 C 
ENDBRANCH   8  11
ENDBRANCH   7   8
ENDBRANCH   1   7
BRANCH   6  13
ATOM     13  N   LIG d   1      -2.611  92.800 117.369  0.00  0.00    -0.311 N 
ATOM     14  C   LIG d   1      -1.983  93.378 118.392  0.00  0.00     0.210 C 
ATOM     15  C   LIG d   1      -0.903  94.390 117.998  0.00  0.00     0.109 C 
ATOM     16  O   LIG d   1      -2.196  93.125 119.587  0.00  0.00    -0.276 OA
ATOM     17  H   LIG d   1      -2.352  93.041 116.432  0.00  0.00     0.149 HD
ENDBRANCH   6  13
BRANCH   5  18
ATOM     18  N   LIG d   1      -2.270  89.776 117.104  0.00  0.00     0.381 N 
ATOM     19  H   LIG d   1      -1.559  90.410 117.407  0.00  0.00    -0.090 HD
ATOM     20  H   LIG d   1      -1.920  89.265 116.312  0.00  0.00    -0.090 HD
ATOM     21  H   LIG d   1      -2.499  89.145 117.840  0.00  0.00    -0.090 HD
ENDBRANCH   5  18
BRANCH   3  22
ATOM     22  C   LIG d   1      -6.947  89.484 116.114  0.00  0.00     0.382 C 
ATOM     23  O   LIG d   1      -7.615  88.750 116.881  0.00  0.00    -0.241 OA
ATOM     24  O   LIG d   1      -7.204  89.492 114.895  0.00  0.00    -0.241 OA
ENDBRANCH   3  22
TORSDOF 7
ENDMDL
MODEL 2
REMARK VINA RESULT:      -5.1      2.228      4.075
REMARK  7 active torsions:
REMARK  status: ('A' for Active; 'I' for Inactive)
REMARK    1  A    between atoms: C_2  and  C_3 
REMARK    2  A    between atoms: C_3  and  O_6 
REMARK    3  A    between atoms: C_3  and  C_4 
REMARK    4  A    between atoms: C_7  and  O_6 
REMARK    5  A    between atoms: C_9  and  C_10 
REMARK    6  A    between atoms: N_15  and  C_14 
REMARK    7  A    between atoms: N_20  and  C_19 
REMARK       I    between atoms: C_22  and  N_20 
ROOT
ATOM      1  C   LIG d   1      -3.913  91.071 117.607  0.00  0.00     0.161 C 
ATOM      2  C   LIG d   1      -4.536  90.379 116.555  0.00  0.00     0.016 C 
ATOM      3  C   LIG d   1      -5.698  90.844 115.898  0.00  0.00     0.038 C 
ATOM      4  C   LIG d   1      -6.233  92.117 116.149  0.00  0.00     0.028 C 
ATOM      5  C   LIG d   1      -5.935  92.632 117.553  0.00  0.00    -0.047 C 
ATOM      6  C   LIG d   1      -4.417  92.514 117.820  0.00  0.00     0.091 C 
ENDROOT
BRANCH   1   7
ATOM      7  O   LIG d   1      -2.484  91.062 117.420  0.00  0.00    -0.368 OA
BRANCH   7   8
ATOM      8  C   LIG d   1      -1.726  90.233 118.335  0.00  0.00     0.119 C 
BRANCH   8   9
ATOM      9  C   LIG d   1      -1.213  89.016 117.540  0.00  0.00     0.028 C 
ATOM     10  C   LIG d   1      -2.047  87.751 117.801  0.00  0.00     0.006 C 
ENDBRANCH   8   9
BRANCH   8  11
ATOM     11  C   LIG d   1      -2.622  89.652 119.432  0.00  0.00     0.028 C 
ATOM     12  C   LIG d   1      -2.253  90.161 120.835  0.00  0.00     0.006 C 
ENDBRANCH   8  11
ENDBRANCH   7   8
ENDBRANCH   1   7
BRANCH   6  13
ATOM     13  N   LIG d   1      -4.052  92.919 119.203  0.00  0.00    -0.311 N 
ATOM     14  C   LIG d   1      -3.000  93.684 119.489  0.00  0.00     0.210 C 
ATOM     15  C   LIG d   1      -2.792  93.966 120.980  0.00  0.00     0.109 C 
ATOM     16  O   LIG d   1      -2.239  94.183 118.646  0.00  0.00    -0.276 OA
ATOM     17  H   LIG d   1      -4.634  92.584 119.945  0.00  0.00     0.149 HD
ENDBRANCH   6  13
BRANCH   5  18
ATOM     18  N   LIG d   1      -6.430  94.020 117.632  0.00  0.00     0.381 N 
ATOM     19  H   LIG d   1      -6.552  94.282 118.590  0.00  0.00    -0.090 HD
ATOM     20  H   LIG d   1      -7.323  94.074 117.174  0.00  0.00    -0.090 HD
ATOM     21  H   LIG d   1      -5.784  94.638 117.191  0.00  0.00    -0.090 HD
ENDBRANCH   5  18
BRANCH   3  22
ATOM     22  C   LIG d   1      -6.361  90.016 115.005  0.00  0.00     0.382 C 
ATOM     23  O   LIG d   1      -5.741  89.088 114.432  0.00  0.00    -0.241 OA
ATOM     24  O   LIG d   1      -7.560  90.212 114.732  0.00  0.00    -0.241 OA
ENDBRANCH   3  22
TORSDOF 7
ENDMDL
MODEL 3
REMARK VINA RESULT:      -5.0      1.422      2.226
REMARK  7 active torsions:
REMARK  status: ('A' for Active; 'I' for Inactive)
REMARK    1  A    between atoms: C_2  and  C_3 
REMARK    2  A    between atoms: C_3  and  O_6 
REMARK    3  A    between atoms: C_3  and  C_4 
REMARK    4  A    between atoms: C_7  and  O_6 
REMARK    5  A    between atoms: C_9  and  C_10 
REMARK    6  A    between atoms: N_15  and  C_14 
REMARK    7  A    between atoms: N_20  and  C_19 
REMARK       I    between atoms: C_22  and  N_20 
ROOT
ATOM      1  C   LIG d   1      -5.570  92.618 118.385  0.00  0.00     0.161 C 
ATOM      2  C   LIG d   1      -6.107  91.480 117.759  0.00  0.00     0.016 C 
ATOM      3  C   LIG d   1      -5.325  90.537 117.055  0.00  0.00     0.038 C 
ATOM      4  C   LIG d   1      -3.923  90.588 117.057  0.00  0.00     0.028 C 
ATOM      5  C   LIG d   1      -3.368  91.995 117.249  0.00  0.00    -0.047 C 
ATOM      6  C   LIG d   1      -4.031  92.630 118.492  0.00  0.00     0.091 C 
ENDROOT
BRANCH   1   7
ATOM      7  O   LIG d   1      -6.164  92.786 119.687  0.00  0.00    -0.368 OA
BRANCH   7   8
ATOM      8  C   LIG d   1      -6.948  93.989 119.880  0.00  0.00     0.119 C 
BRANCH   8   9
ATOM      9  C   LIG d   1      -8.344  93.559 120.369  0.00  0.00     0.028 C 
ATOM     10  C   LIG d   1      -8.333  92.170 121.030  0.00  0.00     0.006 C 
ENDBRANCH   8   9
BRANCH   8  11
ATOM     11  C   LIG d   1      -7.189  94.716 118.554  0.00  0.00     0.028 C 
ATOM     12  C   LIG d   1      -6.711  96.176 118.579  0.00  0.00     0.006 C 
ENDBRANCH   8  11
ENDBRANCH   7   8
ENDBRANCH   1   7
BRANCH   6  13
ATOM     13  N   LIG d   1      -3.606  94.039 118.703  0.00  0.00    -0.311 N 
ATOM     14  C   LIG d   1      -2.604  94.390 119.507  0.00  0.00     0.210 C 
ATOM     15  C   LIG d   1      -2.344  95.897 119.597  0.00  0.00     0.109 C 
ATOM     16  O   LIG d   1      -1.885  93.594 120.130  0.00  0.00    -0.276 OA
ATOM     17  H   LIG d   1      -4.116  94.747 118.212  0.00  0.00     0.149 HD
ENDBRANCH   6  13
BRANCH   5  18
ATOM     18  N   LIG d   1      -1.902  91.883 117.369  0.00  0.00     0.381 N 
ATOM     19  H   LIG d   1      -1.669  91.326 118.166  0.00  0.00    -0.090 HD
ATOM     20  H   LIG d   1      -1.516  92.801 117.502  0.00  0.00    -0.090 HD
ATOM     21  H   LIG d   1      -1.522  91.472 116.544  0.00  0.00    -0.090 HD
ENDBRANCH   5  18
BRANCH   3  22
ATOM     22  C   LIG d   1      -5.947  89.551 116.305  0.00  0.00     0.382 C 
ATOM     23  O   LIG d   1      -6.985  88.995 116.738  0.00  0.00    -0.241 OA
ATOM     24  O   LIG d   1      -5.459  89.179 115.221  0.00  0.00    -0.241 OA
ENDBRANCH   3  22
TORSDOF 7
ENDMDL
MODEL 4
REMARK VINA RESULT:      -4.9      2.376      5.952
REMARK  7 active torsions:
REMARK  status: ('A' for Active; 'I' for Inactive)
REMARK    1  A    between atoms: C_2  and  C_3 
REMARK    2  A    between atoms: C_3  and  O_6 
REMARK    3  A    between atoms: C_3  and  C_4 
REMARK    4  A    between atoms: C_7  and  O_6 
REMARK    5  A    between atoms: C_9  and  C_10 
REMARK    6  A    between atoms: N_15  and  C_14 
REMARK    7  A    between atoms: N_20  and  C_19 
REMARK       I    between atoms: C_22  and  N_20 
ROOT
ATOM      1  C   LIG d   1      -3.813  91.826 117.141  0.00  0.00     0.161 C 
ATOM      2  C   LIG d   1      -2.999  92.598 117.987  0.00  0.00     0.016 C 
ATOM      3  C   LIG d   1      -3.509  93.431 119.009  0.00  0.00     0.038 C 
ATOM      4  C   LIG d   1      -4.868  93.432 119.356  0.00  0.00     0.028 C 
ATOM      5  C   LIG d   1      -5.788  93.052 118.201  0.00  0.00    -0.047 C 
ATOM      6  C   LIG d   1      -5.290  91.728 117.577  0.00  0.00     0.091 C 
ENDROOT
BRANCH   1   7
ATOM      7  O   LIG d   1      -3.248  90.508 116.989  0.00  0.00    -0.368 OA
BRANCH   7   8
ATOM      8  C   LIG d   1      -2.362  90.068 118.047  0.00  0.00     0.119 C 
BRANCH   8   9
ATOM      9  C   LIG d   1      -1.257  89.211 117.399  0.00  0.00     0.028 C 
ATOM     10  C   LIG d   1      -1.613  87.715 117.377  0.00  0.00     0.006 C 
ENDBRANCH   8   9
BRANCH   8  11
ATOM     11  C   LIG d   1      -3.081  89.133 119.023  0.00  0.00     0.028 C 
ATOM     12  C   LIG d   1      -3.421  89.813 120.359  0.00  0.00     0.006 C 
ENDBRANCH   8  11
ENDBRANCH   7   8
ENDBRANCH   1   7
BRANCH   6  13
ATOM     13  N   LIG d   1      -6.085  91.329 116.386  0.00  0.00    -0.311 N 
ATOM     14  C   LIG d   1      -6.544  90.094 116.192  0.00  0.00     0.210 C 
ATOM     15  C   LIG d   1      -7.324  89.891 114.889  0.00  0.00     0.109 C 
ATOM     16  O   LIG d   1      -6.408  89.155 116.991  0.00  0.00    -0.276 OA
ATOM     17  H   LIG d   1      -6.269  92.036 115.702  0.00  0.00     0.149 HD
ENDBRANCH   6  13
BRANCH   5  18
ATOM     18  N   LIG d   1      -7.160  92.959 118.735  0.00  0.00     0.381 N 
ATOM     19  H   LIG d   1      -7.129  92.747 119.713  0.00  0.00    -0.090 HD
ATOM     20  H   LIG d   1      -7.642  92.212 118.266  0.00  0.00    -0.090 HD
ATOM     21  H   LIG d   1      -7.642  93.818 118.589  0.00  0.00    -0.090 HD
ENDBRANCH   5  18
BRANCH   3  22
ATOM     22  C   LIG d   1      -2.660  94.305 119.671  0.00  0.00     0.382 C 
ATOM     23  O   LIG d   1      -2.881  95.539 119.638  0.00  0.00    -0.241 OA
ATOM     24  O   LIG d   1      -1.651  93.878 120.263  0.00  0.00    -0.241 OA
ENDBRANCH   3  22
TORSDOF 7
ENDMDL
MODEL 5
REMARK VINA RESULT:      -4.9      1.202      2.055
REMARK  7 active torsions:
REMARK  status: ('A' for Active; 'I' for Inactive)
REMARK    1  A    between atoms: C_2  and  C_3 
REMARK    2  A    between atoms: C_3  and  O_6 
REMARK    3  A    between atoms: C_3  and  C_4 
REMARK    4  A    between atoms: C_7  and  O_6 
REMARK    5  A    between atoms: C_9  and  C_10 
REMARK    6  A    between atoms: N_15  and  C_14 
REMARK    7  A    between atoms: N_20  and  C_19 
REMARK       I    between atoms: C_22  and  N_20 
ROOT
ATOM      1  C   LIG d   1      -5.198  92.590 117.745  0.00  0.00     0.161 C 
ATOM      2  C   LIG d   1      -6.192  91.718 117.271  0.00  0.00     0.016 C 
ATOM      3  C   LIG d   1      -5.913  90.445 116.722  0.00  0.00     0.038 C 
ATOM      4  C   LIG d   1      -4.624  89.892 116.750  0.00  0.00     0.028 C 
ATOM      5  C   LIG d   1      -3.516  90.940 116.758  0.00  0.00    -0.047 C 
ATOM      6  C   LIG d   1      -3.797  91.959 117.885  0.00  0.00     0.091 C 
ENDROOT
BRANCH   1   7
ATOM      7  O   LIG d   1      -5.614  93.170 118.998  0.00  0.00    -0.368 OA
BRANCH   7   8
ATOM      8  C   LIG d   1      -5.584  94.617 119.072  0.00  0.00     0.119 C 
BRANCH   8   9
ATOM      9  C   LIG d   1      -4.882  94.998 120.389  0.00  0.00     0.028 C 
ATOM     10  C   LIG d   1      -3.934  96.198 120.224  0.00  0.00     0.006 C 
ENDBRANCH   8   9
BRANCH   8  11
ATOM     11  C   LIG d   1      -6.996  95.198 119.181  0.00  0.00     0.028 C 
ATOM     12  C   LIG d   1      -7.185  96.467 118.334  0.00  0.00     0.006 C 
ENDBRANCH   8  11
ENDBRANCH   7   8
ENDBRANCH   1   7
BRANCH   6  13
ATOM     13  N   LIG d   1      -2.805  93.066 117.909  0.00  0.00    -0.311 N 
ATOM     14  C   LIG d   1      -1.942  93.256 118.906  0.00  0.00     0.210 C 
ATOM     15  C   LIG d   1      -1.020  94.468 118.740  0.00  0.00     0.109 C 
ATOM     16  O   LIG d   1      -1.831  92.517 119.895  0.00  0.00    -0.276 OA
ATOM     17  H   LIG d   1      -2.805  93.695 117.130  0.00  0.00     0.149 HD
ENDBRANCH   6  13
BRANCH   5  18
ATOM     18  N   LIG d   1      -2.233  90.231 116.926  0.00  0.00     0.381 N 
ATOM     19  H   LIG d   1      -1.519  90.880 117.191  0.00  0.00    -0.090 HD
ATOM     20  H   LIG d   1      -1.973  89.816 116.048  0.00  0.00    -0.090 HD
ATOM     21  H   LIG d   1      -2.323  89.523 117.622  0.00  0.00    -0.090 HD
ENDBRANCH   5  18
BRANCH   3  22
ATOM     22  C   LIG d   1      -6.924  89.728 116.102  0.00  0.00     0.382 C 
ATOM     23  O   LIG d   1      -7.284  90.030 114.939  0.00  0.00    -0.241 OA
ATOM     24  O   LIG d   1      -7.511  88.811 116.707  0.00  0.00    -0.241 OA
ENDBRANCH   3  22
TORSDOF 7
ENDMDL
MODEL 6
REMARK VINA RESULT:      -4.7      2.102      4.709
REMARK  7 active torsions:
REMARK  status: ('A' for Active; 'I' for Inactive)
REMARK    1  A    between atoms: C_2  and  C_3 
REMARK    2  A    between atoms: C_3  and  O_6 
REMARK    3  A    between atoms: C_3  and  C_4 
REMARK    4  A    between atoms: C_7  and  O_6 
REMARK    5  A    between atoms: C_9  and  C_10 
REMARK    6  A    between atoms: N_15  and  C_14 
REMARK    7  A    between atoms: N_20  and  C_19 
REMARK       I    between atoms: C_22  and  N_20 
ROOT
ATOM      1  C   LIG d   1      -6.030  91.069 119.211  0.00  0.00     0.161 C 
ATOM      2  C   LIG d   1      -5.171  91.178 120.317  0.00  0.00     0.016 C 
ATOM      3  C   LIG d   1      -3.764  91.072 120.223  0.00  0.00     0.038 C 
ATOM      4  C   LIG d   1      -3.107  91.000 118.986  0.00  0.00     0.028 C 
ATOM      5  C   LIG d   1      -3.958  90.381 117.883  0.00  0.00    -0.047 C 
ATOM      6  C   LIG d   1      -5.324  91.102 117.839  0.00  0.00     0.091 C 
ENDROOT
BRANCH   1   7
ATOM      7  O   LIG d   1      -7.044  92.091 119.278  0.00  0.00    -0.368 OA
BRANCH   7   8
ATOM      8  C   LIG d   1      -6.575  93.439 119.528  0.00  0.00     0.119 C 
BRANCH   8   9
ATOM      9  C   LIG d   1      -7.439  94.027 120.660  0.00  0.00     0.028 C 
ATOM     10  C   LIG d   1      -8.747  93.244 120.868  0.00  0.00     0.006 C 
ENDBRANCH   8   9
BRANCH   8  11
ATOM     11  C   LIG d   1      -6.818  94.347 118.319  0.00  0.00     0.028 C 
ATOM     12  C   LIG d   1      -6.842  95.838 118.689  0.00  0.00     0.006 C 
ENDBRANCH   8  11
ENDBRANCH   7   8
ENDBRANCH   1   7
BRANCH   6  13
ATOM     13  N   LIG d   1      -6.250  90.502 116.843  0.00  0.00    -0.311 N 
ATOM     14  C   LIG d   1      -6.405  90.976 115.608  0.00  0.00     0.210 C 
ATOM     15  C   LIG d   1      -7.425  90.222 114.749  0.00  0.00     0.109 C 
ATOM     16  O   LIG d   1      -5.772  91.930 115.131  0.00  0.00    -0.276 OA
ATOM     17  H   LIG d   1      -6.781  89.705 117.135  0.00  0.00     0.149 HD
ENDBRANCH   6  13
BRANCH   5  18
ATOM     18  N   LIG d   1      -3.203  90.495 116.621  0.00  0.00     0.381 N 
ATOM     19  H   LIG d   1      -2.958  89.583 116.289  0.00  0.00    -0.090 HD
ATOM     20  H   LIG d   1      -2.356  91.007 116.793  0.00  0.00    -0.090 HD
ATOM     21  H   LIG d   1      -3.752  90.968 115.937  0.00  0.00    -0.090 HD
ENDBRANCH   5  18
BRANCH   3  22
ATOM     22  C   LIG d   1      -3.002  90.997 121.379  0.00  0.00     0.382 C 
ATOM     23  O   LIG d   1      -2.588  92.047 121.927  0.00  0.00    -0.241 OA
ATOM     24  O   LIG d   1      -2.685  89.890 121.856  0.00  0.00    -0.241 OA
ENDBRANCH   3  22
TORSDOF 7
ENDMDL
MODEL 7
REMARK VINA RESULT:      -4.6      3.147      5.160
REMARK  7 active torsions:
REMARK  status: ('A' for Active; 'I' for Inactive)
REMARK    1  A    between atoms: C_2  and  C_3 
REMARK    2  A    between atoms: C_3  and  O_6 
REMARK    3  A    between atoms: C_3  and  C_4 
REMARK    4  A    between atoms: C_7  and  O_6 
REMARK    5  A    between atoms: C_9  and  C_10 
REMARK    6  A    between atoms: N_15  and  C_14 
REMARK    7  A    between atoms: N_20  and  C_19 
REMARK       I    between atoms: C_22  and  N_20 
ROOT
ATOM      1  C   LIG d   1      -2.281  90.112 119.168  0.00  0.00     0.161 C 
ATOM      2  C   LIG d   1      -3.543  89.746 118.671  0.00  0.00     0.016 C 
ATOM      3  C   LIG d   1      -4.292  90.551 117.782  0.00  0.00     0.038 C 
ATOM      4  C   LIG d   1      -3.760  91.714 117.207  0.00  0.00     0.028 C 
ATOM      5  C   LIG d   1      -2.692  92.381 118.067  0.00  0.00    -0.047 C 
ATOM      6  C   LIG d   1      -1.636  91.324 118.465  0.00  0.00     0.091 C 
ENDROOT
BRANCH   1   7
ATOM      7  O   LIG d   1      -1.392  88.978 119.126  0.00  0.00    -0.368 OA
BRANCH   7   8
ATOM      8  C   LIG d   1      -1.933  87.765 118.547  0.00  0.00     0.119 C 
BRANCH   8   9
ATOM      9  C   LIG d   1      -1.638  86.612 119.526  0.00  0.00     0.028 C 
ATOM     10  C   LIG d   1      -0.531  86.966 120.533  0.00  0.00     0.006 C 
ENDBRANCH   8   9
BRANCH   8  11
ATOM     11  C   LIG d   1      -1.205  87.394 117.251  0.00  0.00     0.028 C 
ATOM     12  C   LIG d   1       0.028  88.272 116.988  0.00  0.00     0.006 C 
ENDBRANCH   8  11
ENDBRANCH   7   8
ENDBRANCH   1   7
BRANCH   6  13
ATOM     13  N   LIG d   1      -0.599  91.874 119.377  0.00  0.00    -0.311 N 
ATOM     14  C   LIG d   1       0.535  92.426 118.950  0.00  0.00     0.210 C 
ATOM     15  C   LIG d   1       1.475  92.912 120.057  0.00  0.00     0.109 C 
ATOM     16  O   LIG d   1       0.838  92.588 117.758  0.00  0.00    -0.276 OA
ATOM     17  H   LIG d   1      -0.778  91.812 120.360  0.00  0.00     0.149 HD
ENDBRANCH   6  13
BRANCH   5  18
ATOM     18  N   LIG d   1      -2.126  93.499 117.288  0.00  0.00     0.381 N 
ATOM     19  H   LIG d   1      -2.701  94.311 117.396  0.00  0.00    -0.090 HD
ATOM     20  H   LIG d   1      -2.117  93.246 116.316  0.00  0.00    -0.090 HD
ATOM     21  H   LIG d   1      -1.200  93.695 117.597  0.00  0.00    -0.090 HD
ENDBRANCH   5  18
BRANCH   3  22
ATOM     22  C   LIG d   1      -5.605  90.214 117.491  0.00  0.00     0.382 C 
ATOM     23  O   LIG d   1      -5.853  89.205 116.787  0.00  0.00    -0.241 OA
ATOM     24  O   LIG d   1      -6.544  90.930 117.888  0.00  0.00    -0.241 OA
ENDBRANCH   3  22
TORSDOF 7
ENDMDL
MODEL 8
REMARK VINA RESULT:      -4.5      2.683      5.865
REMARK  7 active torsions:
REMARK  status: ('A' for Active; 'I' for Inactive)
REMARK    1  A    between atoms: C_2  and  C_3 
REMARK    2  A    between atoms: C_3  and  O_6 
REMARK    3  A    between atoms: C_3  and  C_4 
REMARK    4  A    between atoms: C_7  and  O_6 
REMARK    5  A    between atoms: C_9  and  C_10 
REMARK    6  A    between atoms: N_15  and  C_14 
REMARK    7  A    between atoms: N_20  and  C_19 
REMARK       I    between atoms: C_22  and  N_20 
ROOT
ATOM      1  C   LIG d   1      -4.421  92.765 118.149  0.00  0.00     0.161 C 
ATOM      2  C   LIG d   1      -4.096  93.496 119.303  0.00  0.00     0.016 C 
ATOM      3  C   LIG d   1      -5.013  94.338 119.974  0.00  0.00     0.038 C 
ATOM      4  C   LIG d   1      -6.370  94.387 119.621  0.00  0.00     0.028 C 
ATOM      5  C   LIG d   1      -6.626  94.055 118.155  0.00  0.00    -0.047 C 
ATOM      6  C   LIG d   1      -5.926  92.720 117.814  0.00  0.00     0.091 C 
ENDROOT
BRANCH   1   7
ATOM      7  O   LIG d   1      -3.890  91.428 118.252  0.00  0.00    -0.368 OA
BRANCH   7   8
ATOM      8  C   LIG d   1      -2.614  91.300 118.925  0.00  0.00     0.119 C 
BRANCH   8   9
ATOM      9  C   LIG d   1      -1.542  91.062 117.843  0.00  0.00     0.028 C 
ATOM     10  C   LIG d   1      -0.398  92.088 117.915  0.00  0.00     0.006 C 
ENDBRANCH   8   9
BRANCH   8  11
ATOM     11  C   LIG d   1      -2.575  90.053 119.814  0.00  0.00     0.028 C 
ATOM     12  C   LIG d   1      -2.774  88.751 119.023  0.00  0.00     0.006 C 
ENDBRANCH   8  11
ENDBRANCH   7   8
ENDBRANCH   1   7
BRANCH   6  13
ATOM     13  N   LIG d   1      -6.057  92.362 116.377  0.00  0.00    -0.311 N 
ATOM     14  C   LIG d   1      -6.485  91.175 115.953  0.00  0.00     0.210 C 
ATOM     15  C   LIG d   1      -6.525  91.008 114.430  0.00  0.00     0.109 C 
ATOM     16  O   LIG d   1      -6.866  90.255 116.692  0.00  0.00    -0.276 OA
ATOM     17  H   LIG d   1      -5.799  93.061 115.708  0.00  0.00     0.149 HD
ENDBRANCH   6  13
BRANCH   5  18
ATOM     18  N   LIG d   1      -8.088  94.008 117.958  0.00  0.00     0.381 N 
ATOM     19  H   LIG d   1      -8.539  94.596 118.630  0.00  0.00    -0.090 HD
ATOM     20  H   LIG d   1      -8.405  93.066 118.100  0.00  0.00    -0.090 HD
ATOM     21  H   LIG d   1      -8.317  94.308 117.036  0.00  0.00    -0.090 HD
ENDBRANCH   5  18
BRANCH   3  22
ATOM     22  C   LIG d   1      -4.565  95.172 120.987  0.00  0.00     0.382 C 
ATOM     23  O   LIG d   1      -5.391  95.804 121.690  0.00  0.00    -0.241 OA
ATOM     24  O   LIG d   1      -3.345  95.335 121.179  0.00  0.00    -0.241 OA
ENDBRANCH   3  22
TORSDOF 7
ENDMDL
MODEL 9
REMARK VINA RESULT:      -4.5      2.253      4.235
REMARK  7 active torsions:
REMARK  status: ('A' for Active; 'I' for Inactive)
REMARK    1  A    between atoms: C_2  and  C_3 
REMARK    2  A    between atoms: C_3  and  O_6 
REMARK    3  A    between atoms: C_3  and  C_4 
REMARK    4  A    between atoms: C_7  and  O_6 
REMARK    5  A    between atoms: C_9  and  C_10 
REMARK    6  A    between atoms: N_15  and  C_14 
REMARK    7  A    between atoms: N_20  and  C_19 
REMARK       I    between atoms: C_22  and  N_20 
ROOT
ATOM      1  C   LIG d   1      -4.413  91.883 119.206  0.00  0.00     0.161 C 
ATOM      2  C   LIG d   1      -4.643  90.945 118.186  0.00  0.00     0.016 C 
ATOM      3  C   LIG d   1      -5.536  91.167 117.113  0.00  0.00     0.038 C 
ATOM      4  C   LIG d   1      -6.151  92.410 116.904  0.00  0.00     0.028 C 
ATOM      5  C   LIG d   1      -6.340  93.215 118.185  0.00  0.00    -0.047 C 
ATOM      6  C   LIG d   1      -4.990  93.288 118.935  0.00  0.00     0.091 C 
ENDROOT
BRANCH   1   7
ATOM      7  O   LIG d   1      -3.001  91.967 119.484  0.00  0.00    -0.368 OA
BRANCH   7   8
ATOM      8  C   LIG d   1      -2.262  92.964 118.737  0.00  0.00     0.119 C 
BRANCH   8   9
ATOM      9  C   LIG d   1      -1.286  92.218 117.807  0.00  0.00     0.028 C 
ATOM     10  C   LIG d   1       0.111  92.859 117.786  0.00  0.00     0.006 C 
ENDBRANCH   8   9
BRANCH   8  11
ATOM     11  C   LIG d   1      -1.378  93.809 119.659  0.00  0.00     0.028 C 
ATOM     12  C   LIG d   1      -1.594  93.491 121.148  0.00  0.00     0.006 C 
ENDBRANCH   8  11
ENDBRANCH   7   8
ENDBRANCH   1   7
BRANCH   6  13
ATOM     13  N   LIG d   1      -5.105  93.987 120.242  0.00  0.00    -0.311 N 
ATOM     14  C   LIG d   1      -4.805  95.273 120.414  0.00  0.00     0.210 C 
ATOM     15  C   LIG d   1      -4.975  95.791 121.846  0.00  0.00     0.109 C 
ATOM     16  O   LIG d   1      -4.445  96.043 119.510  0.00  0.00    -0.276 OA
ATOM     17  H   LIG d   1      -5.419  93.445 121.023  0.00  0.00     0.149 HD
ENDBRANCH   6  13
BRANCH   5  18
ATOM     18  N   LIG d   1      -6.863  94.541 117.805  0.00  0.00     0.381 N 
ATOM     19  H   LIG d   1      -7.645  94.775 118.383  0.00  0.00    -0.090 HD
ATOM     20  H   LIG d   1      -7.175  94.506 116.851  0.00  0.00    -0.090 HD
ATOM     21  H   LIG d   1      -6.150  95.230 117.904  0.00  0.00    -0.090 HD
ENDBRANCH   5  18
BRANCH   3  22
ATOM     22  C   LIG d   1      -5.853  90.123 116.256  0.00  0.00     0.382 C 
ATOM     23  O   LIG d   1      -5.456  90.146 115.066  0.00  0.00    -0.241 OA
ATOM     24  O   LIG d   1      -6.568  89.181 116.646  0.00  0.00    -0.241 OA
ENDBRANCH   3  22
TORSDOF 7
ENDMDL
