MODEL 1
REMARK VINA RESULT:      -5.7      0.000      0.000
REMARK  7 active torsions:
REMARK  status: ('A' for Active; 'I' for Inactive)
REMARK    1  A    between atoms: C_2  and  C_3 
REMARK    2  A    between atoms: C_3  and  O_6 
REMARK    3  A    between atoms: C_3  and  C_4 
REMARK    4  A    between atoms: C_7  and  O_6 
REMARK    5  A    between atoms: C_9  and  C_10 
REMARK    6  A    between atoms: N_15  and  C_14 
REMARK    7  A    between atoms: N_20  and  C_19 
REMARK       I    between atoms: C_22  and  N_20 
ROOT
ATOM      1  C   LIG d   1      -6.455  93.349 117.910  0.00  0.00     0.161 C 
ATOM      2  C   LIG d   1      -6.953  92.276 117.152  0.00  0.00     0.016 C 
ATOM      3  C   LIG d   1      -6.153  91.197 116.711  0.00  0.00     0.038 C 
ATOM      4  C   LIG d   1      -4.823  91.041 117.128  0.00  0.00     0.028 C 
ATOM      5  C   LIG d   1      -4.139  92.358 117.477  0.00  0.00    -0.047 C 
ATOM      6  C   LIG d   1      -5.032  93.140 118.468  0.00  0.00     0.091 C 
ENDROOT
BRANCH   1   7
ATOM      7  O   LIG d   1      -7.371  93.661 118.977  0.00  0.00    -0.368 OA
BRANCH   7   8
ATOM      8  C   LIG d   1      -8.372  94.667 118.685  0.00  0.00     0.119 C 
BRANCH   8   9
ATOM      9  C   LIG d   1      -7.630  95.939 118.228  0.00  0.00     0.028 C 
ATOM     10  C   LIG d   1      -7.202  96.824 119.410  0.00  0.00     0.006 C 
ENDBRANCH   8   9
BRANCH   8  11
ATOM     11  C   LIG d   1      -9.137  95.076 119.947  0.00  0.00     0.028 C 
ATOM     12  C   LIG d   1     -10.344  94.168 120.231  0.00  0.00     0.006 C 
ENDBRANCH   8  11
ENDBRANCH   7   8
ENDBRANCH   1   7
BRANCH   6  13
ATOM     13  N   LIG d   1      -4.476  94.479 118.797  0.00  0.00    -0.311 N 
ATOM     14  C   LIG d   1      -3.710  94.714 119.861  0.00  0.00     0.210 C 
ATOM     15  C   LIG d   1      -3.260  96.169 120.025  0.00  0.00     0.109 C 
ATOM     16  O   LIG d   1      -3.335  93.849 120.667  0.00  0.00    -0.276 OA
ATOM     17  H   LIG d   1      -4.706  95.232 118.179  0.00  0.00     0.149 HD
ENDBRANCH   6  13
BRANCH   5  18
ATOM     18  N   LIG d   1      -2.808  92.038 118.027  0.00  0.00     0.381 N 
ATOM     19  H   LIG d   1      -2.206  92.832 117.940  0.00  0.00    -0.090 HD
ATOM     20  H   LIG d   1      -2.412  91.281 117.498  0.00  0.00    -0.090 HD
ATOM     21  H   LIG d   1      -2.889  91.776 118.985  0.00  0.00    -0.090 HD
ENDBRANCH   5  18
BRANCH   3  22
ATOM     22  C   LIG d   1      -6.673  90.280 115.809  0.00  0.00     0.382 C 
ATOM     23  O   LIG d   1      -7.753  89.694 116.063  0.00  0.00    -0.241 OA
ATOM     24  O   LIG d   1      -6.052  89.999 114.766  0.00  0.00    -0.241 OA
ENDBRANCH   3  22
TORSDOF 7
ENDMDL
MODEL 2
REMARK VINA RESULT:      -5.4      2.419      4.954
REMARK  7 active torsions:
REMARK  status: ('A' for Active; 'I' for Inactive)
REMARK    1  A    between atoms: C_2  and  C_3 
REMARK    2  A    between atoms: C_3  and  O_6 
REMARK    3  A    between atoms: C_3  and  C_4 
REMARK    4  A    between atoms: C_7  and  O_6 
REMARK    5  A    between atoms: C_9  and  C_10 
REMARK    6  A    between atoms: N_15  and  C_14 
REMARK    7  A    between atoms: N_20  and  C_19 
REMARK       I    between atoms: C_22  and  N_20 
ROOT
ATOM      1  C   LIG d   1      -4.073  91.678 118.094  0.00  0.00     0.161 C 
ATOM      2  C   LIG d   1      -4.670  90.867 117.115  0.00  0.00     0.016 C 
ATOM      3  C   LIG d   1      -5.894  91.185 116.481  0.00  0.00     0.038 C 
ATOM      4  C   LIG d   1      -6.531  92.419 116.677  0.00  0.00     0.028 C 
ATOM      5  C   LIG d   1      -6.229  93.049 118.032  0.00  0.00    -0.047 C 
ATOM      6  C   LIG d   1      -4.697  93.082 118.240  0.00  0.00     0.091 C 
ENDROOT
BRANCH   1   7
ATOM      7  O   LIG d   1      -2.657  91.783 117.845  0.00  0.00    -0.368 OA
BRANCH   7   8
ATOM      8  C   LIG d   1      -1.806  90.909 118.626  0.00  0.00     0.119 C 
BRANCH   8   9
ATOM      9  C   LIG d   1      -0.747  91.790 119.317  0.00  0.00     0.028 C 
ATOM     10  C   LIG d   1       0.112  92.572 118.310  0.00  0.00     0.006 C 
ENDBRANCH   8   9
BRANCH   8  11
ATOM     11  C   LIG d   1      -1.015  89.952 117.729  0.00  0.00     0.028 C 
ATOM     12  C   LIG d   1      -1.699  88.586 117.565  0.00  0.00     0.006 C 
ENDBRANCH   8  11
ENDBRANCH   7   8
ENDBRANCH   1   7
BRANCH   6  13
ATOM     13  N   LIG d   1      -4.318  93.606 119.577  0.00  0.00    -0.311 N 
ATOM     14  C   LIG d   1      -3.319  94.466 119.771  0.00  0.00     0.210 C 
ATOM     15  C   LIG d   1      -3.083  94.864 121.232  0.00  0.00     0.109 C 
ATOM     16  O   LIG d   1      -2.628  94.963 118.869  0.00  0.00    -0.276 OA
ATOM     17  H   LIG d   1      -4.847  93.280 120.362  0.00  0.00     0.149 HD
ENDBRANCH   6  13
BRANCH   5  18
ATOM     18  N   LIG d   1      -6.843  94.390 118.048  0.00  0.00     0.381 N 
ATOM     19  H   LIG d   1      -6.194  95.064 117.694  0.00  0.00    -0.090 HD
ATOM     20  H   LIG d   1      -7.066  94.634 118.996  0.00  0.00    -0.090 HD
ATOM     21  H   LIG d   1      -7.671  94.392 117.493  0.00  0.00    -0.090 HD
ENDBRANCH   5  18
BRANCH   3  22
ATOM     22  C   LIG d   1      -6.512  90.245 115.671  0.00  0.00     0.382 C 
ATOM     23  O   LIG d   1      -7.616  89.755 116.010  0.00  0.00    -0.241 OA
ATOM     24  O   LIG d   1      -5.959  89.848 114.628  0.00  0.00    -0.241 OA
ENDBRANCH   3  22
TORSDOF 7
ENDMDL
MODEL 3
REMARK VINA RESULT:      -5.3      2.397      4.790
REMARK  7 active torsions:
REMARK  status: ('A' for Active; 'I' for Inactive)
REMARK    1  A    between atoms: C_2  and  C_3 
REMARK    2  A    between atoms: C_3  and  O_6 
REMARK    3  A    between atoms: C_3  and  C_4 
REMARK    4  A    between atoms: C_7  and  O_6 
REMARK    5  A    between atoms: C_9  and  C_10 
REMARK    6  A    between atoms: N_15  and  C_14 
REMARK    7  A    between atoms: N_20  and  C_19 
REMARK       I    between atoms: C_22  and  N_20 
ROOT
ATOM      1  C   LIG d   1      -4.106  91.684 118.056  0.00  0.00     0.161 C 
ATOM      2  C   LIG d   1      -4.703  90.898 117.055  0.00  0.00     0.016 C 
ATOM      3  C   LIG d   1      -5.933  91.225 116.440  0.00  0.00     0.038 C 
ATOM      4  C   LIG d   1      -6.580  92.446 116.677  0.00  0.00     0.028 C 
ATOM      5  C   LIG d   1      -6.274  93.037 118.050  0.00  0.00    -0.047 C 
ATOM      6  C   LIG d   1      -4.742  93.077 118.249  0.00  0.00     0.091 C 
ENDROOT
BRANCH   1   7
ATOM      7  O   LIG d   1      -2.693  91.809 117.801  0.00  0.00    -0.368 OA
BRANCH   7   8
ATOM      8  C   LIG d   1      -1.827  90.946 118.579  0.00  0.00     0.119 C 
BRANCH   8   9
ATOM      9  C   LIG d   1      -1.659  89.630 117.795  0.00  0.00     0.028 C 
ATOM     10  C   LIG d   1      -2.231  88.420 118.551  0.00  0.00     0.006 C 
ENDBRANCH   8   9
BRANCH   8  11
ATOM     11  C   LIG d   1      -2.482  90.548 119.905  0.00  0.00     0.028 C 
ATOM     12  C   LIG d   1      -1.890  91.294 121.110  0.00  0.00     0.006 C 
ENDBRANCH   8  11
ENDBRANCH   7   8
ENDBRANCH   1   7
BRANCH   6  13
ATOM     13  N   LIG d   1      -4.358  93.563 119.600  0.00  0.00    -0.311 N 
ATOM     14  C   LIG d   1      -3.402  94.466 119.810  0.00  0.00     0.210 C 
ATOM     15  C   LIG d   1      -3.152  94.813 121.281  0.00  0.00     0.109 C 
ATOM     16  O   LIG d   1      -2.759  95.037 118.916  0.00  0.00    -0.276 OA
ATOM     17  H   LIG d   1      -4.850  93.175 120.381  0.00  0.00     0.149 HD
ENDBRANCH   6  13
BRANCH   5  18
ATOM     18  N   LIG d   1      -6.900  94.371 118.111  0.00  0.00     0.381 N 
ATOM     19  H   LIG d   1      -6.192  95.076 118.158  0.00  0.00    -0.090 HD
ATOM     20  H   LIG d   1      -7.460  94.430 118.943  0.00  0.00    -0.090 HD
ATOM     21  H   LIG d   1      -7.471  94.517 117.307  0.00  0.00    -0.090 HD
ENDBRANCH   5  18
BRANCH   3  22
ATOM     22  C   LIG d   1      -6.549  90.305 115.604  0.00  0.00     0.382 C 
ATOM     23  O   LIG d   1      -7.657  89.812 115.924  0.00  0.00    -0.241 OA
ATOM     24  O   LIG d   1      -5.989  89.929 114.557  0.00  0.00    -0.241 OA
ENDBRANCH   3  22
TORSDOF 7
ENDMDL
MODEL 4
REMARK VINA RESULT:      -5.2      1.957      4.729
REMARK  7 active torsions:
REMARK  status: ('A' for Active; 'I' for Inactive)
REMARK    1  A    between atoms: C_2  and  C_3 
REMARK    2  A    between atoms: C_3  and  O_6 
REMARK    3  A    between atoms: C_3  and  C_4 
REMARK    4  A    between atoms: C_7  and  O_6 
REMARK    5  A    between atoms: C_9  and  C_10 
REMARK    6  A    between atoms: N_15  and  C_14 
REMARK    7  A    between atoms: N_20  and  C_19 
REMARK       I    between atoms: C_22  and  N_20 
ROOT
ATOM      1  C   LIG d   1      -6.136  92.347 118.341  0.00  0.00     0.161 C 
ATOM      2  C   LIG d   1      -5.399  92.780 119.456  0.00  0.00     0.016 C 
ATOM      3  C   LIG d   1      -4.049  92.428 119.681  0.00  0.00     0.038 C 
ATOM      4  C   LIG d   1      -3.293  91.737 118.721  0.00  0.00     0.028 C 
ATOM      5  C   LIG d   1      -4.135  90.849 117.812  0.00  0.00    -0.047 C 
ATOM      6  C   LIG d   1      -5.297  91.685 117.229  0.00  0.00     0.091 C 
ENDROOT
BRANCH   1   7
ATOM      7  O   LIG d   1      -6.902  93.444 117.806  0.00  0.00    -0.368 OA
BRANCH   7   8
ATOM      8  C   LIG d   1      -7.454  94.369 118.775  0.00  0.00     0.119 C 
BRANCH   8   9
ATOM      9  C   LIG d   1      -8.986  94.358 118.605  0.00  0.00     0.028 C 
ATOM     10  C   LIG d   1      -9.722  94.151 119.940  0.00  0.00     0.006 C 
ENDBRANCH   8   9
BRANCH   8  11
ATOM     11  C   LIG d   1      -7.024  95.809 118.479  0.00  0.00     0.028 C 
ATOM     12  C   LIG d   1      -8.208  96.727 118.139  0.00  0.00     0.006 C 
ENDBRANCH   8  11
ENDBRANCH   7   8
ENDBRANCH   1   7
BRANCH   6  13
ATOM     13  N   LIG d   1      -6.218  90.871 116.394  0.00  0.00    -0.311 N 
ATOM     14  C   LIG d   1      -6.616  91.233 115.176  0.00  0.00     0.210 C 
ATOM     15  C   LIG d   1      -7.583  90.259 114.495  0.00  0.00     0.109 C 
ATOM     16  O   LIG d   1      -6.236  92.253 114.581  0.00  0.00    -0.276 OA
ATOM     17  H   LIG d   1      -6.551  90.013 116.787  0.00  0.00     0.149 HD
ENDBRANCH   6  13
BRANCH   5  18
ATOM     18  N   LIG d   1      -3.241  90.298 116.776  0.00  0.00     0.381 N 
ATOM     19  H   LIG d   1      -2.576  90.992 116.498  0.00  0.00    -0.090 HD
ATOM     20  H   LIG d   1      -3.791  90.049 115.972  0.00  0.00    -0.090 HD
ATOM     21  H   LIG d   1      -2.768  89.495 117.126  0.00  0.00    -0.090 HD
ENDBRANCH   5  18
BRANCH   3  22
ATOM     22  C   LIG d   1      -3.452  92.733 120.895  0.00  0.00     0.382 C 
ATOM     23  O   LIG d   1      -3.206  93.927 121.190  0.00  0.00    -0.241 OA
ATOM     24  O   LIG d   1      -3.115  91.825 121.679  0.00  0.00    -0.241 OA
ENDBRANCH   3  22
TORSDOF 7
ENDMDL
MODEL 5
REMARK VINA RESULT:      -5.0      2.555      6.429
REMARK  7 active torsions:
REMARK  status: ('A' for Active; 'I' for Inactive)
REMARK    1  A    between atoms: C_2  and  C_3 
REMARK    2  A    between atoms: C_3  and  O_6 
REMARK    3  A    between atoms: C_3  and  C_4 
REMARK    4  A    between atoms: C_7  and  O_6 
REMARK    5  A    between atoms: C_9  and  C_10 
REMARK    6  A    between atoms: N_15  and  C_14 
REMARK    7  A    between atoms: N_20  and  C_19 
REMARK       I    between atoms: C_22  and  N_20 
ROOT
ATOM      1  C   LIG d   1      -4.211  92.739 117.924  0.00  0.00     0.161 C 
ATOM      2  C   LIG d   1      -3.995  93.620 118.997  0.00  0.00     0.016 C 
ATOM      3  C   LIG d   1      -5.034  94.329 119.642  0.00  0.00     0.038 C 
ATOM      4  C   LIG d   1      -6.386  94.089 119.355  0.00  0.00     0.028 C 
ATOM      5  C   LIG d   1      -6.623  93.584 117.936  0.00  0.00    -0.047 C 
ATOM      6  C   LIG d   1      -5.690  92.380 117.670  0.00  0.00     0.091 C 
ENDROOT
BRANCH   1   7
ATOM      7  O   LIG d   1      -3.430  91.542 118.109  0.00  0.00    -0.368 OA
BRANCH   7   8
ATOM      8  C   LIG d   1      -2.358  91.625 119.080  0.00  0.00     0.119 C 
BRANCH   8   9
ATOM      9  C   LIG d   1      -1.031  91.416 118.324  0.00  0.00     0.028 C 
ATOM     10  C   LIG d   1      -0.443  92.735 117.796  0.00  0.00     0.006 C 
ENDBRANCH   8   9
BRANCH   8  11
ATOM     11  C   LIG d   1      -2.433  90.478 120.092  0.00  0.00     0.028 C 
ATOM     12  C   LIG d   1      -1.574  89.269 119.687  0.00  0.00     0.006 C 
ENDBRANCH   8  11
ENDBRANCH   7   8
ENDBRANCH   1   7
BRANCH   6  13
ATOM     13  N   LIG d   1      -5.798  91.877 116.275  0.00  0.00    -0.311 N 
ATOM     14  C   LIG d   1      -6.612  90.887 115.914  0.00  0.00     0.210 C 
ATOM     15  C   LIG d   1      -6.553  90.510 114.430  0.00  0.00     0.109 C 
ATOM     16  O   LIG d   1      -7.401  90.306 116.675  0.00  0.00    -0.276 OA
ATOM     17  H   LIG d   1      -5.216  92.313 115.587  0.00  0.00     0.149 HD
ENDBRANCH   6  13
BRANCH   5  18
ATOM     18  N   LIG d   1      -8.053  93.244 117.817  0.00  0.00     0.381 N 
ATOM     19  H   LIG d   1      -8.154  92.341 117.398  0.00  0.00    -0.090 HD
ATOM     20  H   LIG d   1      -8.499  93.920 117.221  0.00  0.00    -0.090 HD
ATOM     21  H   LIG d   1      -8.481  93.251 118.716  0.00  0.00    -0.090 HD
ENDBRANCH   5  18
BRANCH   3  22
ATOM     22  C   LIG d   1      -4.721  95.321 120.560  0.00  0.00     0.382 C 
ATOM     23  O   LIG d   1      -4.538  95.024 121.765  0.00  0.00    -0.241 OA
ATOM     24  O   LIG d   1      -4.665  96.514 120.206  0.00  0.00    -0.241 OA
ENDBRANCH   3  22
TORSDOF 7
ENDMDL
MODEL 6
REMARK VINA RESULT:      -4.8      2.988      7.079
REMARK  7 active torsions:
REMARK  status: ('A' for Active; 'I' for Inactive)
REMARK    1  A    between atoms: C_2  and  C_3 
REMARK    2  A    between atoms: C_3  and  O_6 
REMARK    3  A    between atoms: C_3  and  C_4 
REMARK    4  A    between atoms: C_7  and  O_6 
REMARK    5  A    between atoms: C_9  and  C_10 
REMARK    6  A    between atoms: N_15  and  C_14 
REMARK    7  A    between atoms: N_20  and  C_19 
REMARK       I    between atoms: C_22  and  N_20 
ROOT
ATOM      1  C   LIG d   1      -3.397  90.993 117.916  0.00  0.00     0.161 C 
ATOM      2  C   LIG d   1      -2.721  91.529 119.025  0.00  0.00     0.016 C 
ATOM      3  C   LIG d   1      -3.218  92.606 119.793  0.00  0.00     0.038 C 
ATOM      4  C   LIG d   1      -4.506  93.126 119.595  0.00  0.00     0.028 C 
ATOM      5  C   LIG d   1      -5.015  92.954 118.168  0.00  0.00    -0.047 C 
ATOM      6  C   LIG d   1      -4.854  91.474 117.753  0.00  0.00     0.091 C 
ENDROOT
BRANCH   1   7
ATOM      7  O   LIG d   1      -3.346  89.553 117.962  0.00  0.00    -0.368 OA
BRANCH   7   8
ATOM      8  C   LIG d   1      -2.198  88.976 118.631  0.00  0.00     0.119 C 
BRANCH   8   9
ATOM      9  C   LIG d   1      -1.276  88.389 117.545  0.00  0.00     0.028 C 
ATOM     10  C   LIG d   1      -0.060  89.286 117.259  0.00  0.00     0.006 C 
ENDBRANCH   8   9
BRANCH   8  11
ATOM     11  C   LIG d   1      -2.603  87.787 119.507  0.00  0.00     0.028 C 
ATOM     12  C   LIG d   1      -1.430  86.837 119.801  0.00  0.00     0.006 C 
ENDBRANCH   8  11
ENDBRANCH   7   8
ENDBRANCH   1   7
BRANCH   6  13
ATOM     13  N   LIG d   1      -5.251  91.235 116.341  0.00  0.00    -0.311 N 
ATOM     14  C   LIG d   1      -6.446  90.768 115.984  0.00  0.00     0.210 C 
ATOM     15  C   LIG d   1      -6.642  90.575 114.477  0.00  0.00     0.109 C 
ATOM     16  O   LIG d   1      -7.374  90.525 116.770  0.00  0.00    -0.276 OA
ATOM     17  H   LIG d   1      -4.569  91.435 115.635  0.00  0.00     0.149 HD
ENDBRANCH   6  13
BRANCH   5  18
ATOM     18  N   LIG d   1      -6.417  93.413 118.137  0.00  0.00     0.381 N 
ATOM     19  H   LIG d   1      -7.030  92.643 118.314  0.00  0.00    -0.090 HD
ATOM     20  H   LIG d   1      -6.620  93.775 117.221  0.00  0.00    -0.090 HD
ATOM     21  H   LIG d   1      -6.558  94.124 118.821  0.00  0.00    -0.090 HD
ENDBRANCH   5  18
BRANCH   3  22
ATOM     22  C   LIG d   1      -2.407  93.202 120.748  0.00  0.00     0.382 C 
ATOM     23  O   LIG d   1      -1.723  94.210 120.448  0.00  0.00    -0.241 OA
ATOM     24  O   LIG d   1      -2.317  92.717 121.891  0.00  0.00    -0.241 OA
ENDBRANCH   3  22
TORSDOF 7
ENDMDL
MODEL 7
REMARK VINA RESULT:      -4.8      3.546      6.391
REMARK  7 active torsions:
REMARK  status: ('A' for Active; 'I' for Inactive)
REMARK    1  A    between atoms: C_2  and  C_3 
REMARK    2  A    between atoms: C_3  and  O_6 
REMARK    3  A    between atoms: C_3  and  C_4 
REMARK    4  A    between atoms: C_7  and  O_6 
REMARK    5  A    between atoms: C_9  and  C_10 
REMARK    6  A    between atoms: N_15  and  C_14 
REMARK    7  A    between atoms: N_20  and  C_19 
REMARK       I    between atoms: C_22  and  N_20 
ROOT
ATOM      1  C   LIG d   1      -2.807  90.414 117.939  0.00  0.00     0.161 C 
ATOM      2  C   LIG d   1      -3.966  90.148 117.190  0.00  0.00     0.016 C 
ATOM      3  C   LIG d   1      -4.971  91.111 116.944  0.00  0.00     0.038 C 
ATOM      4  C   LIG d   1      -4.813  92.457 117.306  0.00  0.00     0.028 C 
ATOM      5  C   LIG d   1      -3.891  92.658 118.503  0.00  0.00    -0.047 C 
ATOM      6  C   LIG d   1      -2.565  91.906 118.247  0.00  0.00     0.091 C 
ENDROOT
BRANCH   1   7
ATOM      7  O   LIG d   1      -1.658  89.845 117.280  0.00  0.00    -0.368 OA
BRANCH   7   8
ATOM      8  C   LIG d   1      -1.389  88.450 117.561  0.00  0.00     0.119 C 
BRANCH   8   9
ATOM      9  C   LIG d   1      -1.949  88.143 118.964  0.00  0.00     0.028 C 
ATOM     10  C   LIG d   1      -1.209  86.983 119.651  0.00  0.00     0.006 C 
ENDBRANCH   8   9
BRANCH   8  11
ATOM     11  C   LIG d   1       0.116  88.181 117.659  0.00  0.00     0.028 C 
ATOM     12  C   LIG d   1       0.640  87.302 116.512  0.00  0.00     0.006 C 
ENDBRANCH   8  11
ENDBRANCH   7   8
ENDBRANCH   1   7
BRANCH   6  13
ATOM     13  N   LIG d   1      -1.638  91.981 119.407  0.00  0.00    -0.311 N 
ATOM     14  C   LIG d   1      -0.449  92.580 119.357  0.00  0.00     0.210 C 
ATOM     15  C   LIG d   1       0.357  92.525 120.659  0.00  0.00     0.109 C 
ATOM     16  O   LIG d   1       0.000  93.179 118.369  0.00  0.00    -0.276 OA
ATOM     17  H   LIG d   1      -1.937  91.548 120.258  0.00  0.00     0.149 HD
ENDBRANCH   6  13
BRANCH   5  18
ATOM     18  N   LIG d   1      -3.706  94.110 118.685  0.00  0.00     0.381 N 
ATOM     19  H   LIG d   1      -2.765  94.363 118.459  0.00  0.00    -0.090 HD
ATOM     20  H   LIG d   1      -3.872  94.341 119.649  0.00  0.00    -0.090 HD
ATOM     21  H   LIG d   1      -4.341  94.610 118.102  0.00  0.00    -0.090 HD
ENDBRANCH   5  18
BRANCH   3  22
ATOM     22  C   LIG d   1      -6.169  90.722 116.364  0.00  0.00     0.382 C 
ATOM     23  O   LIG d   1      -7.240  91.284 116.698  0.00  0.00    -0.241 OA
ATOM     24  O   LIG d   1      -6.198  89.785 115.543  0.00  0.00    -0.241 OA
ENDBRANCH   3  22
TORSDOF 7
ENDMDL
MODEL 8
REMARK VINA RESULT:      -4.7      5.125      8.146
REMARK  7 active torsions:
REMARK  status: ('A' for Active; 'I' for Inactive)
REMARK    1  A    between atoms: C_2  and  C_3 
REMARK    2  A    between atoms: C_3  and  O_6 
REMARK    3  A    between atoms: C_3  and  C_4 
REMARK    4  A    between atoms: C_7  and  O_6 
REMARK    5  A    between atoms: C_9  and  C_10 
REMARK    6  A    between atoms: N_15  and  C_14 
REMARK    7  A    between atoms: N_20  and  C_19 
REMARK       I    between atoms: C_22  and  N_20 
ROOT
ATOM      1  C   LIG d   1      -0.171  90.948 116.996  0.00  0.00     0.161 C 
ATOM      2  C   LIG d   1       1.229  90.904 117.106  0.00  0.00     0.016 C 
ATOM      3  C   LIG d   1       1.963  91.703 118.012  0.00  0.00     0.038 C 
ATOM      4  C   LIG d   1       1.332  92.496 118.982  0.00  0.00     0.028 C 
ATOM      5  C   LIG d   1      -0.064  92.954 118.574  0.00  0.00    -0.047 C 
ATOM      6  C   LIG d   1      -0.885  91.724 118.122  0.00  0.00     0.091 C 
ENDROOT
BRANCH   1   7
ATOM      7  O   LIG d   1      -0.696  89.609 116.901  0.00  0.00    -0.368 OA
BRANCH   7   8
ATOM      8  C   LIG d   1      -0.879  88.905 118.154  0.00  0.00     0.119 C 
BRANCH   8   9
ATOM      9  C   LIG d   1      -0.047  87.610 118.084  0.00  0.00     0.028 C 
ATOM     10  C   LIG d   1       0.465  87.317 116.663  0.00  0.00     0.006 C 
ENDBRANCH   8   9
BRANCH   8  11
ATOM     11  C   LIG d   1      -2.330  88.447 118.329  0.00  0.00     0.028 C 
ATOM     12  C   LIG d   1      -2.549  87.640 119.618  0.00  0.00     0.006 C 
ENDBRANCH   8  11
ENDBRANCH   7   8
ENDBRANCH   1   7
BRANCH   6  13
ATOM     13  N   LIG d   1      -2.236  92.095 117.627  0.00  0.00    -0.311 N 
ATOM     14  C   LIG d   1      -3.332  92.048 118.383  0.00  0.00     0.210 C 
ATOM     15  C   LIG d   1      -4.626  92.453 117.670  0.00  0.00     0.109 C 
ATOM     16  O   LIG d   1      -3.350  91.740 119.584  0.00  0.00    -0.276 OA
ATOM     17  H   LIG d   1      -2.308  92.387 116.672  0.00  0.00     0.149 HD
ENDBRANCH   6  13
BRANCH   5  18
ATOM     18  N   LIG d   1      -0.659  93.653 119.730  0.00  0.00     0.381 N 
ATOM     19  H   LIG d   1      -1.274  93.034 120.220  0.00  0.00    -0.090 HD
ATOM     20  H   LIG d   1      -1.197  94.433 119.396  0.00  0.00    -0.090 HD
ATOM     21  H   LIG d   1       0.059  93.973 120.341  0.00  0.00    -0.090 HD
ENDBRANCH   5  18
BRANCH   3  22
ATOM     22  C   LIG d   1       3.346  91.744 117.926  0.00  0.00     0.382 C 
ATOM     23  O   LIG d   1       3.899  92.424 117.028  0.00  0.00    -0.241 OA
ATOM     24  O   LIG d   1       4.048  91.075 118.708  0.00  0.00    -0.241 OA
ENDBRANCH   3  22
TORSDOF 7
ENDMDL
MODEL 9
REMARK VINA RESULT:      -4.6      2.208      4.211
REMARK  7 active torsions:
REMARK  status: ('A' for Active; 'I' for Inactive)
REMARK    1  A    between atoms: C_2  and  C_3 
REMARK    2  A    between atoms: C_3  and  O_6 
REMARK    3  A    between atoms: C_3  and  C_4 
REMARK    4  A    between atoms: C_7  and  O_6 
REMARK    5  A    between atoms: C_9  and  C_10 
REMARK    6  A    between atoms: N_15  and  C_14 
REMARK    7  A    between atoms: N_20  and  C_19 
REMARK       I    between atoms: C_22  and  N_20 
ROOT
ATOM      1  C   LIG d   1      -5.173  92.846 119.864  0.00  0.00     0.161 C 
ATOM      2  C   LIG d   1      -4.106  92.062 119.394  0.00  0.00     0.016 C 
ATOM      3  C   LIG d   1      -4.078  91.477 118.107  0.00  0.00     0.038 C 
ATOM      4  C   LIG d   1      -5.055  91.764 117.141  0.00  0.00     0.028 C 
ATOM      5  C   LIG d   1      -6.405  92.143 117.739  0.00  0.00    -0.047 C 
ATOM      6  C   LIG d   1      -6.195  93.261 118.786  0.00  0.00     0.091 C 
ENDROOT
BRANCH   1   7
ATOM      7  O   LIG d   1      -4.662  94.009 120.544  0.00  0.00    -0.368 OA
BRANCH   7   8
ATOM      8  C   LIG d   1      -4.385  95.163 119.713  0.00  0.00     0.119 C 
BRANCH   8   9
ATOM      9  C   LIG d   1      -2.866  95.417 119.763  0.00  0.00     0.028 C 
ATOM     10  C   LIG d   1      -2.238  94.956 121.089  0.00  0.00     0.006 C 
ENDBRANCH   8   9
BRANCH   8  11
ATOM     11  C   LIG d   1      -5.027  96.430 120.287  0.00  0.00     0.028 C 
ATOM     12  C   LIG d   1      -5.819  96.165 121.578  0.00  0.00     0.006 C 
ENDBRANCH   8  11
ENDBRANCH   7   8
ENDBRANCH   1   7
BRANCH   6  13
ATOM     13  N   LIG d   1      -7.456  93.632 119.480  0.00  0.00    -0.311 N 
ATOM     14  C   LIG d   1      -8.208  94.673 119.126  0.00  0.00     0.210 C 
ATOM     15  C   LIG d   1      -9.456  94.890 119.987  0.00  0.00     0.109 C 
ATOM     16  O   LIG d   1      -7.977  95.418 118.162  0.00  0.00    -0.276 OA
ATOM     17  H   LIG d   1      -7.734  93.063 120.255  0.00  0.00     0.149 HD
ENDBRANCH   6  13
BRANCH   5  18
ATOM     18  N   LIG d   1      -7.286  92.549 116.628  0.00  0.00     0.381 N 
ATOM     19  H   LIG d   1      -8.024  91.882 116.519  0.00  0.00    -0.090 HD
ATOM     20  H   LIG d   1      -6.750  92.568 115.779  0.00  0.00    -0.090 HD
ATOM     21  H   LIG d   1      -7.669  93.451 116.809  0.00  0.00    -0.090 HD
ENDBRANCH   5  18
BRANCH   3  22
ATOM     22  C   LIG d   1      -3.086  90.563 117.789  0.00  0.00     0.382 C 
ATOM     23  O   LIG d   1      -1.879  90.868 117.946  0.00  0.00    -0.241 OA
ATOM     24  O   LIG d   1      -3.380  89.454 117.305  0.00  0.00    -0.241 OA
ENDBRANCH   3  22
TORSDOF 7
ENDMDL
