MODEL 1
REMARK VINA RESULT:      -5.4      0.000      0.000
REMARK  7 active torsions:
REMARK  status: ('A' for Active; 'I' for Inactive)
REMARK    1  A    between atoms: C_2  and  C_3 
REMARK    2  A    between atoms: C_3  and  O_6 
REMARK    3  A    between atoms: C_3  and  C_4 
REMARK    4  A    between atoms: C_7  and  O_6 
REMARK    5  A    between atoms: C_9  and  C_10 
REMARK    6  A    between atoms: N_15  and  C_14 
REMARK    7  A    between atoms: N_20  and  C_19 
REMARK       I    between atoms: C_22  and  N_20 
ROOT
ATOM      1  C   LIG d   1      -5.704  93.307 117.036  0.00  0.00     0.161 C 
ATOM      2  C   LIG d   1      -6.623  92.360 116.554  0.00  0.00     0.016 C 
ATOM      3  C   LIG d   1      -6.339  90.978 116.458  0.00  0.00     0.038 C 
ATOM      4  C   LIG d   1      -5.161  90.425 116.984  0.00  0.00     0.028 C 
ATOM      5  C   LIG d   1      -3.995  91.407 117.020  0.00  0.00    -0.047 C 
ATOM      6  C   LIG d   1      -4.456  92.708 117.717  0.00  0.00     0.091 C 
ENDROOT
BRANCH   1   7
ATOM      7  O   LIG d   1      -6.369  94.224 117.927  0.00  0.00    -0.368 OA
BRANCH   7   8
ATOM      8  C   LIG d   1      -7.241  93.629 118.919  0.00  0.00     0.119 C 
BRANCH   8   9
ATOM      9  C   LIG d   1      -8.578  94.394 118.878  0.00  0.00     0.028 C 
ATOM     10  C   LIG d   1      -9.402  94.206 120.164  0.00  0.00     0.006 C 
ENDBRANCH   8   9
BRANCH   8  11
ATOM     11  C   LIG d   1      -6.698  93.837 120.335  0.00  0.00     0.028 C 
ATOM     12  C   LIG d   1      -6.089  92.559 120.934  0.00  0.00     0.006 C 
ENDBRANCH   8  11
ENDBRANCH   7   8
ENDBRANCH   1   7
BRANCH   6  13
ATOM     13  N   LIG d   1      -3.399  93.754 117.721  0.00  0.00    -0.311 N 
ATOM     14  C   LIG d   1      -2.580  93.964 118.749  0.00  0.00     0.210 C 
ATOM     15  C   LIG d   1      -1.577  95.105 118.553  0.00  0.00     0.109 C 
ATOM     16  O   LIG d   1      -2.566  93.293 119.792  0.00  0.00    -0.276 OA
ATOM     17  H   LIG d   1      -3.319  94.324 116.901  0.00  0.00     0.149 HD
ENDBRANCH   6  13
BRANCH   5  18
ATOM     18  N   LIG d   1      -2.876  90.744 117.716  0.00  0.00     0.381 N 
ATOM     19  H   LIG d   1      -2.757  91.144 118.625  0.00  0.00    -0.090 HD
ATOM     20  H   LIG d   1      -2.032  90.895 117.192  0.00  0.00    -0.090 HD
ATOM     21  H   LIG d   1      -3.055  89.767 117.795  0.00  0.00    -0.090 HD
ENDBRANCH   5  18
BRANCH   3  22
ATOM     22  C   LIG d   1      -7.221  90.140 115.795  0.00  0.00     0.382 C 
ATOM     23  O   LIG d   1      -8.118  89.540 116.436  0.00  0.00    -0.241 OA
ATOM     24  O   LIG d   1      -7.105  89.941 114.571  0.00  0.00    -0.241 OA
ENDBRANCH   3  22
TORSDOF 7
ENDMDL
MODEL 2
REMARK VINA RESULT:      -5.4      1.048      1.576
REMARK  7 active torsions:
REMARK  status: ('A' for Active; 'I' for Inactive)
REMARK    1  A    between atoms: C_2  and  C_3 
REMARK    2  A    between atoms: C_3  and  O_6 
REMARK    3  A    between atoms: C_3  and  C_4 
REMARK    4  A    between atoms: C_7  and  O_6 
REMARK    5  A    between atoms: C_9  and  C_10 
REMARK    6  A    between atoms: N_15  and  C_14 
REMARK    7  A    between atoms: N_20  and  C_19 
REMARK       I    between atoms: C_22  and  N_20 
ROOT
ATOM      1  C   LIG d   1      -5.996  93.214 117.745  0.00  0.00     0.161 C 
ATOM      2  C   LIG d   1      -6.781  92.222 117.135  0.00  0.00     0.016 C 
ATOM      3  C   LIG d   1      -6.251  91.015 116.625  0.00  0.00     0.038 C 
ATOM      4  C   LIG d   1      -4.912  90.649 116.828  0.00  0.00     0.028 C 
ATOM      5  C   LIG d   1      -3.976  91.842 116.994  0.00  0.00    -0.047 C 
ATOM      6  C   LIG d   1      -4.552  92.784 118.075  0.00  0.00     0.091 C 
ENDROOT
BRANCH   1   7
ATOM      7  O   LIG d   1      -6.658  93.700 118.930  0.00  0.00    -0.368 OA
BRANCH   7   8
ATOM      8  C   LIG d   1      -7.598  94.785 118.736  0.00  0.00     0.119 C 
BRANCH   8   9
ATOM      9  C   LIG d   1      -7.209  95.914 119.710  0.00  0.00     0.028 C 
ATOM     10  C   LIG d   1      -5.935  96.655 119.271  0.00  0.00     0.006 C 
ENDBRANCH   8   9
BRANCH   8  11
ATOM     11  C   LIG d   1      -9.017  94.372 119.140  0.00  0.00     0.028 C 
ATOM     12  C   LIG d   1      -9.178  94.201 120.659  0.00  0.00     0.006 C 
ENDBRANCH   8  11
ENDBRANCH   7   8
ENDBRANCH   1   7
BRANCH   6  13
ATOM     13  N   LIG d   1      -3.741  94.019 118.240  0.00  0.00    -0.311 N 
ATOM     14  C   LIG d   1      -2.779  94.148 119.153  0.00  0.00     0.210 C 
ATOM     15  C   LIG d   1      -2.080  95.511 119.167  0.00  0.00     0.109 C 
ATOM     16  O   LIG d   1      -2.417  93.252 119.930  0.00  0.00    -0.276 OA
ATOM     17  H   LIG d   1      -3.948  94.785 117.630  0.00  0.00     0.149 HD
ENDBRANCH   6  13
BRANCH   5  18
ATOM     18  N   LIG d   1      -2.641  91.317 117.335  0.00  0.00     0.381 N 
ATOM     19  H   LIG d   1      -1.936  91.947 117.009  0.00  0.00    -0.090 HD
ATOM     20  H   LIG d   1      -2.512  90.433 116.875  0.00  0.00    -0.090 HD
ATOM     21  H   LIG d   1      -2.562  91.201 118.321  0.00  0.00    -0.090 HD
ENDBRANCH   5  18
BRANCH   3  22
ATOM     22  C   LIG d   1      -7.055  90.176 115.868  0.00  0.00     0.382 C 
ATOM     23  O   LIG d   1      -8.027  89.590 116.401  0.00  0.00    -0.241 OA
ATOM     24  O   LIG d   1      -6.794  89.965 114.668  0.00  0.00    -0.241 OA
ENDBRANCH   3  22
TORSDOF 7
ENDMDL
MODEL 3
REMARK VINA RESULT:      -5.2      2.173      4.098
REMARK  7 active torsions:
REMARK  status: ('A' for Active; 'I' for Inactive)
REMARK    1  A    between atoms: C_2  and  C_3 
REMARK    2  A    between atoms: C_3  and  O_6 
REMARK    3  A    between atoms: C_3  and  C_4 
REMARK    4  A    between atoms: C_7  and  O_6 
REMARK    5  A    between atoms: C_9  and  C_10 
REMARK    6  A    between atoms: N_15  and  C_14 
REMARK    7  A    between atoms: N_20  and  C_19 
REMARK       I    between atoms: C_22  and  N_20 
ROOT
ATOM      1  C   LIG d   1      -4.065  91.613 118.048  0.00  0.00     0.161 C 
ATOM      2  C   LIG d   1      -4.800  90.789 117.179  0.00  0.00     0.016 C 
ATOM      3  C   LIG d   1      -5.989  91.202 116.535  0.00  0.00     0.038 C 
ATOM      4  C   LIG d   1      -6.446  92.527 116.599  0.00  0.00     0.028 C 
ATOM      5  C   LIG d   1      -6.015  93.255 117.868  0.00  0.00    -0.047 C 
ATOM      6  C   LIG d   1      -4.487  93.098 118.043  0.00  0.00     0.091 C 
ENDROOT
BRANCH   1   7
ATOM      7  O   LIG d   1      -2.658  91.491 117.763  0.00  0.00    -0.368 OA
BRANCH   7   8
ATOM      8  C   LIG d   1      -1.861  90.813 118.765  0.00  0.00     0.119 C 
BRANCH   8   9
ATOM      9  C   LIG d   1      -1.436  89.454 118.176  0.00  0.00     0.028 C 
ATOM     10  C   LIG d   1      -2.372  88.310 118.603  0.00  0.00     0.006 C 
ENDBRANCH   8   9
BRANCH   8  11
ATOM     11  C   LIG d   1      -2.695  90.474 120.005  0.00  0.00     0.028 C 
ATOM     12  C   LIG d   1      -2.195  91.186 121.272  0.00  0.00     0.006 C 
ENDBRANCH   8  11
ENDBRANCH   7   8
ENDBRANCH   1   7
BRANCH   6  13
ATOM     13  N   LIG d   1      -3.995  93.709 119.304  0.00  0.00    -0.311 N 
ATOM     14  C   LIG d   1      -2.920  94.494 119.368  0.00  0.00     0.210 C 
ATOM     15  C   LIG d   1      -2.574  95.004 120.771  0.00  0.00     0.109 C 
ATOM     16  O   LIG d   1      -2.239  94.842 118.392  0.00  0.00    -0.276 OA
ATOM     17  H   LIG d   1      -4.506  93.505 120.140  0.00  0.00     0.149 HD
ENDBRANCH   6  13
BRANCH   5  18
ATOM     18  N   LIG d   1      -6.440  94.662 117.740  0.00  0.00     0.381 N 
ATOM     19  H   LIG d   1      -7.325  94.790 118.188  0.00  0.00    -0.090 HD
ATOM     20  H   LIG d   1      -6.545  94.883 116.766  0.00  0.00    -0.090 HD
ATOM     21  H   LIG d   1      -5.761  95.262 118.153  0.00  0.00    -0.090 HD
ENDBRANCH   5  18
BRANCH   3  22
ATOM     22  C   LIG d   1      -6.757  90.273 115.849  0.00  0.00     0.382 C 
ATOM     23  O   LIG d   1      -7.799  89.811 116.374  0.00  0.00    -0.241 OA
ATOM     24  O   LIG d   1      -6.398  89.859 114.731  0.00  0.00    -0.241 OA
ENDBRANCH   3  22
TORSDOF 7
ENDMDL
MODEL 4
REMARK VINA RESULT:      -5.0      2.539      6.141
REMARK  7 active torsions:
REMARK  status: ('A' for Active; 'I' for Inactive)
REMARK    1  A    between atoms: C_2  and  C_3 
REMARK    2  A    between atoms: C_3  and  O_6 
REMARK    3  A    between atoms: C_3  and  C_4 
REMARK    4  A    between atoms: C_7  and  O_6 
REMARK    5  A    between atoms: C_9  and  C_10 
REMARK    6  A    between atoms: N_15  and  C_14 
REMARK    7  A    between atoms: N_20  and  C_19 
REMARK       I    between atoms: C_22  and  N_20 
ROOT
ATOM      1  C   LIG d   1      -3.979  92.164 117.401  0.00  0.00     0.161 C 
ATOM      2  C   LIG d   1      -3.524  93.112 118.332  0.00  0.00     0.016 C 
ATOM      3  C   LIG d   1      -4.373  94.043 118.973  0.00  0.00     0.038 C 
ATOM      4  C   LIG d   1      -5.768  93.989 118.839  0.00  0.00     0.028 C 
ATOM      5  C   LIG d   1      -6.226  93.375 117.520  0.00  0.00    -0.047 C 
ATOM      6  C   LIG d   1      -5.513  92.017 117.325  0.00  0.00     0.091 C 
ENDROOT
BRANCH   1   7
ATOM      7  O   LIG d   1      -3.366  90.887 117.664  0.00  0.00    -0.368 OA
BRANCH   7   8
ATOM      8  C   LIG d   1      -2.246  90.895 118.582  0.00  0.00     0.119 C 
BRANCH   8   9
ATOM      9  C   LIG d   1      -0.975  90.594 117.765  0.00  0.00     0.028 C 
ATOM     10  C   LIG d   1      -0.065  91.825 117.619  0.00  0.00     0.006 C 
ENDBRANCH   8   9
BRANCH   8  11
ATOM     11  C   LIG d   1      -2.352  89.756 119.601  0.00  0.00     0.028 C 
ATOM     12  C   LIG d   1      -2.399  88.369 118.941  0.00  0.00     0.006 C 
ENDBRANCH   8  11
ENDBRANCH   7   8
ENDBRANCH   1   7
BRANCH   6  13
ATOM     13  N   LIG d   1      -5.841  91.388 116.019  0.00  0.00    -0.311 N 
ATOM     14  C   LIG d   1      -6.831  90.512 115.855  0.00  0.00     0.210 C 
ATOM     15  C   LIG d   1      -6.985  89.969 114.431  0.00  0.00     0.109 C 
ATOM     16  O   LIG d   1      -7.617  90.158 116.747  0.00  0.00    -0.276 OA
ATOM     17  H   LIG d   1      -5.273  91.643 115.235  0.00  0.00     0.149 HD
ENDBRANCH   6  13
BRANCH   5  18
ATOM     18  N   LIG d   1      -7.695  93.255 117.571  0.00  0.00     0.381 N 
ATOM     19  H   LIG d   1      -7.968  92.783 118.410  0.00  0.00    -0.090 HD
ATOM     20  H   LIG d   1      -8.004  92.707 116.787  0.00  0.00    -0.090 HD
ATOM     21  H   LIG d   1      -8.113  94.159 117.540  0.00  0.00    -0.090 HD
ENDBRANCH   5  18
BRANCH   3  22
ATOM     22  C   LIG d   1      -3.823  95.067 119.729  0.00  0.00     0.382 C 
ATOM     23  O   LIG d   1      -4.415  95.475 120.757  0.00  0.00    -0.241 OA
ATOM     24  O   LIG d   1      -2.765  95.619 119.371  0.00  0.00    -0.241 OA
ENDBRANCH   3  22
TORSDOF 7
ENDMDL
MODEL 5
REMARK VINA RESULT:      -4.9      2.092      4.307
REMARK  7 active torsions:
REMARK  status: ('A' for Active; 'I' for Inactive)
REMARK    1  A    between atoms: C_2  and  C_3 
REMARK    2  A    between atoms: C_3  and  O_6 
REMARK    3  A    between atoms: C_3  and  C_4 
REMARK    4  A    between atoms: C_7  and  O_6 
REMARK    5  A    between atoms: C_9  and  C_10 
REMARK    6  A    between atoms: N_15  and  C_14 
REMARK    7  A    between atoms: N_20  and  C_19 
REMARK       I    between atoms: C_22  and  N_20 
ROOT
ATOM      1  C   LIG d   1      -4.428  92.117 117.764  0.00  0.00     0.161 C 
ATOM      2  C   LIG d   1      -4.721  91.213 116.730  0.00  0.00     0.016 C 
ATOM      3  C   LIG d   1      -5.944  91.211 116.021  0.00  0.00     0.038 C 
ATOM      4  C   LIG d   1      -6.905  92.218 116.198  0.00  0.00     0.028 C 
ATOM      5  C   LIG d   1      -6.868  92.853 117.584  0.00  0.00    -0.047 C 
ATOM      6  C   LIG d   1      -5.419  93.292 117.896  0.00  0.00     0.091 C 
ENDROOT
BRANCH   1   7
ATOM      7  O   LIG d   1      -3.082  92.612 117.615  0.00  0.00    -0.368 OA
BRANCH   7   8
ATOM      8  C   LIG d   1      -2.036  91.801 118.205  0.00  0.00     0.119 C 
BRANCH   8   9
ATOM      9  C   LIG d   1      -2.400  91.584 119.687  0.00  0.00     0.028 C 
ATOM     10  C   LIG d   1      -2.309  90.107 120.103  0.00  0.00     0.006 C 
ENDBRANCH   8   9
BRANCH   8  11
ATOM     11  C   LIG d   1      -0.697  92.545 118.221  0.00  0.00     0.028 C 
ATOM     12  C   LIG d   1      -0.797  93.964 117.641  0.00  0.00     0.006 C 
ENDBRANCH   8  11
ENDBRANCH   7   8
ENDBRANCH   1   7
BRANCH   6  13
ATOM     13  N   LIG d   1      -5.279  93.848 119.267  0.00  0.00    -0.311 N 
ATOM     14  C   LIG d   1      -5.474  95.132 119.562  0.00  0.00     0.210 C 
ATOM     15  C   LIG d   1      -5.257  95.499 121.033  0.00  0.00     0.109 C 
ATOM     16  O   LIG d   1      -5.838  95.996 118.750  0.00  0.00    -0.276 OA
ATOM     17  H   LIG d   1      -5.016  93.210 119.993  0.00  0.00     0.149 HD
ENDBRANCH   6  13
BRANCH   5  18
ATOM     18  N   LIG d   1      -7.826  93.975 117.585  0.00  0.00     0.381 N 
ATOM     19  H   LIG d   1      -7.355  94.822 117.837  0.00  0.00    -0.090 HD
ATOM     20  H   LIG d   1      -8.538  93.795 118.271  0.00  0.00    -0.090 HD
ATOM     21  H   LIG d   1      -8.239  94.072 116.684  0.00  0.00    -0.090 HD
ENDBRANCH   5  18
BRANCH   3  22
ATOM     22  C   LIG d   1      -6.232  90.171 115.151  0.00  0.00     0.382 C 
ATOM     23  O   LIG d   1      -5.343  89.338 114.852  0.00  0.00    -0.241 OA
ATOM     24  O   LIG d   1      -7.359  90.080 114.626  0.00  0.00    -0.241 OA
ENDBRANCH   3  22
TORSDOF 7
ENDMDL
MODEL 6
REMARK VINA RESULT:      -4.4      2.287      4.384
REMARK  7 active torsions:
REMARK  status: ('A' for Active; 'I' for Inactive)
REMARK    1  A    between atoms: C_2  and  C_3 
REMARK    2  A    between atoms: C_3  and  O_6 
REMARK    3  A    between atoms: C_3  and  C_4 
REMARK    4  A    between atoms: C_7  and  O_6 
REMARK    5  A    between atoms: C_9  and  C_10 
REMARK    6  A    between atoms: N_15  and  C_14 
REMARK    7  A    between atoms: N_20  and  C_19 
REMARK       I    between atoms: C_22  and  N_20 
ROOT
ATOM      1  C   LIG d   1      -4.597  93.185 118.506  0.00  0.00     0.161 C 
ATOM      2  C   LIG d   1      -4.878  92.069 117.700  0.00  0.00     0.016 C 
ATOM      3  C   LIG d   1      -6.131  91.851 117.083  0.00  0.00     0.038 C 
ATOM      4  C   LIG d   1      -7.148  92.817 117.108  0.00  0.00     0.028 C 
ATOM      5  C   LIG d   1      -7.087  93.730 118.328  0.00  0.00    -0.047 C 
ATOM      6  C   LIG d   1      -5.657  94.304 118.453  0.00  0.00     0.091 C 
ENDROOT
BRANCH   1   7
ATOM      7  O   LIG d   1      -3.296  93.711 118.176  0.00  0.00    -0.368 OA
BRANCH   7   8
ATOM      8  C   LIG d   1      -2.274  93.568 119.193  0.00  0.00     0.119 C 
BRANCH   8   9
ATOM      9  C   LIG d   1      -1.139  92.716 118.592  0.00  0.00     0.028 C 
ATOM     10  C   LIG d   1       0.088  93.559 118.207  0.00  0.00     0.006 C 
ENDBRANCH   8   9
BRANCH   8  11
ATOM     11  C   LIG d   1      -2.790  92.769 120.393  0.00  0.00     0.028 C 
ATOM     12  C   LIG d   1      -2.095  91.406 120.544  0.00  0.00     0.006 C 
ENDBRANCH   8  11
ENDBRANCH   7   8
ENDBRANCH   1   7
BRANCH   6  13
ATOM     13  N   LIG d   1      -5.488  95.142 119.669  0.00  0.00    -0.311 N 
ATOM     14  C   LIG d   1      -5.395  96.470 119.638  0.00  0.00     0.210 C 
ATOM     15  C   LIG d   1      -5.204  97.138 121.003  0.00  0.00     0.109 C 
ATOM     16  O   LIG d   1      -5.485  97.161 118.612  0.00  0.00    -0.276 OA
ATOM     17  H   LIG d   1      -5.436  94.665 120.548  0.00  0.00     0.149 HD
ENDBRANCH   6  13
BRANCH   5  18
ATOM     18  N   LIG d   1      -8.116  94.772 118.156  0.00  0.00     0.381 N 
ATOM     19  H   LIG d   1      -8.638  94.875 119.003  0.00  0.00    -0.090 HD
ATOM     20  H   LIG d   1      -8.748  94.489 117.428  0.00  0.00    -0.090 HD
ATOM     21  H   LIG d   1      -7.687  95.639 117.915  0.00  0.00    -0.090 HD
ENDBRANCH   5  18
BRANCH   3  22
ATOM     22  C   LIG d   1      -6.391  90.637 116.465  0.00  0.00     0.382 C 
ATOM     23  O   LIG d   1      -7.541  90.139 116.521  0.00  0.00    -0.241 OA
ATOM     24  O   LIG d   1      -5.479  90.012 115.891  0.00  0.00    -0.241 OA
ENDBRANCH   3  22
TORSDOF 7
ENDMDL
MODEL 7
REMARK VINA RESULT:      -4.4      1.430      1.595
REMARK  7 active torsions:
REMARK  status: ('A' for Active; 'I' for Inactive)
REMARK    1  A    between atoms: C_2  and  C_3 
REMARK    2  A    between atoms: C_3  and  O_6 
REMARK    3  A    between atoms: C_3  and  C_4 
REMARK    4  A    between atoms: C_7  and  O_6 
REMARK    5  A    between atoms: C_9  and  C_10 
REMARK    6  A    between atoms: N_15  and  C_14 
REMARK    7  A    between atoms: N_20  and  C_19 
REMARK       I    between atoms: C_22  and  N_20 
ROOT
ATOM      1  C   LIG d   1      -4.598  93.334 118.203  0.00  0.00     0.161 C 
ATOM      2  C   LIG d   1      -5.685  92.748 117.533  0.00  0.00     0.016 C 
ATOM      3  C   LIG d   1      -5.672  91.424 117.038  0.00  0.00     0.038 C 
ATOM      4  C   LIG d   1      -4.619  90.539 117.316  0.00  0.00     0.028 C 
ATOM      5  C   LIG d   1      -3.286  91.240 117.554  0.00  0.00    -0.047 C 
ATOM      6  C   LIG d   1      -3.484  92.349 118.613  0.00  0.00     0.091 C 
ENDROOT
BRANCH   1   7
ATOM      7  O   LIG d   1      -5.070  94.064 119.353  0.00  0.00    -0.368 OA
BRANCH   7   8
ATOM      8  C   LIG d   1      -6.502  94.266 119.437  0.00  0.00     0.119 C 
BRANCH   8   9
ATOM      9  C   LIG d   1      -6.757  95.785 119.412  0.00  0.00     0.028 C 
ATOM     10  C   LIG d   1      -7.876  96.208 120.379  0.00  0.00     0.006 C 
ENDBRANCH   8   9
BRANCH   8  11
ATOM     11  C   LIG d   1      -7.055  93.784 120.781  0.00  0.00     0.028 C 
ATOM     12  C   LIG d   1      -6.287  92.576 121.343  0.00  0.00     0.006 C 
ENDBRANCH   8  11
ENDBRANCH   7   8
ENDBRANCH   1   7
BRANCH   6  13
ATOM     13  N   LIG d   1      -2.247  93.140 118.844  0.00  0.00    -0.311 N 
ATOM     14  C   LIG d   1      -1.611  93.182 120.013  0.00  0.00     0.210 C 
ATOM     15  C   LIG d   1      -0.366  94.074 120.041  0.00  0.00     0.109 C 
ATOM     16  O   LIG d   1      -1.941  92.539 121.021  0.00  0.00    -0.276 OA
ATOM     17  H   LIG d   1      -1.891  93.667 118.070  0.00  0.00     0.149 HD
ENDBRANCH   6  13
BRANCH   5  18
ATOM     18  N   LIG d   1      -2.310  90.214 117.967  0.00  0.00     0.381 N 
ATOM     19  H   LIG d   1      -1.866  90.492 118.819  0.00  0.00    -0.090 HD
ATOM     20  H   LIG d   1      -1.605  90.131 117.256  0.00  0.00    -0.090 HD
ATOM     21  H   LIG d   1      -2.769  89.339 118.094  0.00  0.00    -0.090 HD
ENDBRANCH   5  18
BRANCH   3  22
ATOM     22  C   LIG d   1      -6.703  90.985 116.223  0.00  0.00     0.382 C 
ATOM     23  O   LIG d   1      -7.284  91.791 115.457  0.00  0.00    -0.241 OA
ATOM     24  O   LIG d   1      -7.090  89.802 116.275  0.00  0.00    -0.241 OA
ENDBRANCH   3  22
TORSDOF 7
ENDMDL
MODEL 8
REMARK VINA RESULT:      -4.3      1.933      2.795
REMARK  7 active torsions:
REMARK  status: ('A' for Active; 'I' for Inactive)
REMARK    1  A    between atoms: C_2  and  C_3 
REMARK    2  A    between atoms: C_3  and  O_6 
REMARK    3  A    between atoms: C_3  and  C_4 
REMARK    4  A    between atoms: C_7  and  O_6 
REMARK    5  A    between atoms: C_9  and  C_10 
REMARK    6  A    between atoms: N_15  and  C_14 
REMARK    7  A    between atoms: N_20  and  C_19 
REMARK       I    between atoms: C_22  and  N_20 
ROOT
ATOM      1  C   LIG d   1      -3.590  93.275 117.885  0.00  0.00     0.161 C 
ATOM      2  C   LIG d   1      -4.844  92.793 117.474  0.00  0.00     0.016 C 
ATOM      3  C   LIG d   1      -5.123  91.421 117.275  0.00  0.00     0.038 C 
ATOM      4  C   LIG d   1      -4.203  90.419 117.620  0.00  0.00     0.028 C 
ATOM      5  C   LIG d   1      -2.751  90.883 117.560  0.00  0.00    -0.047 C 
ATOM      6  C   LIG d   1      -2.608  92.190 118.373  0.00  0.00     0.091 C 
ENDROOT
BRANCH   1   7
ATOM      7  O   LIG d   1      -3.763  94.286 118.897  0.00  0.00    -0.368 OA
BRANCH   7   8
ATOM      8  C   LIG d   1      -3.833  93.814 120.265  0.00  0.00     0.119 C 
BRANCH   8   9
ATOM      9  C   LIG d   1      -5.262  94.083 120.775  0.00  0.00     0.028 C 
ATOM     10  C   LIG d   1      -6.071  92.788 120.965  0.00  0.00     0.006 C 
ENDBRANCH   8   9
BRANCH   8  11
ATOM     11  C   LIG d   1      -2.915  94.627 121.183  0.00  0.00     0.028 C 
ATOM     12  C   LIG d   1      -2.112  95.696 120.427  0.00  0.00     0.006 C 
ENDBRANCH   8  11
ENDBRANCH   7   8
ENDBRANCH   1   7
BRANCH   6  13
ATOM     13  N   LIG d   1      -1.236  92.757 118.297  0.00  0.00    -0.311 N 
ATOM     14  C   LIG d   1      -0.313  92.571 119.239  0.00  0.00     0.210 C 
ATOM     15  C   LIG d   1       1.029  93.261 118.973  0.00  0.00     0.109 C 
ATOM     16  O   LIG d   1      -0.467  91.875 120.253  0.00  0.00    -0.276 OA
ATOM     17  H   LIG d   1      -1.015  93.310 117.492  0.00  0.00     0.149 HD
ENDBRANCH   6  13
BRANCH   5  18
ATOM     18  N   LIG d   1      -1.911  89.786 118.075  0.00  0.00     0.381 N 
ATOM     19  H   LIG d   1      -1.371  89.394 117.330  0.00  0.00    -0.090 HD
ATOM     20  H   LIG d   1      -2.507  89.066 118.445  0.00  0.00    -0.090 HD
ATOM     21  H   LIG d   1      -1.307  90.126 118.790  0.00  0.00    -0.090 HD
ENDBRANCH   5  18
BRANCH   3  22
ATOM     22  C   LIG d   1      -6.319  91.041 116.686  0.00  0.00     0.382 C 
ATOM     23  O   LIG d   1      -6.424  89.912 116.149  0.00  0.00    -0.241 OA
ATOM     24  O   LIG d   1      -7.282  91.831 116.646  0.00  0.00    -0.241 OA
ENDBRANCH   3  22
TORSDOF 7
ENDMDL
MODEL 9
REMARK VINA RESULT:      -4.3      2.581      4.071
REMARK  7 active torsions:
REMARK  status: ('A' for Active; 'I' for Inactive)
REMARK    1  A    between atoms: C_2  and  C_3 
REMARK    2  A    between atoms: C_3  and  O_6 
REMARK    3  A    between atoms: C_3  and  C_4 
REMARK    4  A    between atoms: C_7  and  O_6 
REMARK    5  A    between atoms: C_9  and  C_10 
REMARK    6  A    between atoms: N_15  and  C_14 
REMARK    7  A    between atoms: N_20  and  C_19 
REMARK       I    between atoms: C_22  and  N_20 
ROOT
ATOM      1  C   LIG d   1      -3.430  92.599 117.635  0.00  0.00     0.161 C 
ATOM      2  C   LIG d   1      -3.385  91.201 117.760  0.00  0.00     0.016 C 
ATOM      3  C   LIG d   1      -3.116  90.537 118.980  0.00  0.00     0.038 C 
ATOM      4  C   LIG d   1      -3.023  91.230 120.196  0.00  0.00     0.028 C 
ATOM      5  C   LIG d   1      -2.561  92.675 120.036  0.00  0.00    -0.047 C 
ATOM      6  C   LIG d   1      -3.442  93.369 118.972  0.00  0.00     0.091 C 
ENDROOT
BRANCH   1   7
ATOM      7  O   LIG d   1      -4.562  92.981 116.828  0.00  0.00    -0.368 OA
BRANCH   7   8
ATOM      8  C   LIG d   1      -5.701  92.086 116.865  0.00  0.00     0.119 C 
BRANCH   8   9
ATOM      9  C   LIG d   1      -6.277  92.011 115.437  0.00  0.00     0.028 C 
ATOM     10  C   LIG d   1      -6.165  90.600 114.834  0.00  0.00     0.006 C 
ENDBRANCH   8   9
BRANCH   8  11
ATOM     11  C   LIG d   1      -6.831  92.658 117.727  0.00  0.00     0.028 C 
ATOM     12  C   LIG d   1      -6.782  94.190 117.834  0.00  0.00     0.006 C 
ENDBRANCH   8  11
ENDBRANCH   7   8
ENDBRANCH   1   7
BRANCH   6  13
ATOM     13  N   LIG d   1      -3.003  94.761 118.694  0.00  0.00    -0.311 N 
ATOM     14  C   LIG d   1      -3.478  95.823 119.343  0.00  0.00     0.210 C 
ATOM     15  C   LIG d   1      -2.906  97.169 118.887  0.00  0.00     0.109 C 
ATOM     16  O   LIG d   1      -4.294  95.775 120.276  0.00  0.00    -0.276 OA
ATOM     17  H   LIG d   1      -2.320  94.889 117.973  0.00  0.00     0.149 HD
ENDBRANCH   6  13
BRANCH   5  18
ATOM     18  N   LIG d   1      -2.641  93.317 121.362  0.00  0.00     0.381 N 
ATOM     19  H   LIG d   1      -3.597  93.376 121.652  0.00  0.00    -0.090 HD
ATOM     20  H   LIG d   1      -2.274  94.250 121.294  0.00  0.00    -0.090 HD
ATOM     21  H   LIG d   1      -2.116  92.794 122.027  0.00  0.00    -0.090 HD
ENDBRANCH   5  18
BRANCH   3  22
ATOM     22  C   LIG d   1      -2.897  89.168 118.983  0.00  0.00     0.382 C 
ATOM     23  O   LIG d   1      -2.988  88.516 117.915  0.00  0.00    -0.241 OA
ATOM     24  O   LIG d   1      -2.653  88.570 120.048  0.00  0.00    -0.241 OA
ENDBRANCH   3  22
TORSDOF 7
ENDMDL
