MODEL 1
REMARK VINA RESULT:      -5.4      0.000      0.000
REMARK  7 active torsions:
REMARK  status: ('A' for Active; 'I' for Inactive)
REMARK    1  A    between atoms: C_2  and  C_3 
REMARK    2  A    between atoms: C_3  and  O_6 
REMARK    3  A    between atoms: C_3  and  C_4 
REMARK    4  A    between atoms: C_7  and  O_6 
REMARK    5  A    between atoms: C_9  and  C_10 
REMARK    6  A    between atoms: N_15  and  C_14 
REMARK    7  A    between atoms: N_20  and  C_19 
REMARK       I    between atoms: C_22  and  N_20 
ROOT
ATOM      1  C   LIG d   1      -6.466  93.688 118.096  0.00  0.00     0.161 C 
ATOM      2  C   LIG d   1      -7.096  92.889 117.128  0.00  0.00     0.016 C 
ATOM      3  C   LIG d   1      -6.441  91.848 116.431  0.00  0.00     0.038 C 
ATOM      4  C   LIG d   1      -5.142  91.434 116.765  0.00  0.00     0.028 C 
ATOM      5  C   LIG d   1      -4.296  92.540 117.386  0.00  0.00    -0.047 C 
ATOM      6  C   LIG d   1      -5.082  93.179 118.553  0.00  0.00     0.091 C 
ENDROOT
BRANCH   1   7
ATOM      7  O   LIG d   1      -7.337  93.859 119.231  0.00  0.00    -0.368 OA
BRANCH   7   8
ATOM      8  C   LIG d   1      -7.911  95.179 119.401  0.00  0.00     0.119 C 
BRANCH   8   9
ATOM      9  C   LIG d   1      -9.405  95.084 119.033  0.00  0.00     0.028 C 
ATOM     10  C   LIG d   1     -10.289  94.760 120.249  0.00  0.00     0.006 C 
ENDBRANCH   8   9
BRANCH   8  11
ATOM     11  C   LIG d   1      -7.312  96.179 118.408  0.00  0.00     0.028 C 
ATOM     12  C   LIG d   1      -6.544  97.317 119.099  0.00  0.00     0.006 C 
ENDBRANCH   8  11
ENDBRANCH   7   8
ENDBRANCH   1   7
BRANCH   6  13
ATOM     13  N   LIG d   1      -4.360  94.326 119.163  0.00  0.00    -0.311 N 
ATOM     14  C   LIG d   1      -4.216  94.487 120.477  0.00  0.00     0.210 C 
ATOM     15  C   LIG d   1      -3.455  95.750 120.894  0.00  0.00     0.109 C 
ATOM     16  O   LIG d   1      -4.619  93.688 121.336  0.00  0.00    -0.276 OA
ATOM     17  H   LIG d   1      -3.975  95.007 118.538  0.00  0.00     0.149 HD
ENDBRANCH   6  13
BRANCH   5  18
ATOM     18  N   LIG d   1      -3.018  91.938 117.812  0.00  0.00     0.381 N 
ATOM     19  H   LIG d   1      -2.308  92.137 117.135  0.00  0.00    -0.090 HD
ATOM     20  H   LIG d   1      -3.131  90.941 117.866  0.00  0.00    -0.090 HD
ATOM     21  H   LIG d   1      -2.750  92.298 118.701  0.00  0.00    -0.090 HD
ENDBRANCH   5  18
BRANCH   3  22
ATOM     22  C   LIG d   1      -7.071  91.235 115.359  0.00  0.00     0.382 C 
ATOM     23  O   LIG d   1      -8.059  91.785 114.814  0.00  0.00    -0.241 OA
ATOM     24  O   LIG d   1      -6.693  90.118 114.958  0.00  0.00    -0.241 OA
ENDBRANCH   3  22
TORSDOF 7
ENDMDL
MODEL 2
REMARK VINA RESULT:      -5.3      0.803      1.688
REMARK  7 active torsions:
REMARK  status: ('A' for Active; 'I' for Inactive)
REMARK    1  A    between atoms: C_2  and  C_3 
REMARK    2  A    between atoms: C_3  and  O_6 
REMARK    3  A    between atoms: C_3  and  C_4 
REMARK    4  A    between atoms: C_7  and  O_6 
REMARK    5  A    between atoms: C_9  and  C_10 
REMARK    6  A    between atoms: N_15  and  C_14 
REMARK    7  A    between atoms: N_20  and  C_19 
REMARK       I    between atoms: C_22  and  N_20 
ROOT
ATOM      1  C   LIG d   1      -6.397  93.660 118.003  0.00  0.00     0.161 C 
ATOM      2  C   LIG d   1      -7.048  92.870 117.041  0.00  0.00     0.016 C 
ATOM      3  C   LIG d   1      -6.427  91.791 116.370  0.00  0.00     0.038 C 
ATOM      4  C   LIG d   1      -5.151  91.332 116.728  0.00  0.00     0.028 C 
ATOM      5  C   LIG d   1      -4.268  92.413 117.341  0.00  0.00    -0.047 C 
ATOM      6  C   LIG d   1      -5.042  93.104 118.487  0.00  0.00     0.091 C 
ENDROOT
BRANCH   1   7
ATOM      7  O   LIG d   1      -7.275  93.886 119.124  0.00  0.00    -0.368 OA
BRANCH   7   8
ATOM      8  C   LIG d   1      -7.724  95.250 119.317  0.00  0.00     0.119 C 
BRANCH   8   9
ATOM      9  C   LIG d   1      -7.752  95.518 120.834  0.00  0.00     0.028 C 
ATOM     10  C   LIG d   1      -6.931  94.488 121.627  0.00  0.00     0.006 C 
ENDBRANCH   8   9
BRANCH   8  11
ATOM     11  C   LIG d   1      -9.170  95.432 118.846  0.00  0.00     0.028 C 
ATOM     12  C   LIG d   1     -10.193  94.807 119.807  0.00  0.00     0.006 C 
ENDBRANCH   8  11
ENDBRANCH   7   8
ENDBRANCH   1   7
BRANCH   6  13
ATOM     13  N   LIG d   1      -4.281  94.231 119.086  0.00  0.00    -0.311 N 
ATOM     14  C   LIG d   1      -3.522  94.108 120.173  0.00  0.00     0.210 C 
ATOM     15  C   LIG d   1      -2.840  95.400 120.636  0.00  0.00     0.109 C 
ATOM     16  O   LIG d   1      -3.324  93.045 120.780  0.00  0.00    -0.276 OA
ATOM     17  H   LIG d   1      -4.360  95.124 118.638  0.00  0.00     0.149 HD
ENDBRANCH   6  13
BRANCH   5  18
ATOM     18  N   LIG d   1      -3.021  91.767 117.793  0.00  0.00     0.381 N 
ATOM     19  H   LIG d   1      -2.510  91.427 117.002  0.00  0.00    -0.090 HD
ATOM     20  H   LIG d   1      -3.254  90.984 118.378  0.00  0.00    -0.090 HD
ATOM     21  H   LIG d   1      -2.464  92.418 118.302  0.00  0.00    -0.090 HD
ENDBRANCH   5  18
BRANCH   3  22
ATOM     22  C   LIG d   1      -7.069  91.186 115.301  0.00  0.00     0.382 C 
ATOM     23  O   LIG d   1      -6.659  90.082 114.867  0.00  0.00    -0.241 OA
ATOM     24  O   LIG d   1      -8.026  91.750 114.736  0.00  0.00    -0.241 OA
ENDBRANCH   3  22
TORSDOF 7
ENDMDL
MODEL 3
REMARK VINA RESULT:      -5.0      2.190      4.708
REMARK  7 active torsions:
REMARK  status: ('A' for Active; 'I' for Inactive)
REMARK    1  A    between atoms: C_2  and  C_3 
REMARK    2  A    between atoms: C_3  and  O_6 
REMARK    3  A    between atoms: C_3  and  C_4 
REMARK    4  A    between atoms: C_7  and  O_6 
REMARK    5  A    between atoms: C_9  and  C_10 
REMARK    6  A    between atoms: N_15  and  C_14 
REMARK    7  A    between atoms: N_20  and  C_19 
REMARK       I    between atoms: C_22  and  N_20 
ROOT
ATOM      1  C   LIG d   1      -4.657  92.141 117.807  0.00  0.00     0.161 C 
ATOM      2  C   LIG d   1      -5.192  91.540 116.655  0.00  0.00     0.016 C 
ATOM      3  C   LIG d   1      -6.490  91.812 116.166  0.00  0.00     0.038 C 
ATOM      4  C   LIG d   1      -7.291  92.825 116.714  0.00  0.00     0.028 C 
ATOM      5  C   LIG d   1      -6.994  93.103 118.184  0.00  0.00    -0.047 C 
ATOM      6  C   LIG d   1      -5.474  93.330 118.354  0.00  0.00     0.091 C 
ENDROOT
BRANCH   1   7
ATOM      7  O   LIG d   1      -3.294  92.540 117.562  0.00  0.00    -0.368 OA
BRANCH   7   8
ATOM      8  C   LIG d   1      -2.296  91.979 118.450  0.00  0.00     0.119 C 
BRANCH   8   9
ATOM      9  C   LIG d   1      -1.165  93.016 118.588  0.00  0.00     0.028 C 
ATOM     10  C   LIG d   1      -1.313  94.182 117.597  0.00  0.00     0.006 C 
ENDBRANCH   8   9
BRANCH   8  11
ATOM     11  C   LIG d   1      -1.638  90.739 117.837  0.00  0.00     0.028 C 
ATOM     12  C   LIG d   1      -2.260  89.426 118.338  0.00  0.00     0.006 C 
ENDBRANCH   8  11
ENDBRANCH   7   8
ENDBRANCH   1   7
BRANCH   6  13
ATOM     13  N   LIG d   1      -5.086  93.526 119.775  0.00  0.00    -0.311 N 
ATOM     14  C   LIG d   1      -4.374  94.566 120.204  0.00  0.00     0.210 C 
ATOM     15  C   LIG d   1      -4.066  94.565 121.705  0.00  0.00     0.109 C 
ATOM     16  O   LIG d   1      -3.996  95.507 119.490  0.00  0.00    -0.276 OA
ATOM     17  H   LIG d   1      -5.378  92.825 120.429  0.00  0.00     0.149 HD
ENDBRANCH   6  13
BRANCH   5  18
ATOM     18  N   LIG d   1      -7.801  94.270 118.588  0.00  0.00     0.381 N 
ATOM     19  H   LIG d   1      -7.213  94.957 119.016  0.00  0.00    -0.090 HD
ATOM     20  H   LIG d   1      -8.483  93.974 119.264  0.00  0.00    -0.090 HD
ATOM     21  H   LIG d   1      -8.257  94.661 117.794  0.00  0.00    -0.090 HD
ENDBRANCH   5  18
BRANCH   3  22
ATOM     22  C   LIG d   1      -7.014  91.040 115.141  0.00  0.00     0.382 C 
ATOM     23  O   LIG d   1      -6.429  89.989 114.785  0.00  0.00    -0.241 OA
ATOM     24  O   LIG d   1      -8.042  91.404 114.537  0.00  0.00    -0.241 OA
ENDBRANCH   3  22
TORSDOF 7
ENDMDL
MODEL 4
REMARK VINA RESULT:      -4.5      5.542      8.017
REMARK  7 active torsions:
REMARK  status: ('A' for Active; 'I' for Inactive)
REMARK    1  A    between atoms: C_2  and  C_3 
REMARK    2  A    between atoms: C_3  and  O_6 
REMARK    3  A    between atoms: C_3  and  C_4 
REMARK    4  A    between atoms: C_7  and  O_6 
REMARK    5  A    between atoms: C_9  and  C_10 
REMARK    6  A    between atoms: N_15  and  C_14 
REMARK    7  A    between atoms: N_20  and  C_19 
REMARK       I    between atoms: C_22  and  N_20 
ROOT
ATOM      1  C   LIG d   1      -0.203  91.167 117.656  0.00  0.00     0.161 C 
ATOM      2  C   LIG d   1       1.171  91.194 117.367  0.00  0.00     0.016 C 
ATOM      3  C   LIG d   1       1.915  92.389 117.233  0.00  0.00     0.038 C 
ATOM      4  C   LIG d   1       1.362  93.643 117.531  0.00  0.00     0.028 C 
ATOM      5  C   LIG d   1      -0.149  93.701 117.336  0.00  0.00    -0.047 C 
ATOM      6  C   LIG d   1      -0.799  92.521 118.094  0.00  0.00     0.091 C 
ENDROOT
BRANCH   1   7
ATOM      7  O   LIG d   1      -0.474  90.156 118.647  0.00  0.00    -0.368 OA
BRANCH   7   8
ATOM      8  C   LIG d   1      -1.269  89.027 118.207  0.00  0.00     0.119 C 
BRANCH   8   9
ATOM      9  C   LIG d   1      -2.422  88.852 119.213  0.00  0.00     0.028 C 
ATOM     10  C   LIG d   1      -2.287  89.784 120.429  0.00  0.00     0.006 C 
ENDBRANCH   8   9
BRANCH   8  11
ATOM     11  C   LIG d   1      -0.469  87.723 118.275  0.00  0.00     0.028 C 
ATOM     12  C   LIG d   1       0.399  87.490 117.028  0.00  0.00     0.006 C 
ENDBRANCH   8  11
ENDBRANCH   7   8
ENDBRANCH   1   7
BRANCH   6  13
ATOM     13  N   LIG d   1      -2.269  92.455 117.886  0.00  0.00    -0.311 N 
ATOM     14  C   LIG d   1      -3.152  93.020 118.707  0.00  0.00     0.210 C 
ATOM     15  C   LIG d   1      -4.620  92.814 118.319  0.00  0.00     0.109 C 
ATOM     16  O   LIG d   1      -2.858  93.700 119.702  0.00  0.00    -0.276 OA
ATOM     17  H   LIG d   1      -2.594  91.949 117.085  0.00  0.00     0.149 HD
ENDBRANCH   6  13
BRANCH   5  18
ATOM     18  N   LIG d   1      -0.610  95.019 117.813  0.00  0.00     0.381 N 
ATOM     19  H   LIG d   1      -1.363  95.342 117.239  0.00  0.00    -0.090 HD
ATOM     20  H   LIG d   1       0.148  95.675 117.738  0.00  0.00    -0.090 HD
ATOM     21  H   LIG d   1      -0.909  94.953 118.760  0.00  0.00    -0.090 HD
ENDBRANCH   5  18
BRANCH   3  22
ATOM     22  C   LIG d   1       3.217  92.338 116.759  0.00  0.00     0.382 C 
ATOM     23  O   LIG d   1       4.005  93.287 116.988  0.00  0.00    -0.241 OA
ATOM     24  O   LIG d   1       3.600  91.377 116.066  0.00  0.00    -0.241 OA
ENDBRANCH   3  22
TORSDOF 7
ENDMDL
MODEL 5
REMARK VINA RESULT:      -4.4      1.765      2.035
REMARK  7 active torsions:
REMARK  status: ('A' for Active; 'I' for Inactive)
REMARK    1  A    between atoms: C_2  and  C_3 
REMARK    2  A    between atoms: C_3  and  O_6 
REMARK    3  A    between atoms: C_3  and  C_4 
REMARK    4  A    between atoms: C_7  and  O_6 
REMARK    5  A    between atoms: C_9  and  C_10 
REMARK    6  A    between atoms: N_15  and  C_14 
REMARK    7  A    between atoms: N_20  and  C_19 
REMARK       I    between atoms: C_22  and  N_20 
ROOT
ATOM      1  C   LIG d   1      -5.365  93.689 119.120  0.00  0.00     0.161 C 
ATOM      2  C   LIG d   1      -6.271  93.288 118.125  0.00  0.00     0.016 C 
ATOM      3  C   LIG d   1      -5.944  92.376 117.095  0.00  0.00     0.038 C 
ATOM      4  C   LIG d   1      -4.724  91.683 117.079  0.00  0.00     0.028 C 
ATOM      5  C   LIG d   1      -3.593  92.432 117.775  0.00  0.00    -0.047 C 
ATOM      6  C   LIG d   1      -4.065  92.859 119.183  0.00  0.00     0.091 C 
ENDROOT
BRANCH   1   7
ATOM      7  O   LIG d   1      -6.019  93.693 120.404  0.00  0.00    -0.368 OA
BRANCH   7   8
ATOM      8  C   LIG d   1      -6.283  94.996 120.980  0.00  0.00     0.119 C 
BRANCH   8   9
ATOM      9  C   LIG d   1      -7.807  95.220 120.940  0.00  0.00     0.028 C 
ATOM     10  C   LIG d   1      -8.589  94.055 121.571  0.00  0.00     0.006 C 
ENDBRANCH   8   9
BRANCH   8  11
ATOM     11  C   LIG d   1      -5.686  96.116 120.123  0.00  0.00     0.028 C 
ATOM     12  C   LIG d   1      -4.615  96.929 120.867  0.00  0.00     0.006 C 
ENDBRANCH   8  11
ENDBRANCH   7   8
ENDBRANCH   1   7
BRANCH   6  13
ATOM     13  N   LIG d   1      -3.048  93.670 119.901  0.00  0.00    -0.311 N 
ATOM     14  C   LIG d   1      -2.243  94.540 119.294  0.00  0.00     0.210 C 
ATOM     15  C   LIG d   1      -1.253  95.258 120.217  0.00  0.00     0.109 C 
ATOM     16  O   LIG d   1      -2.276  94.809 118.084  0.00  0.00    -0.276 OA
ATOM     17  H   LIG d   1      -2.974  93.537 120.891  0.00  0.00     0.149 HD
ENDBRANCH   6  13
BRANCH   5  18
ATOM     18  N   LIG d   1      -2.419  91.538 117.805  0.00  0.00     0.381 N 
ATOM     19  H   LIG d   1      -1.859  91.742 118.608  0.00  0.00    -0.090 HD
ATOM     20  H   LIG d   1      -1.865  91.702 116.983  0.00  0.00    -0.090 HD
ATOM     21  H   LIG d   1      -2.715  90.587 117.830  0.00  0.00    -0.090 HD
ENDBRANCH   5  18
BRANCH   3  22
ATOM     22  C   LIG d   1      -6.827  92.180 116.044  0.00  0.00     0.382 C 
ATOM     23  O   LIG d   1      -6.405  92.180 114.862  0.00  0.00    -0.241 OA
ATOM     24  O   LIG d   1      -8.046  92.049 116.260  0.00  0.00    -0.241 OA
ENDBRANCH   3  22
TORSDOF 7
ENDMDL
MODEL 6
REMARK VINA RESULT:      -4.2      5.565      7.598
REMARK  7 active torsions:
REMARK  status: ('A' for Active; 'I' for Inactive)
REMARK    1  A    between atoms: C_2  and  C_3 
REMARK    2  A    between atoms: C_3  and  O_6 
REMARK    3  A    between atoms: C_3  and  C_4 
REMARK    4  A    between atoms: C_7  and  O_6 
REMARK    5  A    between atoms: C_9  and  C_10 
REMARK    6  A    between atoms: N_15  and  C_14 
REMARK    7  A    between atoms: N_20  and  C_19 
REMARK       I    between atoms: C_22  and  N_20 
ROOT
ATOM      1  C   LIG d   1       0.369  91.857 119.191  0.00  0.00     0.161 C 
ATOM      2  C   LIG d   1       1.402  92.345 118.373  0.00  0.00     0.016 C 
ATOM      3  C   LIG d   1       1.967  91.605 117.309  0.00  0.00     0.038 C 
ATOM      4  C   LIG d   1       1.431  90.378 116.892  0.00  0.00     0.028 C 
ATOM      5  C   LIG d   1       0.715  89.620 118.005  0.00  0.00    -0.047 C 
ATOM      6  C   LIG d   1      -0.304  90.566 118.681  0.00  0.00     0.091 C 
ENDROOT
BRANCH   1   7
ATOM      7  O   LIG d   1      -0.617  92.888 119.399  0.00  0.00    -0.368 OA
BRANCH   7   8
ATOM      8  C   LIG d   1      -1.566  93.089 118.323  0.00  0.00     0.119 C 
BRANCH   8   9
ATOM      9  C   LIG d   1      -1.500  94.574 117.919  0.00  0.00     0.028 C 
ATOM     10  C   LIG d   1      -0.626  94.807 116.675  0.00  0.00     0.006 C 
ENDBRANCH   8   9
BRANCH   8  11
ATOM     11  C   LIG d   1      -3.004  92.860 118.798  0.00  0.00     0.028 C 
ATOM     12  C   LIG d   1      -3.917  92.310 117.691  0.00  0.00     0.006 C 
ENDBRANCH   8  11
ENDBRANCH   7   8
ENDBRANCH   1   7
BRANCH   6  13
ATOM     13  N   LIG d   1      -0.988  89.929 119.837  0.00  0.00    -0.311 N 
ATOM     14  C   LIG d   1      -2.147  89.280 119.736  0.00  0.00     0.210 C 
ATOM     15  C   LIG d   1      -2.688  88.716 121.054  0.00  0.00     0.109 C 
ATOM     16  O   LIG d   1      -2.761  89.091 118.676  0.00  0.00    -0.276 OA
ATOM     17  H   LIG d   1      -0.543  90.008 120.730  0.00  0.00     0.149 HD
ENDBRANCH   6  13
BRANCH   5  18
ATOM     18  N   LIG d   1       0.087  88.429 117.402  0.00  0.00     0.381 N 
ATOM     19  H   LIG d   1       0.775  87.716 117.266  0.00  0.00    -0.090 HD
ATOM     20  H   LIG d   1      -0.289  88.680 116.505  0.00  0.00    -0.090 HD
ATOM     21  H   LIG d   1      -0.640  88.091 117.993  0.00  0.00    -0.090 HD
ENDBRANCH   5  18
BRANCH   3  22
ATOM     22  C   LIG d   1       3.108  92.074 116.675  0.00  0.00     0.382 C 
ATOM     23  O   LIG d   1       3.528  93.231 116.917  0.00  0.00    -0.241 OA
ATOM     24  O   LIG d   1       3.695  91.372 115.830  0.00  0.00    -0.241 OA
ENDBRANCH   3  22
TORSDOF 7
ENDMDL
MODEL 7
REMARK VINA RESULT:      -4.2      3.417      5.525
REMARK  7 active torsions:
REMARK  status: ('A' for Active; 'I' for Inactive)
REMARK    1  A    between atoms: C_2  and  C_3 
REMARK    2  A    between atoms: C_3  and  O_6 
REMARK    3  A    between atoms: C_3  and  C_4 
REMARK    4  A    between atoms: C_7  and  O_6 
REMARK    5  A    between atoms: C_9  and  C_10 
REMARK    6  A    between atoms: N_15  and  C_14 
REMARK    7  A    between atoms: N_20  and  C_19 
REMARK       I    between atoms: C_22  and  N_20 
ROOT
ATOM      1  C   LIG d   1      -2.673  92.924 119.250  0.00  0.00     0.161 C 
ATOM      2  C   LIG d   1      -2.575  94.284 118.911  0.00  0.00     0.016 C 
ATOM      3  C   LIG d   1      -1.613  94.794 118.010  0.00  0.00     0.038 C 
ATOM      4  C   LIG d   1      -0.773  93.952 117.266  0.00  0.00     0.028 C 
ATOM      5  C   LIG d   1      -0.494  92.618 117.951  0.00  0.00    -0.047 C 
ATOM      6  C   LIG d   1      -1.838  91.975 118.365  0.00  0.00     0.091 C 
ENDROOT
BRANCH   1   7
ATOM      7  O   LIG d   1      -4.056  92.519 119.253  0.00  0.00    -0.368 OA
BRANCH   7   8
ATOM      8  C   LIG d   1      -4.904  93.139 118.256  0.00  0.00     0.119 C 
BRANCH   8   9
ATOM      9  C   LIG d   1      -6.244  93.481 118.936  0.00  0.00     0.028 C 
ATOM     10  C   LIG d   1      -6.190  94.815 119.701  0.00  0.00     0.006 C 
ENDBRANCH   8   9
BRANCH   8  11
ATOM     11  C   LIG d   1      -5.257  92.157 117.135  0.00  0.00     0.028 C 
ATOM     12  C   LIG d   1      -6.699  92.322 116.630  0.00  0.00     0.006 C 
ENDBRANCH   8  11
ENDBRANCH   7   8
ENDBRANCH   1   7
BRANCH   6  13
ATOM     13  N   LIG d   1      -1.652  90.707 119.116  0.00  0.00    -0.311 N 
ATOM     14  C   LIG d   1      -2.321  89.588 118.843  0.00  0.00     0.210 C 
ATOM     15  C   LIG d   1      -1.993  88.400 119.752  0.00  0.00     0.109 C 
ATOM     16  O   LIG d   1      -3.133  89.459 117.915  0.00  0.00    -0.276 OA
ATOM     17  H   LIG d   1      -0.989  90.714 119.867  0.00  0.00     0.149 HD
ENDBRANCH   6  13
BRANCH   5  18
ATOM     18  N   LIG d   1       0.278  91.786 117.008  0.00  0.00     0.381 N 
ATOM     19  H   LIG d   1       0.137  92.113 116.073  0.00  0.00    -0.090 HD
ATOM     20  H   LIG d   1      -0.053  90.839 117.064  0.00  0.00    -0.090 HD
ATOM     21  H   LIG d   1       1.247  91.821 117.237  0.00  0.00    -0.090 HD
ENDBRANCH   5  18
BRANCH   3  22
ATOM     22  C   LIG d   1      -1.456  96.165 117.875  0.00  0.00     0.382 C 
ATOM     23  O   LIG d   1      -2.313  96.945 118.358  0.00  0.00    -0.241 OA
ATOM     24  O   LIG d   1      -0.492  96.632 117.239  0.00  0.00    -0.241 OA
ENDBRANCH   3  22
TORSDOF 7
ENDMDL
MODEL 8
REMARK VINA RESULT:      -4.2      6.448      8.904
REMARK  7 active torsions:
REMARK  status: ('A' for Active; 'I' for Inactive)
REMARK    1  A    between atoms: C_2  and  C_3 
REMARK    2  A    between atoms: C_3  and  O_6 
REMARK    3  A    between atoms: C_3  and  C_4 
REMARK    4  A    between atoms: C_7  and  O_6 
REMARK    5  A    between atoms: C_9  and  C_10 
REMARK    6  A    between atoms: N_15  and  C_14 
REMARK    7  A    between atoms: N_20  and  C_19 
REMARK       I    between atoms: C_22  and  N_20 
ROOT
ATOM      1  C   LIG d   1       0.589  90.733 116.751  0.00  0.00     0.161 C 
ATOM      2  C   LIG d   1       1.942  90.474 116.477  0.00  0.00     0.016 C 
ATOM      3  C   LIG d   1       2.993  91.341 116.853  0.00  0.00     0.038 C 
ATOM      4  C   LIG d   1       2.773  92.462 117.669  0.00  0.00     0.028 C 
ATOM      5  C   LIG d   1       1.365  93.035 117.544  0.00  0.00    -0.047 C 
ATOM      6  C   LIG d   1       0.340  91.894 117.737  0.00  0.00     0.091 C 
ENDROOT
BRANCH   1   7
ATOM      7  O   LIG d   1      -0.054  89.531 117.220  0.00  0.00    -0.368 OA
BRANCH   7   8
ATOM      8  C   LIG d   1       0.202  89.169 118.599  0.00  0.00     0.119 C 
BRANCH   8   9
ATOM      9  C   LIG d   1       0.818  87.756 118.600  0.00  0.00     0.028 C 
ATOM     10  C   LIG d   1       0.603  87.022 117.266  0.00  0.00     0.006 C 
ENDBRANCH   8   9
BRANCH   8  11
ATOM     11  C   LIG d   1      -1.101  89.043 119.394  0.00  0.00     0.028 C 
ATOM     12  C   LIG d   1      -2.348  89.039 118.495  0.00  0.00     0.006 C 
ENDBRANCH   8  11
ENDBRANCH   7   8
ENDBRANCH   1   7
BRANCH   6  13
ATOM     13  N   LIG d   1      -1.061  92.353 117.547  0.00  0.00    -0.311 N 
ATOM     14  C   LIG d   1      -1.866  92.685 118.554  0.00  0.00     0.210 C 
ATOM     15  C   LIG d   1      -3.278  93.112 118.139  0.00  0.00     0.109 C 
ATOM     16  O   LIG d   1      -1.536  92.697 119.749  0.00  0.00    -0.276 OA
ATOM     17  H   LIG d   1      -1.401  92.403 116.606  0.00  0.00     0.149 HD
ENDBRANCH   6  13
BRANCH   5  18
ATOM     18  N   LIG d   1       1.231  94.109 118.547  0.00  0.00     0.381 N 
ATOM     19  H   LIG d   1       2.093  94.611 118.622  0.00  0.00    -0.090 HD
ATOM     20  H   LIG d   1       1.027  93.696 119.440  0.00  0.00    -0.090 HD
ATOM     21  H   LIG d   1       0.498  94.730 118.285  0.00  0.00    -0.090 HD
ENDBRANCH   5  18
BRANCH   3  22
ATOM     22  C   LIG d   1       4.276  91.113 116.380  0.00  0.00     0.382 C 
ATOM     23  O   LIG d   1       5.267  91.383 117.100  0.00  0.00    -0.241 OA
ATOM     24  O   LIG d   1       4.455  90.683 115.225  0.00  0.00    -0.241 OA
ENDBRANCH   3  22
TORSDOF 7
ENDMDL
MODEL 9
REMARK VINA RESULT:      -4.1      7.133      9.929
REMARK  7 active torsions:
REMARK  status: ('A' for Active; 'I' for Inactive)
REMARK    1  A    between atoms: C_2  and  C_3 
REMARK    2  A    between atoms: C_3  and  O_6 
REMARK    3  A    between atoms: C_3  and  C_4 
REMARK    4  A    between atoms: C_7  and  O_6 
REMARK    5  A    between atoms: C_9  and  C_10 
REMARK    6  A    between atoms: N_15  and  C_14 
REMARK    7  A    between atoms: N_20  and  C_19 
REMARK       I    between atoms: C_22  and  N_20 
ROOT
ATOM      1  C   LIG d   1       1.093  89.604 117.269  0.00  0.00     0.161 C 
ATOM      2  C   LIG d   1      -0.290  89.581 117.511  0.00  0.00     0.016 C 
ATOM      3  C   LIG d   1      -1.042  90.731 117.845  0.00  0.00     0.038 C 
ATOM      4  C   LIG d   1      -0.483  92.017 117.812  0.00  0.00     0.028 C 
ATOM      5  C   LIG d   1       1.021  92.031 118.066  0.00  0.00    -0.047 C 
ATOM      6  C   LIG d   1       1.699  91.015 117.119  0.00  0.00     0.091 C 
ENDROOT
BRANCH   1   7
ATOM      7  O   LIG d   1       1.400  88.801 116.112  0.00  0.00    -0.368 OA
BRANCH   7   8
ATOM      8  C   LIG d   1       2.171  87.599 116.357  0.00  0.00     0.119 C 
BRANCH   8   9
ATOM      9  C   LIG d   1       3.158  87.435 115.185  0.00  0.00     0.028 C 
ATOM     10  C   LIG d   1       4.581  87.093 115.659  0.00  0.00     0.006 C 
ENDBRANCH   8   9
BRANCH   8  11
ATOM     11  C   LIG d   1       1.284  86.351 116.318  0.00  0.00     0.028 C 
ATOM     12  C   LIG d   1       0.812  85.912 117.713  0.00  0.00     0.006 C 
ENDBRANCH   8  11
ENDBRANCH   7   8
ENDBRANCH   1   7
BRANCH   6  13
ATOM     13  N   LIG d   1       3.162  90.904 117.360  0.00  0.00    -0.311 N 
ATOM     14  C   LIG d   1       4.064  90.847 116.382  0.00  0.00     0.210 C 
ATOM     15  C   LIG d   1       5.517  90.714 116.849  0.00  0.00     0.109 C 
ATOM     16  O   LIG d   1       3.801  90.926 115.172  0.00  0.00    -0.276 OA
ATOM     17  H   LIG d   1       3.465  90.866 118.313  0.00  0.00     0.149 HD
ENDBRANCH   6  13
BRANCH   5  18
ATOM     18  N   LIG d   1       1.494  93.414 117.866  0.00  0.00     0.381 N 
ATOM     19  H   LIG d   1       2.088  93.455 117.063  0.00  0.00    -0.090 HD
ATOM     20  H   LIG d   1       2.029  93.693 118.669  0.00  0.00    -0.090 HD
ATOM     21  H   LIG d   1       0.717  94.026 117.746  0.00  0.00    -0.090 HD
ENDBRANCH   5  18
BRANCH   3  22
ATOM     22  C   LIG d   1      -2.359  90.595 118.257  0.00  0.00     0.382 C 
ATOM     23  O   LIG d   1      -2.874  91.462 119.004  0.00  0.00    -0.241 OA
ATOM     24  O   LIG d   1      -3.024  89.595 117.928  0.00  0.00    -0.241 OA
ENDBRANCH   3  22
TORSDOF 7
ENDMDL
