MODEL 1
REMARK VINA RESULT:      -4.7      0.000      0.000
REMARK  7 active torsions:
REMARK  status: ('A' for Active; 'I' for Inactive)
REMARK    1  A    between atoms: C_2  and  C_3 
REMARK    2  A    between atoms: C_3  and  O_6 
REMARK    3  A    between atoms: C_3  and  C_4 
REMARK    4  A    between atoms: C_7  and  O_6 
REMARK    5  A    between atoms: C_9  and  C_10 
REMARK    6  A    between atoms: N_15  and  C_14 
REMARK    7  A    between atoms: N_20  and  C_19 
REMARK       I    between atoms: C_22  and  N_20 
ROOT
ATOM      1  C   LIG d   1      -5.144  92.190 119.398  0.00  0.00     0.161 C 
ATOM      2  C   LIG d   1      -6.159  91.907 118.469  0.00  0.00     0.016 C 
ATOM      3  C   LIG d   1      -5.947  91.158 117.289  0.00  0.00     0.038 C 
ATOM      4  C   LIG d   1      -4.730  90.509 117.032  0.00  0.00     0.028 C 
ATOM      5  C   LIG d   1      -3.532  91.185 117.690  0.00  0.00    -0.047 C 
ATOM      6  C   LIG d   1      -3.837  91.397 119.190  0.00  0.00     0.091 C 
ENDROOT
BRANCH   1   7
ATOM      7  O   LIG d   1      -5.640  91.997 120.738  0.00  0.00    -0.368 OA
BRANCH   7   8
ATOM      8  C   LIG d   1      -5.804  93.195 121.536  0.00  0.00     0.119 C 
BRANCH   8   9
ATOM      9  C   LIG d   1      -7.317  93.430 121.713  0.00  0.00     0.028 C 
ATOM     10  C   LIG d   1      -7.872  94.454 120.708  0.00  0.00     0.006 C 
ENDBRANCH   8   9
BRANCH   8  11
ATOM     11  C   LIG d   1      -5.285  94.432 120.798  0.00  0.00     0.028 C 
ATOM     12  C   LIG d   1      -4.099  95.098 121.513  0.00  0.00     0.006 C 
ENDBRANCH   8  11
ENDBRANCH   7   8
ENDBRANCH   1   7
BRANCH   6  13
ATOM     13  N   LIG d   1      -2.750  92.129 119.892  0.00  0.00    -0.311 N 
ATOM     14  C   LIG d   1      -1.760  91.522 120.544  0.00  0.00     0.210 C 
ATOM     15  C   LIG d   1      -0.755  92.464 121.214  0.00  0.00     0.109 C 
ATOM     16  O   LIG d   1      -1.600  90.293 120.603  0.00  0.00    -0.276 OA
ATOM     17  H   LIG d   1      -2.785  93.129 119.868  0.00  0.00     0.149 HD
ENDBRANCH   6  13
BRANCH   5  18
ATOM     18  N   LIG d   1      -2.353  90.330 117.455  0.00  0.00     0.381 N 
ATOM     19  H   LIG d   1      -2.356  89.564 118.099  0.00  0.00    -0.090 HD
ATOM     20  H   LIG d   1      -1.522  90.872 117.613  0.00  0.00    -0.090 HD
ATOM     21  H   LIG d   1      -2.361  89.987 116.520  0.00  0.00    -0.090 HD
ENDBRANCH   5  18
BRANCH   3  22
ATOM     22  C   LIG d   1      -6.947  91.086 116.331  0.00  0.00     0.382 C 
ATOM     23  O   LIG d   1      -7.227  92.095 115.640  0.00  0.00    -0.241 OA
ATOM     24  O   LIG d   1      -7.603  90.038 116.181  0.00  0.00    -0.241 OA
ENDBRANCH   3  22
TORSDOF 7
ENDMDL
MODEL 2
REMARK VINA RESULT:      -4.7      2.351      4.474
REMARK  7 active torsions:
REMARK  status: ('A' for Active; 'I' for Inactive)
REMARK    1  A    between atoms: C_2  and  C_3 
REMARK    2  A    between atoms: C_3  and  O_6 
REMARK    3  A    between atoms: C_3  and  C_4 
REMARK    4  A    between atoms: C_7  and  O_6 
REMARK    5  A    between atoms: C_9  and  C_10 
REMARK    6  A    between atoms: N_15  and  C_14 
REMARK    7  A    between atoms: N_20  and  C_19 
REMARK       I    between atoms: C_22  and  N_20 
ROOT
ATOM      1  C   LIG d   1      -5.139  91.367 118.535  0.00  0.00     0.161 C 
ATOM      2  C   LIG d   1      -5.084  90.663 117.320  0.00  0.00     0.016 C 
ATOM      3  C   LIG d   1      -6.014  90.847 116.272  0.00  0.00     0.038 C 
ATOM      4  C   LIG d   1      -6.980  91.864 116.308  0.00  0.00     0.028 C 
ATOM      5  C   LIG d   1      -7.391  92.260 117.722  0.00  0.00    -0.047 C 
ATOM      6  C   LIG d   1      -6.119  92.558 118.548  0.00  0.00     0.091 C 
ENDROOT
BRANCH   1   7
ATOM      7  O   LIG d   1      -3.816  91.801 118.908  0.00  0.00    -0.368 OA
BRANCH   7   8
ATOM      8  C   LIG d   1      -2.833  90.755 119.104  0.00  0.00     0.119 C 
BRANCH   8   9
ATOM      9  C   LIG d   1      -2.661  90.560 120.622  0.00  0.00     0.028 C 
ATOM     10  C   LIG d   1      -3.025  91.823 121.421  0.00  0.00     0.006 C 
ENDBRANCH   8   9
BRANCH   8  11
ATOM     11  C   LIG d   1      -1.455  91.183 118.591  0.00  0.00     0.028 C 
ATOM     12  C   LIG d   1      -0.361  90.144 118.885  0.00  0.00     0.006 C 
ENDBRANCH   8  11
ENDBRANCH   7   8
ENDBRANCH   1   7
BRANCH   6  13
ATOM     13  N   LIG d   1      -6.426  92.872 119.968  0.00  0.00    -0.311 N 
ATOM     14  C   LIG d   1      -6.610  94.111 120.422  0.00  0.00     0.210 C 
ATOM     15  C   LIG d   1      -6.897  94.213 121.923  0.00  0.00     0.109 C 
ATOM     16  O   LIG d   1      -6.595  95.131 119.718  0.00  0.00    -0.276 OA
ATOM     17  H   LIG d   1      -6.488  92.100 120.603  0.00  0.00     0.149 HD
ENDBRANCH   6  13
BRANCH   5  18
ATOM     18  N   LIG d   1      -8.296  93.419 117.615  0.00  0.00     0.381 N 
ATOM     19  H   LIG d   1      -8.859  93.487 118.440  0.00  0.00    -0.090 HD
ATOM     20  H   LIG d   1      -8.906  93.284 116.828  0.00  0.00    -0.090 HD
ATOM     21  H   LIG d   1      -7.767  94.255 117.496  0.00  0.00    -0.090 HD
ENDBRANCH   5  18
BRANCH   3  22
ATOM     22  C   LIG d   1      -6.009  89.982 115.188  0.00  0.00     0.382 C 
ATOM     23  O   LIG d   1      -4.920  89.574 114.717  0.00  0.00    -0.241 OA
ATOM     24  O   LIG d   1      -7.077  89.639 114.648  0.00  0.00    -0.241 OA
ENDBRANCH   3  22
TORSDOF 7
ENDMDL
MODEL 3
REMARK VINA RESULT:      -4.6      1.729      4.758
REMARK  7 active torsions:
REMARK  status: ('A' for Active; 'I' for Inactive)
REMARK    1  A    between atoms: C_2  and  C_3 
REMARK    2  A    between atoms: C_3  and  O_6 
REMARK    3  A    between atoms: C_3  and  C_4 
REMARK    4  A    between atoms: C_7  and  O_6 
REMARK    5  A    between atoms: C_9  and  C_10 
REMARK    6  A    between atoms: N_15  and  C_14 
REMARK    7  A    between atoms: N_20  and  C_19 
REMARK       I    between atoms: C_22  and  N_20 
ROOT
ATOM      1  C   LIG d   1      -4.715  91.471 119.046  0.00  0.00     0.161 C 
ATOM      2  C   LIG d   1      -3.562  91.519 119.847  0.00  0.00     0.016 C 
ATOM      3  C   LIG d   1      -2.333  90.924 119.479  0.00  0.00     0.038 C 
ATOM      4  C   LIG d   1      -2.131  90.367 118.207  0.00  0.00     0.028 C 
ATOM      5  C   LIG d   1      -3.413  89.849 117.562  0.00  0.00    -0.047 C 
ATOM      6  C   LIG d   1      -4.483  90.964 117.608  0.00  0.00     0.091 C 
ENDROOT
BRANCH   1   7
ATOM      7  O   LIG d   1      -5.349  92.765 119.025  0.00  0.00    -0.368 OA
BRANCH   7   8
ATOM      8  C   LIG d   1      -6.704  92.820 119.535  0.00  0.00     0.119 C 
BRANCH   8   9
ATOM      9  C   LIG d   1      -7.617  93.273 118.379  0.00  0.00     0.028 C 
ATOM     10  C   LIG d   1      -8.543  94.433 118.783  0.00  0.00     0.006 C 
ENDBRANCH   8   9
BRANCH   8  11
ATOM     11  C   LIG d   1      -6.850  93.897 120.614  0.00  0.00     0.028 C 
ATOM     12  C   LIG d   1      -5.506  94.521 121.019  0.00  0.00     0.006 C 
ENDBRANCH   8  11
ENDBRANCH   7   8
ENDBRANCH   1   7
BRANCH   6  13
ATOM     13  N   LIG d   1      -5.794  90.512 117.073  0.00  0.00    -0.311 N 
ATOM     14  C   LIG d   1      -6.164  90.677 115.804  0.00  0.00     0.210 C 
ATOM     15  C   LIG d   1      -7.565  90.157 115.466  0.00  0.00     0.109 C 
ATOM     16  O   LIG d   1      -5.452  91.175 114.919  0.00  0.00    -0.276 OA
ATOM     17  H   LIG d   1      -6.421  90.070 117.716  0.00  0.00     0.149 HD
ENDBRANCH   6  13
BRANCH   5  18
ATOM     18  N   LIG d   1      -3.080  89.423 116.190  0.00  0.00     0.381 N 
ATOM     19  H   LIG d   1      -3.345  90.135 115.540  0.00  0.00    -0.090 HD
ATOM     20  H   LIG d   1      -3.599  88.590 115.974  0.00  0.00    -0.090 HD
ATOM     21  H   LIG d   1      -2.103  89.242 116.117  0.00  0.00    -0.090 HD
ENDBRANCH   5  18
BRANCH   3  22
ATOM     22  C   LIG d   1      -1.302  90.848 120.403  0.00  0.00     0.382 C 
ATOM     23  O   LIG d   1      -0.162  91.281 120.107  0.00  0.00    -0.241 OA
ATOM     24  O   LIG d   1      -1.486  90.312 121.512  0.00  0.00    -0.241 OA
ENDBRANCH   3  22
TORSDOF 7
ENDMDL
MODEL 4
REMARK VINA RESULT:      -4.6      2.147      5.296
REMARK  7 active torsions:
REMARK  status: ('A' for Active; 'I' for Inactive)
REMARK    1  A    between atoms: C_2  and  C_3 
REMARK    2  A    between atoms: C_3  and  O_6 
REMARK    3  A    between atoms: C_3  and  C_4 
REMARK    4  A    between atoms: C_7  and  O_6 
REMARK    5  A    between atoms: C_9  and  C_10 
REMARK    6  A    between atoms: N_15  and  C_14 
REMARK    7  A    between atoms: N_20  and  C_19 
REMARK       I    between atoms: C_22  and  N_20 
ROOT
ATOM      1  C   LIG d   1      -3.371  91.111 117.889  0.00  0.00     0.161 C 
ATOM      2  C   LIG d   1      -2.274  90.338 117.473  0.00  0.00     0.016 C 
ATOM      3  C   LIG d   1      -1.104  90.167 118.248  0.00  0.00     0.038 C 
ATOM      4  C   LIG d   1      -1.013  90.637 119.567  0.00  0.00     0.028 C 
ATOM      5  C   LIG d   1      -1.895  91.850 119.839  0.00  0.00    -0.047 C 
ATOM      6  C   LIG d   1      -3.335  91.539 119.371  0.00  0.00     0.091 C 
ENDROOT
BRANCH   1   7
ATOM      7  O   LIG d   1      -4.598  90.412 117.599  0.00  0.00    -0.368 OA
BRANCH   7   8
ATOM      8  C   LIG d   1      -5.466  91.030 116.617  0.00  0.00     0.119 C 
BRANCH   8   9
ATOM      9  C   LIG d   1      -6.888  91.063 117.211  0.00  0.00     0.028 C 
ATOM     10  C   LIG d   1      -7.312  92.477 117.640  0.00  0.00     0.006 C 
ENDBRANCH   8   9
BRANCH   8  11
ATOM     11  C   LIG d   1      -5.575  90.173 115.352  0.00  0.00     0.028 C 
ATOM     12  C   LIG d   1      -6.985  90.188 114.742  0.00  0.00     0.006 C 
ENDBRANCH   8  11
ENDBRANCH   7   8
ENDBRANCH   1   7
BRANCH   6  13
ATOM     13  N   LIG d   1      -4.245  92.704 119.524  0.00  0.00    -0.311 N 
ATOM     14  C   LIG d   1      -5.000  92.908 120.602  0.00  0.00     0.210 C 
ATOM     15  C   LIG d   1      -5.881  94.160 120.547  0.00  0.00     0.109 C 
ATOM     16  O   LIG d   1      -4.999  92.189 121.612  0.00  0.00    -0.276 OA
ATOM     17  H   LIG d   1      -4.285  93.355 118.764  0.00  0.00     0.149 HD
ENDBRANCH   6  13
BRANCH   5  18
ATOM     18  N   LIG d   1      -1.809  92.150 121.281  0.00  0.00     0.381 N 
ATOM     19  H   LIG d   1      -2.709  92.414 121.627  0.00  0.00    -0.090 HD
ATOM     20  H   LIG d   1      -1.180  92.922 121.416  0.00  0.00    -0.090 HD
ATOM     21  H   LIG d   1      -1.476  91.351 121.776  0.00  0.00    -0.090 HD
ENDBRANCH   5  18
BRANCH   3  22
ATOM     22  C   LIG d   1       0.007  89.553 117.690  0.00  0.00     0.382 C 
ATOM     23  O   LIG d   1       1.018  89.324 118.396  0.00  0.00    -0.241 OA
ATOM     24  O   LIG d   1       0.027  89.265 116.478  0.00  0.00    -0.241 OA
ENDBRANCH   3  22
TORSDOF 7
ENDMDL
MODEL 5
REMARK VINA RESULT:      -4.5      5.147      7.789
REMARK  7 active torsions:
REMARK  status: ('A' for Active; 'I' for Inactive)
REMARK    1  A    between atoms: C_2  and  C_3 
REMARK    2  A    between atoms: C_3  and  O_6 
REMARK    3  A    between atoms: C_3  and  C_4 
REMARK    4  A    between atoms: C_7  and  O_6 
REMARK    5  A    between atoms: C_9  and  C_10 
REMARK    6  A    between atoms: N_15  and  C_14 
REMARK    7  A    between atoms: N_20  and  C_19 
REMARK       I    between atoms: C_22  and  N_20 
ROOT
ATOM      1  C   LIG d   1       0.453  89.592 117.086  0.00  0.00     0.161 C 
ATOM      2  C   LIG d   1      -0.951  89.570 117.141  0.00  0.00     0.016 C 
ATOM      3  C   LIG d   1      -1.725  90.620 117.687  0.00  0.00     0.038 C 
ATOM      4  C   LIG d   1      -1.150  91.838 118.080  0.00  0.00     0.028 C 
ATOM      5  C   LIG d   1       0.307  91.709 118.510  0.00  0.00    -0.047 C 
ATOM      6  C   LIG d   1       1.091  90.960 117.408  0.00  0.00     0.091 C 
ENDROOT
BRANCH   1   7
ATOM      7  O   LIG d   1       0.899  89.123 115.798  0.00  0.00    -0.368 OA
BRANCH   7   8
ATOM      8  C   LIG d   1       1.521  87.814 115.778  0.00  0.00     0.119 C 
BRANCH   8   9
ATOM      9  C   LIG d   1       2.661  87.860 114.742  0.00  0.00     0.028 C 
ATOM     10  C   LIG d   1       3.260  89.268 114.590  0.00  0.00     0.006 C 
ENDBRANCH   8   9
BRANCH   8  11
ATOM     11  C   LIG d   1       0.551  86.744 115.267  0.00  0.00     0.028 C 
ATOM     12  C   LIG d   1       0.512  85.498 116.165  0.00  0.00     0.006 C 
ENDBRANCH   8  11
ENDBRANCH   7   8
ENDBRANCH   1   7
BRANCH   6  13
ATOM     13  N   LIG d   1       2.508  90.717 117.786  0.00  0.00    -0.311 N 
ATOM     14  C   LIG d   1       3.500  91.553 117.485  0.00  0.00     0.210 C 
ATOM     15  C   LIG d   1       4.888  91.103 117.951  0.00  0.00     0.109 C 
ATOM     16  O   LIG d   1       3.358  92.639 116.904  0.00  0.00    -0.276 OA
ATOM     17  H   LIG d   1       2.708  89.874 118.287  0.00  0.00     0.149 HD
ENDBRANCH   6  13
BRANCH   5  18
ATOM     18  N   LIG d   1       0.819  93.070 118.760  0.00  0.00     0.381 N 
ATOM     19  H   LIG d   1       0.695  93.306 119.724  0.00  0.00    -0.090 HD
ATOM     20  H   LIG d   1       0.294  93.722 118.205  0.00  0.00    -0.090 HD
ATOM     21  H   LIG d   1       1.785  93.120 118.521  0.00  0.00    -0.090 HD
ENDBRANCH   5  18
BRANCH   3  22
ATOM     22  C   LIG d   1      -3.086  90.441 117.881  0.00  0.00     0.382 C 
ATOM     23  O   LIG d   1      -3.907  91.160 117.262  0.00  0.00    -0.241 OA
ATOM     24  O   LIG d   1      -3.502  89.599 118.699  0.00  0.00    -0.241 OA
ENDBRANCH   3  22
TORSDOF 7
ENDMDL
MODEL 6
REMARK VINA RESULT:      -4.5      2.517      4.495
REMARK  7 active torsions:
REMARK  status: ('A' for Active; 'I' for Inactive)
REMARK    1  A    between atoms: C_2  and  C_3 
REMARK    2  A    between atoms: C_3  and  O_6 
REMARK    3  A    between atoms: C_3  and  C_4 
REMARK    4  A    between atoms: C_7  and  O_6 
REMARK    5  A    between atoms: C_9  and  C_10 
REMARK    6  A    between atoms: N_15  and  C_14 
REMARK    7  A    between atoms: N_20  and  C_19 
REMARK       I    between atoms: C_22  and  N_20 
ROOT
ATOM      1  C   LIG d   1      -4.414  91.993 120.214  0.00  0.00     0.161 C 
ATOM      2  C   LIG d   1      -3.556  91.261 119.376  0.00  0.00     0.016 C 
ATOM      3  C   LIG d   1      -3.914  90.836 118.076  0.00  0.00     0.038 C 
ATOM      4  C   LIG d   1      -5.107  91.247 117.464  0.00  0.00     0.028 C 
ATOM      5  C   LIG d   1      -6.219  91.565 118.458  0.00  0.00    -0.047 C 
ATOM      6  C   LIG d   1      -5.677  92.546 119.522  0.00  0.00     0.091 C 
ENDROOT
BRANCH   1   7
ATOM      7  O   LIG d   1      -3.683  93.060 120.849  0.00  0.00    -0.368 OA
BRANCH   7   8
ATOM      8  C   LIG d   1      -3.446  94.240 120.042  0.00  0.00     0.119 C 
BRANCH   8   9
ATOM      9  C   LIG d   1      -1.920  94.424 119.928  0.00  0.00     0.028 C 
ATOM     10  C   LIG d   1      -1.432  94.389 118.470  0.00  0.00     0.006 C 
ENDBRANCH   8   9
BRANCH   8  11
ATOM     11  C   LIG d   1      -3.957  95.504 120.739  0.00  0.00     0.028 C 
ATOM     12  C   LIG d   1      -4.399  96.593 119.749  0.00  0.00     0.006 C 
ENDBRANCH   8  11
ENDBRANCH   7   8
ENDBRANCH   1   7
BRANCH   6  13
ATOM     13  N   LIG d   1      -6.676  92.843 120.581  0.00  0.00    -0.311 N 
ATOM     14  C   LIG d   1      -7.456  93.923 120.570  0.00  0.00     0.210 C 
ATOM     15  C   LIG d   1      -8.403  94.048 121.768  0.00  0.00     0.109 C 
ATOM     16  O   LIG d   1      -7.477  94.772 119.667  0.00  0.00    -0.276 OA
ATOM     17  H   LIG d   1      -6.749  92.190 121.336  0.00  0.00     0.149 HD
ENDBRANCH   6  13
BRANCH   5  18
ATOM     18  N   LIG d   1      -7.357  92.111 117.694  0.00  0.00     0.381 N 
ATOM     19  H   LIG d   1      -7.078  92.950 117.225  0.00  0.00    -0.090 HD
ATOM     20  H   LIG d   1      -8.098  92.338 118.333  0.00  0.00    -0.090 HD
ATOM     21  H   LIG d   1      -7.675  91.441 117.029  0.00  0.00    -0.090 HD
ENDBRANCH   5  18
BRANCH   3  22
ATOM     22  C   LIG d   1      -3.090  89.957 117.389  0.00  0.00     0.382 C 
ATOM     23  O   LIG d   1      -3.569  89.217 116.497  0.00  0.00    -0.241 OA
ATOM     24  O   LIG d   1      -1.883  89.863 117.682  0.00  0.00    -0.241 OA
ENDBRANCH   3  22
TORSDOF 7
ENDMDL
MODEL 7
REMARK VINA RESULT:      -4.2      5.836      8.510
REMARK  7 active torsions:
REMARK  status: ('A' for Active; 'I' for Inactive)
REMARK    1  A    between atoms: C_2  and  C_3 
REMARK    2  A    between atoms: C_3  and  O_6 
REMARK    3  A    between atoms: C_3  and  C_4 
REMARK    4  A    between atoms: C_7  and  O_6 
REMARK    5  A    between atoms: C_9  and  C_10 
REMARK    6  A    between atoms: N_15  and  C_14 
REMARK    7  A    between atoms: N_20  and  C_19 
REMARK       I    between atoms: C_22  and  N_20 
ROOT
ATOM      1  C   LIG d   1       1.022  89.228 116.769  0.00  0.00     0.161 C 
ATOM      2  C   LIG d   1      -0.370  89.237 116.960  0.00  0.00     0.016 C 
ATOM      3  C   LIG d   1      -1.067  90.313 117.556  0.00  0.00     0.038 C 
ATOM      4  C   LIG d   1      -0.434  91.526 117.866  0.00  0.00     0.028 C 
ATOM      5  C   LIG d   1       1.056  91.374 118.156  0.00  0.00    -0.047 C 
ATOM      6  C   LIG d   1       1.714  90.588 117.000  0.00  0.00     0.091 C 
ENDROOT
BRANCH   1   7
ATOM      7  O   LIG d   1       1.331  88.725 115.454  0.00  0.00    -0.368 OA
BRANCH   7   8
ATOM      8  C   LIG d   1       1.691  87.324 115.376  0.00  0.00     0.119 C 
BRANCH   8   9
ATOM      9  C   LIG d   1       2.903  87.208 114.432  0.00  0.00     0.028 C 
ATOM     10  C   LIG d   1       4.204  86.882 115.185  0.00  0.00     0.006 C 
ENDBRANCH   8   9
BRANCH   8  11
ATOM     11  C   LIG d   1       0.582  86.500 114.715  0.00  0.00     0.028 C 
ATOM     12  C   LIG d   1      -0.006  85.432 115.651  0.00  0.00     0.006 C 
ENDBRANCH   8  11
ENDBRANCH   7   8
ENDBRANCH   1   7
BRANCH   6  13
ATOM     13  N   LIG d   1       3.156  90.322 117.244  0.00  0.00    -0.311 N 
ATOM     14  C   LIG d   1       4.082  90.367 116.288  0.00  0.00     0.210 C 
ATOM     15  C   LIG d   1       5.506  90.041 116.751  0.00  0.00     0.109 C 
ATOM     16  O   LIG d   1       3.865  90.679 115.107  0.00  0.00    -0.276 OA
ATOM     17  H   LIG d   1       3.425  90.091 118.181  0.00  0.00     0.149 HD
ENDBRANCH   6  13
BRANCH   5  18
ATOM     18  N   LIG d   1       1.617  92.727 118.328  0.00  0.00     0.381 N 
ATOM     19  H   LIG d   1       2.198  92.955 117.547  0.00  0.00    -0.090 HD
ATOM     20  H   LIG d   1       2.183  92.741 119.158  0.00  0.00    -0.090 HD
ATOM     21  H   LIG d   1       0.880  93.394 118.409  0.00  0.00    -0.090 HD
ENDBRANCH   5  18
BRANCH   3  22
ATOM     22  C   LIG d   1      -2.406  90.167 117.884  0.00  0.00     0.382 C 
ATOM     23  O   LIG d   1      -3.203  89.663 117.056  0.00  0.00    -0.241 OA
ATOM     24  O   LIG d   1      -2.836  90.573 118.980  0.00  0.00    -0.241 OA
ENDBRANCH   3  22
TORSDOF 7
ENDMDL
MODEL 8
REMARK VINA RESULT:      -4.2      4.499      7.257
REMARK  7 active torsions:
REMARK  status: ('A' for Active; 'I' for Inactive)
REMARK    1  A    between atoms: C_2  and  C_3 
REMARK    2  A    between atoms: C_3  and  O_6 
REMARK    3  A    between atoms: C_3  and  C_4 
REMARK    4  A    between atoms: C_7  and  O_6 
REMARK    5  A    between atoms: C_9  and  C_10 
REMARK    6  A    between atoms: N_15  and  C_14 
REMARK    7  A    between atoms: N_20  and  C_19 
REMARK       I    between atoms: C_22  and  N_20 
ROOT
ATOM      1  C   LIG d   1       0.389  90.440 118.499  0.00  0.00     0.161 C 
ATOM      2  C   LIG d   1      -0.985  90.155 118.432  0.00  0.00     0.016 C 
ATOM      3  C   LIG d   1      -1.987  91.152 118.418  0.00  0.00     0.038 C 
ATOM      4  C   LIG d   1      -1.674  92.516 118.316  0.00  0.00     0.028 C 
ATOM      5  C   LIG d   1      -0.305  92.868 118.888  0.00  0.00    -0.047 C 
ATOM      6  C   LIG d   1       0.753  91.923 118.276  0.00  0.00     0.091 C 
ENDROOT
BRANCH   1   7
ATOM      7  O   LIG d   1       1.108  89.603 117.571  0.00  0.00    -0.368 OA
BRANCH   7   8
ATOM      8  C   LIG d   1       1.639  88.367 118.108  0.00  0.00     0.119 C 
BRANCH   8   9
ATOM      9  C   LIG d   1       3.140  88.587 118.380  0.00  0.00     0.028 C 
ATOM     10  C   LIG d   1       3.941  88.826 117.089  0.00  0.00     0.006 C 
ENDBRANCH   8   9
BRANCH   8  11
ATOM     11  C   LIG d   1       1.576  87.238 117.075  0.00  0.00     0.028 C 
ATOM     12  C   LIG d   1       0.452  87.434 116.045  0.00  0.00     0.006 C 
ENDBRANCH   8  11
ENDBRANCH   7   8
ENDBRANCH   1   7
BRANCH   6  13
ATOM     13  N   LIG d   1       2.108  92.144 118.845  0.00  0.00    -0.311 N 
ATOM     14  C   LIG d   1       3.199  92.308 118.099  0.00  0.00     0.210 C 
ATOM     15  C   LIG d   1       4.498  92.502 118.888  0.00  0.00     0.109 C 
ATOM     16  O   LIG d   1       3.210  92.344 116.860  0.00  0.00    -0.276 OA
ATOM     17  H   LIG d   1       2.186  92.161 119.843  0.00  0.00     0.149 HD
ENDBRANCH   6  13
BRANCH   5  18
ATOM     18  N   LIG d   1      -0.051  94.290 118.592  0.00  0.00     0.381 N 
ATOM     19  H   LIG d   1       0.228  94.393 117.637  0.00  0.00    -0.090 HD
ATOM     20  H   LIG d   1       0.699  94.615 119.177  0.00  0.00    -0.090 HD
ATOM     21  H   LIG d   1      -0.872  94.827 118.765  0.00  0.00    -0.090 HD
ENDBRANCH   5  18
BRANCH   3  22
ATOM     22  C   LIG d   1      -3.319  90.790 118.546  0.00  0.00     0.382 C 
ATOM     23  O   LIG d   1      -3.661  89.593 118.390  0.00  0.00    -0.241 OA
ATOM     24  O   LIG d   1      -4.189  91.651 118.773  0.00  0.00    -0.241 OA
ENDBRANCH   3  22
TORSDOF 7
ENDMDL
MODEL 9
REMARK VINA RESULT:      -4.1      4.538      7.184
REMARK  7 active torsions:
REMARK  status: ('A' for Active; 'I' for Inactive)
REMARK    1  A    between atoms: C_2  and  C_3 
REMARK    2  A    between atoms: C_3  and  O_6 
REMARK    3  A    between atoms: C_3  and  C_4 
REMARK    4  A    between atoms: C_7  and  O_6 
REMARK    5  A    between atoms: C_9  and  C_10 
REMARK    6  A    between atoms: N_15  and  C_14 
REMARK    7  A    between atoms: N_20  and  C_19 
REMARK       I    between atoms: C_22  and  N_20 
ROOT
ATOM      1  C   LIG d   1       0.634  90.284 118.767  0.00  0.00     0.161 C 
ATOM      2  C   LIG d   1      -0.740  90.000 118.690  0.00  0.00     0.016 C 
ATOM      3  C   LIG d   1      -1.734  90.995 118.549  0.00  0.00     0.038 C 
ATOM      4  C   LIG d   1      -1.408  92.341 118.322  0.00  0.00     0.028 C 
ATOM      5  C   LIG d   1      -0.053  92.741 118.895  0.00  0.00    -0.047 C 
ATOM      6  C   LIG d   1       1.015  91.735 118.409  0.00  0.00     0.091 C 
ENDROOT
BRANCH   1   7
ATOM      7  O   LIG d   1       1.371  89.355 117.946  0.00  0.00    -0.368 OA
BRANCH   7   8
ATOM      8  C   LIG d   1       1.120  89.425 116.521  0.00  0.00     0.119 C 
BRANCH   8   9
ATOM      9  C   LIG d   1       0.563  88.057 116.082  0.00  0.00     0.028 C 
ATOM     10  C   LIG d   1       1.200  86.889 116.853  0.00  0.00     0.006 C 
ENDBRANCH   8   9
BRANCH   8  11
ATOM     11  C   LIG d   1       2.421  89.605 115.734  0.00  0.00     0.028 C 
ATOM     12  C   LIG d   1       3.672  89.295 116.572  0.00  0.00     0.006 C 
ENDBRANCH   8  11
ENDBRANCH   7   8
ENDBRANCH   1   7
BRANCH   6  13
ATOM     13  N   LIG d   1       2.355  92.005 118.992  0.00  0.00    -0.311 N 
ATOM     14  C   LIG d   1       3.387  92.457 118.281  0.00  0.00     0.210 C 
ATOM     15  C   LIG d   1       4.684  92.648 119.073  0.00  0.00     0.109 C 
ATOM     16  O   LIG d   1       3.342  92.747 117.076  0.00  0.00    -0.276 OA
ATOM     17  H   LIG d   1       2.471  91.826 119.970  0.00  0.00     0.149 HD
ENDBRANCH   6  13
BRANCH   5  18
ATOM     18  N   LIG d   1       0.220  94.126 118.468  0.00  0.00     0.381 N 
ATOM     19  H   LIG d   1       0.257  94.172 117.469  0.00  0.00    -0.090 HD
ATOM     20  H   LIG d   1       1.114  94.408 118.829  0.00  0.00    -0.090 HD
ATOM     21  H   LIG d   1      -0.491  94.735 118.809  0.00  0.00    -0.090 HD
ENDBRANCH   5  18
BRANCH   3  22
ATOM     22  C   LIG d   1      -3.072  90.654 118.675  0.00  0.00     0.382 C 
ATOM     23  O   LIG d   1      -3.509  89.618 118.119  0.00  0.00    -0.241 OA
ATOM     24  O   LIG d   1      -3.856  91.392 119.301  0.00  0.00    -0.241 OA
ENDBRANCH   3  22
TORSDOF 7
ENDMDL
