MODEL 1
REMARK VINA RESULT:      -5.3      0.000      0.000
REMARK  7 active torsions:
REMARK  status: ('A' for Active; 'I' for Inactive)
REMARK    1  A    between atoms: C_2  and  C_3 
REMARK    2  A    between atoms: C_3  and  O_6 
REMARK    3  A    between atoms: C_3  and  C_4 
REMARK    4  A    between atoms: C_7  and  O_6 
REMARK    5  A    between atoms: C_9  and  C_10 
REMARK    6  A    between atoms: N_15  and  C_14 
REMARK    7  A    between atoms: N_20  and  C_19 
REMARK       I    between atoms: C_22  and  N_20 
ROOT
ATOM      1  C   LIG d   1      -4.566  92.584 117.670  0.00  0.00     0.161 C 
ATOM      2  C   LIG d   1      -5.906  93.007 117.635  0.00  0.00     0.016 C 
ATOM      3  C   LIG d   1      -6.901  92.377 116.854  0.00  0.00     0.038 C 
ATOM      4  C   LIG d   1      -6.655  91.179 116.166  0.00  0.00     0.028 C 
ATOM      5  C   LIG d   1      -5.194  90.998 115.767  0.00  0.00    -0.047 C 
ATOM      6  C   LIG d   1      -4.304  91.212 117.013  0.00  0.00     0.091 C 
ENDROOT
BRANCH   1   7
ATOM      7  O   LIG d   1      -4.088  92.587 119.030  0.00  0.00    -0.368 OA
BRANCH   7   8
ATOM      8  C   LIG d   1      -3.119  93.612 119.362  0.00  0.00     0.119 C 
BRANCH   8   9
ATOM      9  C   LIG d   1      -3.853  94.700 120.169  0.00  0.00     0.028 C 
ATOM     10  C   LIG d   1      -4.132  95.961 119.336  0.00  0.00     0.006 C 
ENDBRANCH   8   9
BRANCH   8  11
ATOM     11  C   LIG d   1      -2.602  94.318 118.105  0.00  0.00     0.028 C 
ATOM     12  C   LIG d   1      -1.094  94.121 117.888  0.00  0.00     0.006 C 
ENDBRANCH   8  11
ENDBRANCH   7   8
ENDBRANCH   1   7
BRANCH   6  13
ATOM     13  N   LIG d   1      -2.855  91.136 116.694  0.00  0.00    -0.311 N 
ATOM     14  C   LIG d   1      -1.975  90.467 117.437  0.00  0.00     0.210 C 
ATOM     15  C   LIG d   1      -0.527  90.534 116.941  0.00  0.00     0.109 C 
ATOM     16  O   LIG d   1      -2.261  89.798 118.441  0.00  0.00    -0.276 OA
ATOM     17  H   LIG d   1      -2.541  91.625 115.878  0.00  0.00     0.149 HD
ENDBRANCH   6  13
BRANCH   5  18
ATOM     18  N   LIG d   1      -5.055  89.651 115.183  0.00  0.00     0.381 N 
ATOM     19  H   LIG d   1      -4.736  89.723 114.237  0.00  0.00    -0.090 HD
ATOM     20  H   LIG d   1      -5.956  89.204 115.178  0.00  0.00    -0.090 HD
ATOM     21  H   LIG d   1      -4.411  89.111 115.718  0.00  0.00    -0.090 HD
ENDBRANCH   5  18
BRANCH   3  22
ATOM     22  C   LIG d   1      -8.148  92.967 116.723  0.00  0.00     0.382 C 
ATOM     23  O   LIG d   1      -8.565  93.754 117.607  0.00  0.00    -0.241 OA
ATOM     24  O   LIG d   1      -8.881  92.690 115.754  0.00  0.00    -0.241 OA
ENDBRANCH   3  22
TORSDOF 7
ENDMDL
MODEL 2
REMARK VINA RESULT:      -5.3      2.493      4.302
REMARK  7 active torsions:
REMARK  status: ('A' for Active; 'I' for Inactive)
REMARK    1  A    between atoms: C_2  and  C_3 
REMARK    2  A    between atoms: C_3  and  O_6 
REMARK    3  A    between atoms: C_3  and  C_4 
REMARK    4  A    between atoms: C_7  and  O_6 
REMARK    5  A    between atoms: C_9  and  C_10 
REMARK    6  A    between atoms: N_15  and  C_14 
REMARK    7  A    between atoms: N_20  and  C_19 
REMARK       I    between atoms: C_22  and  N_20 
ROOT
ATOM      1  C   LIG d   1      -4.727  92.742 117.607  0.00  0.00     0.161 C 
ATOM      2  C   LIG d   1      -4.713  91.601 116.787  0.00  0.00     0.016 C 
ATOM      3  C   LIG d   1      -5.843  91.143 116.071  0.00  0.00     0.038 C 
ATOM      4  C   LIG d   1      -7.031  91.887 116.006  0.00  0.00     0.028 C 
ATOM      5  C   LIG d   1      -7.253  92.781 117.222  0.00  0.00    -0.047 C 
ATOM      6  C   LIG d   1      -5.982  93.628 117.461  0.00  0.00     0.091 C 
ENDROOT
BRANCH   1   7
ATOM      7  O   LIG d   1      -3.535  93.520 117.381  0.00  0.00    -0.368 OA
BRANCH   7   8
ATOM      8  C   LIG d   1      -2.470  93.351 118.349  0.00  0.00     0.119 C 
BRANCH   8   9
ATOM      9  C   LIG d   1      -2.675  94.408 119.452  0.00  0.00     0.028 C 
ATOM     10  C   LIG d   1      -2.703  95.840 118.893  0.00  0.00     0.006 C 
ENDBRANCH   8   9
BRANCH   8  11
ATOM     11  C   LIG d   1      -1.103  93.665 117.735  0.00  0.00     0.028 C 
ATOM     12  C   LIG d   1      -0.284  92.402 117.426  0.00  0.00     0.006 C 
ENDBRANCH   8  11
ENDBRANCH   7   8
ENDBRANCH   1   7
BRANCH   6  13
ATOM     13  N   LIG d   1      -6.082  94.470 118.681  0.00  0.00    -0.311 N 
ATOM     14  C   LIG d   1      -6.590  95.701 118.682  0.00  0.00     0.210 C 
ATOM     15  C   LIG d   1      -6.581  96.402 120.045  0.00  0.00     0.109 C 
ATOM     16  O   LIG d   1      -7.075  96.267 117.692  0.00  0.00    -0.276 OA
ATOM     17  H   LIG d   1      -5.740  94.076 119.536  0.00  0.00     0.149 HD
ENDBRANCH   6  13
BRANCH   5  18
ATOM     18  N   LIG d   1      -8.452  93.599 116.960  0.00  0.00     0.381 N 
ATOM     19  H   LIG d   1      -9.196  93.313 117.565  0.00  0.00    -0.090 HD
ATOM     20  H   LIG d   1      -8.744  93.454 116.010  0.00  0.00    -0.090 HD
ATOM     21  H   LIG d   1      -8.246  94.563 117.108  0.00  0.00    -0.090 HD
ENDBRANCH   5  18
BRANCH   3  22
ATOM     22  C   LIG d   1      -5.804  89.908 115.442  0.00  0.00     0.382 C 
ATOM     23  O   LIG d   1      -6.683  89.607 114.599  0.00  0.00    -0.241 OA
ATOM     24  O   LIG d   1      -4.927  89.075 115.739  0.00  0.00    -0.241 OA
ENDBRANCH   3  22
TORSDOF 7
ENDMDL
MODEL 3
REMARK VINA RESULT:      -5.3      2.232      3.493
REMARK  7 active torsions:
REMARK  status: ('A' for Active; 'I' for Inactive)
REMARK    1  A    between atoms: C_2  and  C_3 
REMARK    2  A    between atoms: C_3  and  O_6 
REMARK    3  A    between atoms: C_3  and  C_4 
REMARK    4  A    between atoms: C_7  and  O_6 
REMARK    5  A    between atoms: C_9  and  C_10 
REMARK    6  A    between atoms: N_15  and  C_14 
REMARK    7  A    between atoms: N_20  and  C_19 
REMARK       I    between atoms: C_22  and  N_20 
ROOT
ATOM      1  C   LIG d   1      -5.508  93.022 117.828  0.00  0.00     0.161 C 
ATOM      2  C   LIG d   1      -6.055  94.172 118.420  0.00  0.00     0.016 C 
ATOM      3  C   LIG d   1      -7.349  94.659 118.125  0.00  0.00     0.038 C 
ATOM      4  C   LIG d   1      -8.247  93.939 117.323  0.00  0.00     0.028 C 
ATOM      5  C   LIG d   1      -7.560  93.035 116.305  0.00  0.00    -0.047 C 
ATOM      6  C   LIG d   1      -6.514  92.161 117.036  0.00  0.00     0.091 C 
ENDROOT
BRANCH   1   7
ATOM      7  O   LIG d   1      -4.846  92.224 118.829  0.00  0.00    -0.368 OA
BRANCH   7   8
ATOM      8  C   LIG d   1      -3.421  92.440 118.977  0.00  0.00     0.119 C 
BRANCH   8   9
ATOM      9  C   LIG d   1      -2.869  92.846 117.597  0.00  0.00     0.028 C 
ATOM     10  C   LIG d   1      -1.839  93.984 117.689  0.00  0.00     0.006 C 
ENDBRANCH   8   9
BRANCH   8  11
ATOM     11  C   LIG d   1      -2.695  91.141 119.339  0.00  0.00     0.028 C 
ATOM     12  C   LIG d   1      -3.340  89.900 118.701  0.00  0.00     0.006 C 
ENDBRANCH   8  11
ENDBRANCH   7   8
ENDBRANCH   1   7
BRANCH   6  13
ATOM     13  N   LIG d   1      -5.737  91.307 116.100  0.00  0.00    -0.311 N 
ATOM     14  C   LIG d   1      -6.020  90.026 115.871  0.00  0.00     0.210 C 
ATOM     15  C   LIG d   1      -5.081  89.323 114.886  0.00  0.00     0.109 C 
ATOM     16  O   LIG d   1      -6.979  89.414 116.364  0.00  0.00    -0.276 OA
ATOM     17  H   LIG d   1      -4.960  91.732 115.633  0.00  0.00     0.149 HD
ENDBRANCH   6  13
BRANCH   5  18
ATOM     18  N   LIG d   1      -8.608  92.242 115.634  0.00  0.00     0.381 N 
ATOM     19  H   LIG d   1      -8.817  92.644 114.742  0.00  0.00    -0.090 HD
ATOM     20  H   LIG d   1      -9.442  92.265 116.194  0.00  0.00    -0.090 HD
ATOM     21  H   LIG d   1      -8.302  91.301 115.519  0.00  0.00    -0.090 HD
ENDBRANCH   5  18
BRANCH   3  22
ATOM     22  C   LIG d   1      -7.741  95.901 118.601  0.00  0.00     0.382 C 
ATOM     23  O   LIG d   1      -8.170  96.015 119.775  0.00  0.00    -0.241 OA
ATOM     24  O   LIG d   1      -7.714  96.900 117.859  0.00  0.00    -0.241 OA
ENDBRANCH   3  22
TORSDOF 7
ENDMDL
MODEL 4
REMARK VINA RESULT:      -5.2      1.780      2.843
REMARK  7 active torsions:
REMARK  status: ('A' for Active; 'I' for Inactive)
REMARK    1  A    between atoms: C_2  and  C_3 
REMARK    2  A    between atoms: C_3  and  O_6 
REMARK    3  A    between atoms: C_3  and  C_4 
REMARK    4  A    between atoms: C_7  and  O_6 
REMARK    5  A    between atoms: C_9  and  C_10 
REMARK    6  A    between atoms: N_15  and  C_14 
REMARK    7  A    between atoms: N_20  and  C_19 
REMARK       I    between atoms: C_22  and  N_20 
ROOT
ATOM      1  C   LIG d   1      -5.620  92.943 116.817  0.00  0.00     0.161 C 
ATOM      2  C   LIG d   1      -6.759  92.188 116.490  0.00  0.00     0.016 C 
ATOM      3  C   LIG d   1      -6.744  90.782 116.341  0.00  0.00     0.038 C 
ATOM      4  C   LIG d   1      -5.614  90.015 116.660  0.00  0.00     0.028 C 
ATOM      5  C   LIG d   1      -4.302  90.776 116.507  0.00  0.00    -0.047 C 
ATOM      6  C   LIG d   1      -4.404  92.112 117.278  0.00  0.00     0.091 C 
ENDROOT
BRANCH   1   7
ATOM      7  O   LIG d   1      -5.958  93.930 117.811  0.00  0.00    -0.368 OA
BRANCH   7   8
ATOM      8  C   LIG d   1      -6.030  93.459 119.179  0.00  0.00     0.119 C 
BRANCH   8   9
ATOM      9  C   LIG d   1      -7.470  93.693 119.674  0.00  0.00     0.028 C 
ATOM     10  C   LIG d   1      -8.199  94.780 118.867  0.00  0.00     0.006 C 
ENDBRANCH   8   9
BRANCH   8  11
ATOM     11  C   LIG d   1      -5.142  94.296 120.105  0.00  0.00     0.028 C 
ATOM     12  C   LIG d   1      -4.536  95.521 119.402  0.00  0.00     0.006 C 
ENDBRANCH   8  11
ENDBRANCH   7   8
ENDBRANCH   1   7
BRANCH   6  13
ATOM     13  N   LIG d   1      -3.193  92.957 117.111  0.00  0.00    -0.311 N 
ATOM     14  C   LIG d   1      -2.198  92.996 117.996  0.00  0.00     0.210 C 
ATOM     15  C   LIG d   1      -1.053  93.949 117.640  0.00  0.00     0.109 C 
ATOM     16  O   LIG d   1      -2.141  92.307 119.026  0.00  0.00    -0.276 OA
ATOM     17  H   LIG d   1      -3.142  93.525 116.287  0.00  0.00     0.149 HD
ENDBRANCH   6  13
BRANCH   5  18
ATOM     18  N   LIG d   1      -3.220  89.904 117.003  0.00  0.00     0.381 N 
ATOM     19  H   LIG d   1      -3.451  88.946 116.829  0.00  0.00    -0.090 HD
ATOM     20  H   LIG d   1      -3.129  90.032 117.995  0.00  0.00    -0.090 HD
ATOM     21  H   LIG d   1      -2.363  90.134 116.550  0.00  0.00    -0.090 HD
ENDBRANCH   5  18
BRANCH   3  22
ATOM     22  C   LIG d   1      -7.858  90.134 115.829  0.00  0.00     0.382 C 
ATOM     23  O   LIG d   1      -8.726  90.783 115.197  0.00  0.00    -0.241 OA
ATOM     24  O   LIG d   1      -8.028  88.916 116.031  0.00  0.00    -0.241 OA
ENDBRANCH   3  22
TORSDOF 7
ENDMDL
MODEL 5
REMARK VINA RESULT:      -5.2      2.457      4.311
REMARK  7 active torsions:
REMARK  status: ('A' for Active; 'I' for Inactive)
REMARK    1  A    between atoms: C_2  and  C_3 
REMARK    2  A    between atoms: C_3  and  O_6 
REMARK    3  A    between atoms: C_3  and  C_4 
REMARK    4  A    between atoms: C_7  and  O_6 
REMARK    5  A    between atoms: C_9  and  C_10 
REMARK    6  A    between atoms: N_15  and  C_14 
REMARK    7  A    between atoms: N_20  and  C_19 
REMARK       I    between atoms: C_22  and  N_20 
ROOT
ATOM      1  C   LIG d   1      -6.209  93.615 117.853  0.00  0.00     0.161 C 
ATOM      2  C   LIG d   1      -6.946  92.523 117.365  0.00  0.00     0.016 C 
ATOM      3  C   LIG d   1      -6.351  91.338 116.877  0.00  0.00     0.038 C 
ATOM      4  C   LIG d   1      -4.972  91.102 116.984  0.00  0.00     0.028 C 
ATOM      5  C   LIG d   1      -4.139  92.379 117.005  0.00  0.00    -0.047 C 
ATOM      6  C   LIG d   1      -4.709  93.332 118.081  0.00  0.00     0.091 C 
ENDROOT
BRANCH   1   7
ATOM      7  O   LIG d   1      -6.814  94.112 119.063  0.00  0.00    -0.368 OA
BRANCH   7   8
ATOM      8  C   LIG d   1      -7.748  95.208 118.905  0.00  0.00     0.119 C 
BRANCH   8   9
ATOM      9  C   LIG d   1      -6.942  96.519 118.986  0.00  0.00     0.028 C 
ATOM     10  C   LIG d   1      -7.178  97.430 117.770  0.00  0.00     0.006 C 
ENDBRANCH   8   9
BRANCH   8  11
ATOM     11  C   LIG d   1      -8.739  95.269 120.071  0.00  0.00     0.028 C 
ATOM     12  C   LIG d   1      -9.590  93.995 120.196  0.00  0.00     0.006 C 
ENDBRANCH   8  11
ENDBRANCH   7   8
ENDBRANCH   1   7
BRANCH   6  13
ATOM     13  N   LIG d   1      -4.004  94.640 118.110  0.00  0.00    -0.311 N 
ATOM     14  C   LIG d   1      -3.467  95.159 119.213  0.00  0.00     0.210 C 
ATOM     15  C   LIG d   1      -2.804  96.527 119.028  0.00  0.00     0.109 C 
ATOM     16  O   LIG d   1      -3.449  94.601 120.321  0.00  0.00    -0.276 OA
ATOM     17  H   LIG d   1      -3.945  95.146 117.248  0.00  0.00     0.149 HD
ENDBRANCH   6  13
BRANCH   5  18
ATOM     18  N   LIG d   1      -2.738  91.993 117.258  0.00  0.00     0.381 N 
ATOM     19  H   LIG d   1      -2.704  91.279 117.958  0.00  0.00    -0.090 HD
ATOM     20  H   LIG d   1      -2.237  92.794 117.600  0.00  0.00    -0.090 HD
ATOM     21  H   LIG d   1      -2.318  91.664 116.417  0.00  0.00    -0.090 HD
ENDBRANCH   5  18
BRANCH   3  22
ATOM     22  C   LIG d   1      -7.133  90.389 116.237  0.00  0.00     0.382 C 
ATOM     23  O   LIG d   1      -8.221  90.725 115.709  0.00  0.00    -0.241 OA
ATOM     24  O   LIG d   1      -6.787  89.192 116.218  0.00  0.00    -0.241 OA
ENDBRANCH   3  22
TORSDOF 7
ENDMDL
MODEL 6
REMARK VINA RESULT:      -5.1      2.594      4.856
REMARK  7 active torsions:
REMARK  status: ('A' for Active; 'I' for Inactive)
REMARK    1  A    between atoms: C_2  and  C_3 
REMARK    2  A    between atoms: C_3  and  O_6 
REMARK    3  A    between atoms: C_3  and  C_4 
REMARK    4  A    between atoms: C_7  and  O_6 
REMARK    5  A    between atoms: C_9  and  C_10 
REMARK    6  A    between atoms: N_15  and  C_14 
REMARK    7  A    between atoms: N_20  and  C_19 
REMARK       I    between atoms: C_22  and  N_20 
ROOT
ATOM      1  C   LIG d   1      -6.015  91.831 118.668  0.00  0.00     0.161 C 
ATOM      2  C   LIG d   1      -5.298  90.947 117.845  0.00  0.00     0.016 C 
ATOM      3  C   LIG d   1      -5.618  90.715 116.487  0.00  0.00     0.038 C 
ATOM      4  C   LIG d   1      -6.591  91.469 115.815  0.00  0.00     0.028 C 
ATOM      5  C   LIG d   1      -7.678  92.015 116.736  0.00  0.00    -0.047 C 
ATOM      6  C   LIG d   1      -7.010  92.746 117.922  0.00  0.00     0.091 C 
ENDROOT
BRANCH   1   7
ATOM      7  O   LIG d   1      -5.099  92.621 119.452  0.00  0.00    -0.368 OA
BRANCH   7   8
ATOM      8  C   LIG d   1      -4.392  93.668 118.743  0.00  0.00     0.119 C 
BRANCH   8   9
ATOM      9  C   LIG d   1      -2.885  93.370 118.862  0.00  0.00     0.028 C 
ATOM     10  C   LIG d   1      -2.072  93.988 117.711  0.00  0.00     0.006 C 
ENDBRANCH   8   9
BRANCH   8  11
ATOM     11  C   LIG d   1      -4.591  95.029 119.416  0.00  0.00     0.028 C 
ATOM     12  C   LIG d   1      -5.257  94.920 120.797  0.00  0.00     0.006 C 
ENDBRANCH   8  11
ENDBRANCH   7   8
ENDBRANCH   1   7
BRANCH   6  13
ATOM     13  N   LIG d   1      -8.000  93.238 118.915  0.00  0.00    -0.311 N 
ATOM     14  C   LIG d   1      -8.442  94.494 118.950  0.00  0.00     0.210 C 
ATOM     15  C   LIG d   1      -9.446  94.795 120.067  0.00  0.00     0.109 C 
ATOM     16  O   LIG d   1      -8.122  95.379 118.142  0.00  0.00    -0.276 OA
ATOM     17  H   LIG d   1      -8.337  92.578 119.589  0.00  0.00     0.149 HD
ENDBRANCH   6  13
BRANCH   5  18
ATOM     18  N   LIG d   1      -8.545  92.893 115.929  0.00  0.00     0.381 N 
ATOM     19  H   LIG d   1      -9.254  93.296 116.510  0.00  0.00    -0.090 HD
ATOM     20  H   LIG d   1      -8.995  92.343 115.219  0.00  0.00    -0.090 HD
ATOM     21  H   LIG d   1      -8.002  93.614 115.507  0.00  0.00    -0.090 HD
ENDBRANCH   5  18
BRANCH   3  22
ATOM     22  C   LIG d   1      -4.988  89.689 115.799  0.00  0.00     0.382 C 
ATOM     23  O   LIG d   1      -5.386  89.366 114.654  0.00  0.00    -0.241 OA
ATOM     24  O   LIG d   1      -4.055  89.054 116.326  0.00  0.00    -0.241 OA
ENDBRANCH   3  22
TORSDOF 7
ENDMDL
MODEL 7
REMARK VINA RESULT:      -5.1      2.573      4.383
REMARK  7 active torsions:
REMARK  status: ('A' for Active; 'I' for Inactive)
REMARK    1  A    between atoms: C_2  and  C_3 
REMARK    2  A    between atoms: C_3  and  O_6 
REMARK    3  A    between atoms: C_3  and  C_4 
REMARK    4  A    between atoms: C_7  and  O_6 
REMARK    5  A    between atoms: C_9  and  C_10 
REMARK    6  A    between atoms: N_15  and  C_14 
REMARK    7  A    between atoms: N_20  and  C_19 
REMARK       I    between atoms: C_22  and  N_20 
ROOT
ATOM      1  C   LIG d   1      -4.730  92.672 117.516  0.00  0.00     0.161 C 
ATOM      2  C   LIG d   1      -4.765  91.534 116.693  0.00  0.00     0.016 C 
ATOM      3  C   LIG d   1      -5.927  91.100 116.015  0.00  0.00     0.038 C 
ATOM      4  C   LIG d   1      -7.103  91.865 115.994  0.00  0.00     0.028 C 
ATOM      5  C   LIG d   1      -7.266  92.758 117.220  0.00  0.00    -0.047 C 
ATOM      6  C   LIG d   1      -5.973  93.581 117.417  0.00  0.00     0.091 C 
ENDROOT
BRANCH   1   7
ATOM      7  O   LIG d   1      -3.533  93.430 117.251  0.00  0.00    -0.368 OA
BRANCH   7   8
ATOM      8  C   LIG d   1      -2.413  93.182 118.137  0.00  0.00     0.119 C 
BRANCH   8   9
ATOM      9  C   LIG d   1      -2.987  92.758 119.502  0.00  0.00     0.028 C 
ATOM     10  C   LIG d   1      -2.039  91.823 120.272  0.00  0.00     0.006 C 
ENDBRANCH   8   9
BRANCH   8  11
ATOM     11  C   LIG d   1      -1.624  94.466 118.410  0.00  0.00     0.028 C 
ATOM     12  C   LIG d   1      -2.511  95.614 118.917  0.00  0.00     0.006 C 
ENDBRANCH   8  11
ENDBRANCH   7   8
ENDBRANCH   1   7
BRANCH   6  13
ATOM     13  N   LIG d   1      -6.016  94.419 118.643  0.00  0.00    -0.311 N 
ATOM     14  C   LIG d   1      -6.518  95.652 118.671  0.00  0.00     0.210 C 
ATOM     15  C   LIG d   1      -6.447  96.349 120.033  0.00  0.00     0.109 C 
ATOM     16  O   LIG d   1      -7.046  96.223 117.704  0.00  0.00    -0.276 OA
ATOM     17  H   LIG d   1      -5.637  94.022 119.481  0.00  0.00     0.149 HD
ENDBRANCH   6  13
BRANCH   5  18
ATOM     18  N   LIG d   1      -8.459  93.598 117.003  0.00  0.00     0.381 N 
ATOM     19  H   LIG d   1      -9.013  93.215 116.264  0.00  0.00    -0.090 HD
ATOM     20  H   LIG d   1      -8.163  94.519 116.731  0.00  0.00    -0.090 HD
ATOM     21  H   LIG d   1      -8.997  93.648 117.840  0.00  0.00    -0.090 HD
ENDBRANCH   5  18
BRANCH   3  22
ATOM     22  C   LIG d   1      -5.932  89.867 115.380  0.00  0.00     0.382 C 
ATOM     23  O   LIG d   1      -5.020  89.038 115.614  0.00  0.00    -0.241 OA
ATOM     24  O   LIG d   1      -6.813  89.591 114.544  0.00  0.00    -0.241 OA
ENDBRANCH   3  22
TORSDOF 7
ENDMDL
MODEL 8
REMARK VINA RESULT:      -5.0      2.515      5.940
REMARK  7 active torsions:
REMARK  status: ('A' for Active; 'I' for Inactive)
REMARK    1  A    between atoms: C_2  and  C_3 
REMARK    2  A    between atoms: C_3  and  O_6 
REMARK    3  A    between atoms: C_3  and  C_4 
REMARK    4  A    between atoms: C_7  and  O_6 
REMARK    5  A    between atoms: C_9  and  C_10 
REMARK    6  A    between atoms: N_15  and  C_14 
REMARK    7  A    between atoms: N_20  and  C_19 
REMARK       I    between atoms: C_22  and  N_20 
ROOT
ATOM      1  C   LIG d   1      -3.269  90.346 117.215  0.00  0.00     0.161 C 
ATOM      2  C   LIG d   1      -2.097  91.056 117.522  0.00  0.00     0.016 C 
ATOM      3  C   LIG d   1      -2.057  92.460 117.684  0.00  0.00     0.038 C 
ATOM      4  C   LIG d   1      -3.225  93.238 117.698  0.00  0.00     0.028 C 
ATOM      5  C   LIG d   1      -4.367  92.631 116.891  0.00  0.00    -0.047 C 
ATOM      6  C   LIG d   1      -4.572  91.164 117.336  0.00  0.00     0.091 C 
ENDROOT
BRANCH   1   7
ATOM      7  O   LIG d   1      -3.347  89.157 118.026  0.00  0.00    -0.368 OA
BRANCH   7   8
ATOM      8  C   LIG d   1      -2.088  88.642 118.524  0.00  0.00     0.119 C 
BRANCH   8   9
ATOM      9  C   LIG d   1      -1.764  87.362 117.729  0.00  0.00     0.028 C 
ATOM     10  C   LIG d   1      -0.573  87.549 116.775  0.00  0.00     0.006 C 
ENDBRANCH   8   9
BRANCH   8  11
ATOM     11  C   LIG d   1      -2.208  88.194 119.984  0.00  0.00     0.028 C 
ATOM     12  C   LIG d   1      -2.179  86.665 120.142  0.00  0.00     0.006 C 
ENDBRANCH   8  11
ENDBRANCH   7   8
ENDBRANCH   1   7
BRANCH   6  13
ATOM     13  N   LIG d   1      -5.615  90.470 116.538  0.00  0.00    -0.311 N 
ATOM     14  C   LIG d   1      -6.902  90.438 116.882  0.00  0.00     0.210 C 
ATOM     15  C   LIG d   1      -7.807  89.650 115.929  0.00  0.00     0.109 C 
ATOM     16  O   LIG d   1      -7.384  91.014 117.868  0.00  0.00    -0.276 OA
ATOM     17  H   LIG d   1      -5.316  90.002 115.704  0.00  0.00     0.149 HD
ENDBRANCH   6  13
BRANCH   5  18
ATOM     18  N   LIG d   1      -5.560  93.471 117.105  0.00  0.00     0.381 N 
ATOM     19  H   LIG d   1      -6.210  93.334 116.357  0.00  0.00    -0.090 HD
ATOM     20  H   LIG d   1      -5.281  94.437 117.107  0.00  0.00    -0.090 HD
ATOM     21  H   LIG d   1      -5.989  93.240 117.974  0.00  0.00    -0.090 HD
ENDBRANCH   5  18
BRANCH   3  22
ATOM     22  C   LIG d   1      -0.835  93.105 117.794  0.00  0.00     0.382 C 
ATOM     23  O   LIG d   1      -0.795  94.343 117.998  0.00  0.00    -0.241 OA
ATOM     24  O   LIG d   1       0.228  92.473 117.649  0.00  0.00    -0.241 OA
ENDBRANCH   3  22
TORSDOF 7
ENDMDL
MODEL 9
REMARK VINA RESULT:      -4.9      2.570      4.553
REMARK  7 active torsions:
REMARK  status: ('A' for Active; 'I' for Inactive)
REMARK    1  A    between atoms: C_2  and  C_3 
REMARK    2  A    between atoms: C_3  and  O_6 
REMARK    3  A    between atoms: C_3  and  C_4 
REMARK    4  A    between atoms: C_7  and  O_6 
REMARK    5  A    between atoms: C_9  and  C_10 
REMARK    6  A    between atoms: N_15  and  C_14 
REMARK    7  A    between atoms: N_20  and  C_19 
REMARK       I    between atoms: C_22  and  N_20 
ROOT
ATOM      1  C   LIG d   1      -6.134  92.965 118.122  0.00  0.00     0.161 C 
ATOM      2  C   LIG d   1      -7.445  93.344 118.458  0.00  0.00     0.016 C 
ATOM      3  C   LIG d   1      -7.783  93.982 119.673  0.00  0.00     0.038 C 
ATOM      4  C   LIG d   1      -6.805  94.423 120.576  0.00  0.00     0.028 C 
ATOM      5  C   LIG d   1      -5.514  93.614 120.515  0.00  0.00    -0.047 C 
ATOM      6  C   LIG d   1      -5.039  93.538 119.046  0.00  0.00     0.091 C 
ENDROOT
BRANCH   1   7
ATOM      7  O   LIG d   1      -5.862  93.309 116.749  0.00  0.00    -0.368 OA
BRANCH   7   8
ATOM      8  C   LIG d   1      -5.707  92.198 115.832  0.00  0.00     0.119 C 
BRANCH   8   9
ATOM      9  C   LIG d   1      -6.941  92.184 114.909  0.00  0.00     0.028 C 
ATOM     10  C   LIG d   1      -7.894  91.019 115.222  0.00  0.00     0.006 C 
ENDBRANCH   8   9
BRANCH   8  11
ATOM     11  C   LIG d   1      -5.738  90.857 116.571  0.00  0.00     0.028 C 
ATOM     12  C   LIG d   1      -4.431  90.062 116.418  0.00  0.00     0.006 C 
ENDBRANCH   8  11
ENDBRANCH   7   8
ENDBRANCH   1   7
BRANCH   6  13
ATOM     13  N   LIG d   1      -3.827  92.693 118.885  0.00  0.00    -0.311 N 
ATOM     14  C   LIG d   1      -2.734  93.094 118.238  0.00  0.00     0.210 C 
ATOM     15  C   LIG d   1      -1.606  92.059 118.171  0.00  0.00     0.109 C 
ATOM     16  O   LIG d   1      -2.579  94.220 117.742  0.00  0.00    -0.276 OA
ATOM     17  H   LIG d   1      -3.855  91.775 119.284  0.00  0.00     0.149 HD
ENDBRANCH   6  13
BRANCH   5  18
ATOM     18  N   LIG d   1      -4.536  94.266 121.406  0.00  0.00     0.381 N 
ATOM     19  H   LIG d   1      -4.250  93.626 122.120  0.00  0.00    -0.090 HD
ATOM     20  H   LIG d   1      -4.974  95.055 121.847  0.00  0.00    -0.090 HD
ATOM     21  H   LIG d   1      -3.744  94.565 120.882  0.00  0.00    -0.090 HD
ENDBRANCH   5  18
BRANCH   3  22
ATOM     22  C   LIG d   1      -9.117  94.148 120.013  0.00  0.00     0.382 C 
ATOM     23  O   LIG d   1      -9.506  95.231 120.515  0.00  0.00    -0.241 OA
ATOM     24  O   LIG d   1      -9.928  93.214 119.866  0.00  0.00    -0.241 OA
ENDBRANCH   3  22
TORSDOF 7
ENDMDL
