MODEL 1
REMARK VINA RESULT:      -5.8      0.000      0.000
REMARK  7 active torsions:
REMARK  status: ('A' for Active; 'I' for Inactive)
REMARK    1  A    between atoms: C_2  and  C_3 
REMARK    2  A    between atoms: C_3  and  O_6 
REMARK    3  A    between atoms: C_3  and  C_4 
REMARK    4  A    between atoms: C_7  and  O_6 
REMARK    5  A    between atoms: C_9  and  C_10 
REMARK    6  A    between atoms: N_15  and  C_14 
REMARK    7  A    between atoms: N_20  and  C_19 
REMARK       I    between atoms: C_22  and  N_20 
ROOT
ATOM      1  C   LIG d   1      -5.745  92.854 117.433  0.00  0.00     0.161 C 
ATOM      2  C   LIG d   1      -6.815  91.991 117.143  0.00  0.00     0.016 C 
ATOM      3  C   LIG d   1      -6.642  90.647 116.740  0.00  0.00     0.038 C 
ATOM      4  C   LIG d   1      -5.384  90.027 116.747  0.00  0.00     0.028 C 
ATOM      5  C   LIG d   1      -4.227  91.000 116.546  0.00  0.00    -0.047 C 
ATOM      6  C   LIG d   1      -4.371  92.164 117.554  0.00  0.00     0.091 C 
ENDROOT
BRANCH   1   7
ATOM      7  O   LIG d   1      -6.035  93.606 118.629  0.00  0.00    -0.368 OA
BRANCH   7   8
ATOM      8  C   LIG d   1      -6.942  94.725 118.475  0.00  0.00     0.119 C 
BRANCH   8   9
ATOM      9  C   LIG d   1      -6.172  96.002 118.862  0.00  0.00     0.028 C 
ATOM     10  C   LIG d   1      -4.926  95.701 119.711  0.00  0.00     0.006 C 
ENDBRANCH   8   9
BRANCH   8  11
ATOM     11  C   LIG d   1      -8.108  94.638 119.465  0.00  0.00     0.028 C 
ATOM     12  C   LIG d   1      -9.238  95.628 119.142  0.00  0.00     0.006 C 
ENDBRANCH   8  11
ENDBRANCH   7   8
ENDBRANCH   1   7
BRANCH   6  13
ATOM     13  N   LIG d   1      -3.327  93.205 117.369  0.00  0.00    -0.311 N 
ATOM     14  C   LIG d   1      -2.197  93.243 118.074  0.00  0.00     0.210 C 
ATOM     15  C   LIG d   1      -1.266  94.413 117.739  0.00  0.00     0.109 C 
ATOM     16  O   LIG d   1      -1.863  92.402 118.922  0.00  0.00    -0.276 OA
ATOM     17  H   LIG d   1      -3.502  93.910 116.680  0.00  0.00     0.149 HD
ENDBRANCH   6  13
BRANCH   5  18
ATOM     18  N   LIG d   1      -2.973  90.243 116.713  0.00  0.00     0.381 N 
ATOM     19  H   LIG d   1      -2.355  90.740 117.322  0.00  0.00    -0.090 HD
ATOM     20  H   LIG d   1      -2.527  90.152 115.817  0.00  0.00    -0.090 HD
ATOM     21  H   LIG d   1      -3.166  89.340 117.089  0.00  0.00    -0.090 HD
ENDBRANCH   5  18
BRANCH   3  22
ATOM     22  C   LIG d   1      -7.732  89.920 116.286  0.00  0.00     0.382 C 
ATOM     23  O   LIG d   1      -7.993  88.801 116.790  0.00  0.00    -0.241 OA
ATOM     24  O   LIG d   1      -8.432  90.349 115.349  0.00  0.00    -0.241 OA
ENDBRANCH   3  22
TORSDOF 7
ENDMDL
MODEL 2
REMARK VINA RESULT:      -5.6      1.109      1.909
REMARK  7 active torsions:
REMARK  status: ('A' for Active; 'I' for Inactive)
REMARK    1  A    between atoms: C_2  and  C_3 
REMARK    2  A    between atoms: C_3  and  O_6 
REMARK    3  A    between atoms: C_3  and  C_4 
REMARK    4  A    between atoms: C_7  and  O_6 
REMARK    5  A    between atoms: C_9  and  C_10 
REMARK    6  A    between atoms: N_15  and  C_14 
REMARK    7  A    between atoms: N_20  and  C_19 
REMARK       I    between atoms: C_22  and  N_20 
ROOT
ATOM      1  C   LIG d   1      -5.751  92.940 117.099  0.00  0.00     0.161 C 
ATOM      2  C   LIG d   1      -6.820  92.069 116.829  0.00  0.00     0.016 C 
ATOM      3  C   LIG d   1      -6.669  90.669 116.703  0.00  0.00     0.038 C 
ATOM      4  C   LIG d   1      -5.457  90.025 116.990  0.00  0.00     0.028 C 
ATOM      5  C   LIG d   1      -4.234  90.910 116.773  0.00  0.00    -0.047 C 
ATOM      6  C   LIG d   1      -4.441  92.245 117.525  0.00  0.00     0.091 C 
ENDROOT
BRANCH   1   7
ATOM      7  O   LIG d   1      -6.149  93.909 118.089  0.00  0.00    -0.368 OA
BRANCH   7   8
ATOM      8  C   LIG d   1      -6.642  93.374 119.342  0.00  0.00     0.119 C 
BRANCH   8   9
ATOM      9  C   LIG d   1      -7.901  94.178 119.724  0.00  0.00     0.028 C 
ATOM     10  C   LIG d   1      -8.337  95.148 118.614  0.00  0.00     0.006 C 
ENDBRANCH   8   9
BRANCH   8  11
ATOM     11  C   LIG d   1      -5.647  93.613 120.481  0.00  0.00     0.028 C 
ATOM     12  C   LIG d   1      -5.235  92.316 121.194  0.00  0.00     0.006 C 
ENDBRANCH   8  11
ENDBRANCH   7   8
ENDBRANCH   1   7
BRANCH   6  13
ATOM     13  N   LIG d   1      -3.328  93.203 117.296  0.00  0.00    -0.311 N 
ATOM     14  C   LIG d   1      -2.318  93.370 118.148  0.00  0.00     0.210 C 
ATOM     15  C   LIG d   1      -1.287  94.423 117.730  0.00  0.00     0.109 C 
ATOM     16  O   LIG d   1      -2.161  92.723 119.194  0.00  0.00    -0.276 OA
ATOM     17  H   LIG d   1      -3.360  93.747 116.456  0.00  0.00     0.149 HD
ENDBRANCH   6  13
BRANCH   5  18
ATOM     18  N   LIG d   1      -3.052  90.161 117.240  0.00  0.00     0.381 N 
ATOM     19  H   LIG d   1      -3.068  89.234 116.863  0.00  0.00    -0.090 HD
ATOM     20  H   LIG d   1      -3.085  90.094 118.242  0.00  0.00    -0.090 HD
ATOM     21  H   LIG d   1      -2.219  90.627 116.957  0.00  0.00    -0.090 HD
ENDBRANCH   5  18
BRANCH   3  22
ATOM     22  C   LIG d   1      -7.731  89.902 116.247  0.00  0.00     0.382 C 
ATOM     23  O   LIG d   1      -8.456  90.327 115.315  0.00  0.00    -0.241 OA
ATOM     24  O   LIG d   1      -7.999  88.811 116.785  0.00  0.00    -0.241 OA
ENDBRANCH   3  22
TORSDOF 7
ENDMDL
MODEL 3
REMARK VINA RESULT:      -5.5      1.979      4.786
REMARK  7 active torsions:
REMARK  status: ('A' for Active; 'I' for Inactive)
REMARK    1  A    between atoms: C_2  and  C_3 
REMARK    2  A    between atoms: C_3  and  O_6 
REMARK    3  A    between atoms: C_3  and  C_4 
REMARK    4  A    between atoms: C_7  and  O_6 
REMARK    5  A    between atoms: C_9  and  C_10 
REMARK    6  A    between atoms: N_15  and  C_14 
REMARK    7  A    between atoms: N_20  and  C_19 
REMARK       I    between atoms: C_22  and  N_20 
ROOT
ATOM      1  C   LIG d   1      -5.991  92.890 117.507  0.00  0.00     0.161 C 
ATOM      2  C   LIG d   1      -7.266  93.445 117.708  0.00  0.00     0.016 C 
ATOM      3  C   LIG d   1      -7.556  94.379 118.729  0.00  0.00     0.038 C 
ATOM      4  C   LIG d   1      -6.549  94.939 119.529  0.00  0.00     0.028 C 
ATOM      5  C   LIG d   1      -5.333  94.034 119.695  0.00  0.00    -0.047 C 
ATOM      6  C   LIG d   1      -4.856  93.573 118.298  0.00  0.00     0.091 C 
ENDROOT
BRANCH   1   7
ATOM      7  O   LIG d   1      -5.681  92.875 116.099  0.00  0.00    -0.368 OA
BRANCH   7   8
ATOM      8  C   LIG d   1      -5.683  91.575 115.460  0.00  0.00     0.119 C 
BRANCH   8   9
ATOM      9  C   LIG d   1      -7.062  91.386 114.799  0.00  0.00     0.028 C 
ATOM     10  C   LIG d   1      -7.931  90.356 115.540  0.00  0.00     0.006 C 
ENDBRANCH   8   9
BRANCH   8  11
ATOM     11  C   LIG d   1      -5.569  90.447 116.490  0.00  0.00     0.028 C 
ATOM     12  C   LIG d   1      -4.246  89.672 116.382  0.00  0.00     0.006 C 
ENDBRANCH   8  11
ENDBRANCH   7   8
ENDBRANCH   1   7
BRANCH   6  13
ATOM     13  N   LIG d   1      -3.721  92.616 118.374  0.00  0.00    -0.311 N 
ATOM     14  C   LIG d   1      -2.447  92.979 118.242  0.00  0.00     0.210 C 
ATOM     15  C   LIG d   1      -1.435  91.832 118.333  0.00  0.00     0.109 C 
ATOM     16  O   LIG d   1      -2.055  94.146 118.090  0.00  0.00    -0.276 OA
ATOM     17  H   LIG d   1      -3.947  91.653 118.527  0.00  0.00     0.149 HD
ENDBRANCH   6  13
BRANCH   5  18
ATOM     18  N   LIG d   1      -4.308  94.796 120.433  0.00  0.00     0.381 N 
ATOM     19  H   LIG d   1      -4.750  95.432 121.066  0.00  0.00    -0.090 HD
ATOM     20  H   LIG d   1      -3.764  95.329 119.778  0.00  0.00    -0.090 HD
ATOM     21  H   LIG d   1      -3.717  94.172 120.937  0.00  0.00    -0.090 HD
ENDBRANCH   5  18
BRANCH   3  22
ATOM     22  C   LIG d   1      -8.872  94.731 118.984  0.00  0.00     0.382 C 
ATOM     23  O   LIG d   1      -9.568  94.035 119.763  0.00  0.00    -0.241 OA
ATOM     24  O   LIG d   1      -9.387  95.710 118.411  0.00  0.00    -0.241 OA
ENDBRANCH   3  22
TORSDOF 7
ENDMDL
MODEL 4
REMARK VINA RESULT:      -5.2      2.165      4.477
REMARK  7 active torsions:
REMARK  status: ('A' for Active; 'I' for Inactive)
REMARK    1  A    between atoms: C_2  and  C_3 
REMARK    2  A    between atoms: C_3  and  O_6 
REMARK    3  A    between atoms: C_3  and  C_4 
REMARK    4  A    between atoms: C_7  and  O_6 
REMARK    5  A    between atoms: C_9  and  C_10 
REMARK    6  A    between atoms: N_15  and  C_14 
REMARK    7  A    between atoms: N_20  and  C_19 
REMARK       I    between atoms: C_22  and  N_20 
ROOT
ATOM      1  C   LIG d   1      -4.365  92.516 117.887  0.00  0.00     0.161 C 
ATOM      2  C   LIG d   1      -4.540  91.550 116.883  0.00  0.00     0.016 C 
ATOM      3  C   LIG d   1      -5.760  91.354 116.196  0.00  0.00     0.038 C 
ATOM      4  C   LIG d   1      -6.853  92.217 116.364  0.00  0.00     0.028 C 
ATOM      5  C   LIG d   1      -6.888  92.891 117.731  0.00  0.00    -0.047 C 
ATOM      6  C   LIG d   1      -5.513  93.541 118.006  0.00  0.00     0.091 C 
ENDROOT
BRANCH   1   7
ATOM      7  O   LIG d   1      -3.106  93.193 117.701  0.00  0.00    -0.368 OA
BRANCH   7   8
ATOM      8  C   LIG d   1      -1.947  92.558 118.295  0.00  0.00     0.119 C 
BRANCH   8   9
ATOM      9  C   LIG d   1      -2.232  92.392 119.801  0.00  0.00     0.028 C 
ATOM     10  C   LIG d   1      -2.084  93.713 120.575  0.00  0.00     0.006 C 
ENDBRANCH   8   9
BRANCH   8  11
ATOM     11  C   LIG d   1      -0.714  93.462 118.213  0.00  0.00     0.028 C 
ATOM     12  C   LIG d   1      -0.898  94.635 117.238  0.00  0.00     0.006 C 
ENDBRANCH   8  11
ENDBRANCH   7   8
ENDBRANCH   1   7
BRANCH   6  13
ATOM     13  N   LIG d   1      -5.433  94.151 119.359  0.00  0.00    -0.311 N 
ATOM     14  C   LIG d   1      -5.689  95.435 119.601  0.00  0.00     0.210 C 
ATOM     15  C   LIG d   1      -5.529  95.862 121.063  0.00  0.00     0.109 C 
ATOM     16  O   LIG d   1      -6.065  96.254 118.749  0.00  0.00    -0.276 OA
ATOM     17  H   LIG d   1      -5.166  93.550 120.115  0.00  0.00     0.149 HD
ENDBRANCH   6  13
BRANCH   5  18
ATOM     18  N   LIG d   1      -7.996  93.865 117.720  0.00  0.00     0.381 N 
ATOM     19  H   LIG d   1      -7.629  94.795 117.759  0.00  0.00    -0.090 HD
ATOM     20  H   LIG d   1      -8.567  93.717 118.533  0.00  0.00    -0.090 HD
ATOM     21  H   LIG d   1      -8.542  93.750 116.895  0.00  0.00    -0.090 HD
ENDBRANCH   5  18
BRANCH   3  22
ATOM     22  C   LIG d   1      -5.909  90.258 115.359  0.00  0.00     0.382 C 
ATOM     23  O   LIG d   1      -6.974  90.103 114.713  0.00  0.00    -0.241 OA
ATOM     24  O   LIG d   1      -5.011  89.400 115.276  0.00  0.00    -0.241 OA
ENDBRANCH   3  22
TORSDOF 7
ENDMDL
MODEL 5
REMARK VINA RESULT:      -5.1      1.538      4.849
REMARK  7 active torsions:
REMARK  status: ('A' for Active; 'I' for Inactive)
REMARK    1  A    between atoms: C_2  and  C_3 
REMARK    2  A    between atoms: C_3  and  O_6 
REMARK    3  A    between atoms: C_3  and  C_4 
REMARK    4  A    between atoms: C_7  and  O_6 
REMARK    5  A    between atoms: C_9  and  C_10 
REMARK    6  A    between atoms: N_15  and  C_14 
REMARK    7  A    between atoms: N_20  and  C_19 
REMARK       I    between atoms: C_22  and  N_20 
ROOT
ATOM      1  C   LIG d   1      -6.198  91.988 118.702  0.00  0.00     0.161 C 
ATOM      2  C   LIG d   1      -4.983  92.586 119.076  0.00  0.00     0.016 C 
ATOM      3  C   LIG d   1      -3.738  92.245 118.499  0.00  0.00     0.038 C 
ATOM      4  C   LIG d   1      -3.643  91.385 117.395  0.00  0.00     0.028 C 
ATOM      5  C   LIG d   1      -4.782  90.375 117.314  0.00  0.00    -0.047 C 
ATOM      6  C   LIG d   1      -6.128  91.128 117.422  0.00  0.00     0.091 C 
ENDROOT
BRANCH   1   7
ATOM      7  O   LIG d   1      -7.219  92.996 118.573  0.00  0.00    -0.368 OA
BRANCH   7   8
ATOM      8  C   LIG d   1      -7.108  94.134 119.463  0.00  0.00     0.119 C 
BRANCH   8   9
ATOM      9  C   LIG d   1      -8.384  94.173 120.325  0.00  0.00     0.028 C 
ATOM     10  C   LIG d   1      -9.458  95.108 119.742  0.00  0.00     0.006 C 
ENDBRANCH   8   9
BRANCH   8  11
ATOM     11  C   LIG d   1      -7.104  95.453 118.684  0.00  0.00     0.028 C 
ATOM     12  C   LIG d   1      -5.908  96.350 119.039  0.00  0.00     0.006 C 
ENDBRANCH   8  11
ENDBRANCH   7   8
ENDBRANCH   1   7
BRANCH   6  13
ATOM     13  N   LIG d   1      -7.294  90.206 117.436  0.00  0.00    -0.311 N 
ATOM     14  C   LIG d   1      -7.880  89.748 116.331  0.00  0.00     0.210 C 
ATOM     15  C   LIG d   1      -9.079  88.825 116.570  0.00  0.00     0.109 C 
ATOM     16  O   LIG d   1      -7.501  89.993 115.176  0.00  0.00    -0.276 OA
ATOM     17  H   LIG d   1      -7.647  89.931 118.332  0.00  0.00     0.149 HD
ENDBRANCH   6  13
BRANCH   5  18
ATOM     18  N   LIG d   1      -4.634  89.636 116.046  0.00  0.00     0.381 N 
ATOM     19  H   LIG d   1      -4.839  88.667 116.192  0.00  0.00    -0.090 HD
ATOM     20  H   LIG d   1      -3.682  89.713 115.734  0.00  0.00    -0.090 HD
ATOM     21  H   LIG d   1      -5.248  90.012 115.358  0.00  0.00    -0.090 HD
ENDBRANCH   5  18
BRANCH   3  22
ATOM     22  C   LIG d   1      -2.566  92.737 119.053  0.00  0.00     0.382 C 
ATOM     23  O   LIG d   1      -2.586  93.273 120.187  0.00  0.00    -0.241 OA
ATOM     24  O   LIG d   1      -1.497  92.691 118.415  0.00  0.00    -0.241 OA
ENDBRANCH   3  22
TORSDOF 7
ENDMDL
MODEL 6
REMARK VINA RESULT:      -5.0      2.256      4.824
REMARK  7 active torsions:
REMARK  status: ('A' for Active; 'I' for Inactive)
REMARK    1  A    between atoms: C_2  and  C_3 
REMARK    2  A    between atoms: C_3  and  O_6 
REMARK    3  A    between atoms: C_3  and  C_4 
REMARK    4  A    between atoms: C_7  and  O_6 
REMARK    5  A    between atoms: C_9  and  C_10 
REMARK    6  A    between atoms: N_15  and  C_14 
REMARK    7  A    between atoms: N_20  and  C_19 
REMARK       I    between atoms: C_22  and  N_20 
ROOT
ATOM      1  C   LIG d   1      -4.358  91.006 117.965  0.00  0.00     0.161 C 
ATOM      2  C   LIG d   1      -5.355  90.316 117.255  0.00  0.00     0.016 C 
ATOM      3  C   LIG d   1      -6.538  90.928 116.781  0.00  0.00     0.038 C 
ATOM      4  C   LIG d   1      -6.736  92.314 116.854  0.00  0.00     0.028 C 
ATOM      5  C   LIG d   1      -5.989  92.973 118.009  0.00  0.00    -0.047 C 
ATOM      6  C   LIG d   1      -4.505  92.542 117.957  0.00  0.00     0.091 C 
ENDROOT
BRANCH   1   7
ATOM      7  O   LIG d   1      -3.057  90.625 117.475  0.00  0.00    -0.368 OA
BRANCH   7   8
ATOM      8  C   LIG d   1      -2.265  89.789 118.355  0.00  0.00     0.119 C 
BRANCH   8   9
ATOM      9  C   LIG d   1      -0.864  90.423 118.458  0.00  0.00     0.028 C 
ATOM     10  C   LIG d   1      -0.172  90.542 117.090  0.00  0.00     0.006 C 
ENDBRANCH   8   9
BRANCH   8  11
ATOM     11  C   LIG d   1      -2.039  88.400 117.750  0.00  0.00     0.028 C 
ATOM     12  C   LIG d   1      -1.729  87.332 118.811  0.00  0.00     0.006 C 
ENDBRANCH   8  11
ENDBRANCH   7   8
ENDBRANCH   1   7
BRANCH   6  13
ATOM     13  N   LIG d   1      -3.720  93.075 119.101  0.00  0.00    -0.311 N 
ATOM     14  C   LIG d   1      -2.549  93.694 118.961  0.00  0.00     0.210 C 
ATOM     15  C   LIG d   1      -1.897  94.147 120.271  0.00  0.00     0.109 C 
ATOM     16  O   LIG d   1      -2.004  93.939 117.874  0.00  0.00    -0.276 OA
ATOM     17  H   LIG d   1      -4.103  92.947 120.016  0.00  0.00     0.149 HD
ENDBRANCH   6  13
BRANCH   5  18
ATOM     18  N   LIG d   1      -6.172  94.431 117.884  0.00  0.00     0.381 N 
ATOM     19  H   LIG d   1      -6.248  94.842 118.793  0.00  0.00    -0.090 HD
ATOM     20  H   LIG d   1      -7.025  94.610 117.385  0.00  0.00    -0.090 HD
ATOM     21  H   LIG d   1      -5.402  94.831 117.394  0.00  0.00    -0.090 HD
ENDBRANCH   5  18
BRANCH   3  22
ATOM     22  C   LIG d   1      -7.557  90.143 116.262  0.00  0.00     0.382 C 
ATOM     23  O   LIG d   1      -8.300  90.598 115.358  0.00  0.00    -0.241 OA
ATOM     24  O   LIG d   1      -7.771  89.004 116.717  0.00  0.00    -0.241 OA
ENDBRANCH   3  22
TORSDOF 7
ENDMDL
MODEL 7
REMARK VINA RESULT:      -4.7      2.066      4.982
REMARK  7 active torsions:
REMARK  status: ('A' for Active; 'I' for Inactive)
REMARK    1  A    between atoms: C_2  and  C_3 
REMARK    2  A    between atoms: C_3  and  O_6 
REMARK    3  A    between atoms: C_3  and  C_4 
REMARK    4  A    between atoms: C_7  and  O_6 
REMARK    5  A    between atoms: C_9  and  C_10 
REMARK    6  A    between atoms: N_15  and  C_14 
REMARK    7  A    between atoms: N_20  and  C_19 
REMARK       I    between atoms: C_22  and  N_20 
ROOT
ATOM      1  C   LIG d   1      -6.087  93.272 118.289  0.00  0.00     0.161 C 
ATOM      2  C   LIG d   1      -7.349  93.877 118.409  0.00  0.00     0.016 C 
ATOM      3  C   LIG d   1      -7.581  95.051 119.163  0.00  0.00     0.038 C 
ATOM      4  C   LIG d   1      -6.530  95.789 119.728  0.00  0.00     0.028 C 
ATOM      5  C   LIG d   1      -5.305  94.943 120.057  0.00  0.00    -0.047 C 
ATOM      6  C   LIG d   1      -4.910  94.124 118.807  0.00  0.00     0.091 C 
ENDROOT
BRANCH   1   7
ATOM      7  O   LIG d   1      -5.860  92.883 116.920  0.00  0.00    -0.368 OA
BRANCH   7   8
ATOM      8  C   LIG d   1      -6.565  91.700 116.469  0.00  0.00     0.119 C 
BRANCH   8   9
ATOM      9  C   LIG d   1      -5.795  90.473 116.995  0.00  0.00     0.028 C 
ATOM     10  C   LIG d   1      -4.289  90.552 116.694  0.00  0.00     0.006 C 
ENDBRANCH   8   9
BRANCH   8  11
ATOM     11  C   LIG d   1      -6.528  91.578 114.942  0.00  0.00     0.028 C 
ATOM     12  C   LIG d   1      -7.199  90.294 114.431  0.00  0.00     0.006 C 
ENDBRANCH   8  11
ENDBRANCH   7   8
ENDBRANCH   1   7
BRANCH   6  13
ATOM     13  N   LIG d   1      -3.770  93.206 119.068  0.00  0.00    -0.311 N 
ATOM     14  C   LIG d   1      -2.505  93.508 118.781  0.00  0.00     0.210 C 
ATOM     15  C   LIG d   1      -1.488  92.411 119.113  0.00  0.00     0.109 C 
ATOM     16  O   LIG d   1      -2.125  94.592 118.314  0.00  0.00    -0.276 OA
ATOM     17  H   LIG d   1      -3.985  92.317 119.475  0.00  0.00     0.149 HD
ENDBRANCH   6  13
BRANCH   5  18
ATOM     18  N   LIG d   1      -4.240  95.858 120.509  0.00  0.00     0.381 N 
ATOM     19  H   LIG d   1      -3.483  95.332 120.897  0.00  0.00    -0.090 HD
ATOM     20  H   LIG d   1      -4.609  96.456 121.228  0.00  0.00    -0.090 HD
ATOM     21  H   LIG d   1      -3.915  96.408 119.745  0.00  0.00    -0.090 HD
ENDBRANCH   5  18
BRANCH   3  22
ATOM     22  C   LIG d   1      -8.881  95.476 119.390  0.00  0.00     0.382 C 
ATOM     23  O   LIG d   1      -9.093  96.606 119.893  0.00  0.00    -0.241 OA
ATOM     24  O   LIG d   1      -9.844  94.725 119.141  0.00  0.00    -0.241 OA
ENDBRANCH   3  22
TORSDOF 7
ENDMDL
MODEL 8
REMARK VINA RESULT:      -4.6      2.678      5.084
REMARK  7 active torsions:
REMARK  status: ('A' for Active; 'I' for Inactive)
REMARK    1  A    between atoms: C_2  and  C_3 
REMARK    2  A    between atoms: C_3  and  O_6 
REMARK    3  A    between atoms: C_3  and  C_4 
REMARK    4  A    between atoms: C_7  and  O_6 
REMARK    5  A    between atoms: C_9  and  C_10 
REMARK    6  A    between atoms: N_15  and  C_14 
REMARK    7  A    between atoms: N_20  and  C_19 
REMARK       I    between atoms: C_22  and  N_20 
ROOT
ATOM      1  C   LIG d   1      -2.973  91.315 118.013  0.00  0.00     0.161 C 
ATOM      2  C   LIG d   1      -3.542  90.452 117.061  0.00  0.00     0.016 C 
ATOM      3  C   LIG d   1      -4.752  90.729 116.384  0.00  0.00     0.038 C 
ATOM      4  C   LIG d   1      -5.401  91.967 116.503  0.00  0.00     0.028 C 
ATOM      5  C   LIG d   1      -5.134  92.665 117.832  0.00  0.00    -0.047 C 
ATOM      6  C   LIG d   1      -3.609  92.719 118.074  0.00  0.00     0.091 C 
ENDROOT
BRANCH   1   7
ATOM      7  O   LIG d   1      -1.552  91.417 117.792  0.00  0.00    -0.368 OA
BRANCH   7   8
ATOM      8  C   LIG d   1      -0.705  90.999 118.890  0.00  0.00     0.119 C 
BRANCH   8   9
ATOM      9  C   LIG d   1       0.634  91.749 118.753  0.00  0.00     0.028 C 
ATOM     10  C   LIG d   1       0.607  92.798 117.629  0.00  0.00     0.006 C 
ENDBRANCH   8   9
BRANCH   8  11
ATOM     11  C   LIG d   1      -0.350  89.512 118.786  0.00  0.00     0.028 C 
ATOM     12  C   LIG d   1       0.061  89.097 117.364  0.00  0.00     0.006 C 
ENDBRANCH   8  11
ENDBRANCH   7   8
ENDBRANCH   1   7
BRANCH   6  13
ATOM     13  N   LIG d   1      -3.264  93.312 119.392  0.00  0.00    -0.311 N 
ATOM     14  C   LIG d   1      -2.471  94.372 119.535  0.00  0.00     0.210 C 
ATOM     15  C   LIG d   1      -2.229  94.809 120.983  0.00  0.00     0.109 C 
ATOM     16  O   LIG d   1      -1.971  95.012 118.598  0.00  0.00    -0.276 OA
ATOM     17  H   LIG d   1      -3.652  92.874 120.205  0.00  0.00     0.149 HD
ENDBRANCH   6  13
BRANCH   5  18
ATOM     18  N   LIG d   1      -5.757  94.001 117.767  0.00  0.00     0.381 N 
ATOM     19  H   LIG d   1      -5.571  94.418 116.877  0.00  0.00    -0.090 HD
ATOM     20  H   LIG d   1      -5.353  94.583 118.479  0.00  0.00    -0.090 HD
ATOM     21  H   LIG d   1      -6.741  93.926 117.908  0.00  0.00    -0.090 HD
ENDBRANCH   5  18
BRANCH   3  22
ATOM     22  C   LIG d   1      -5.345  89.746 115.607  0.00  0.00     0.382 C 
ATOM     23  O   LIG d   1      -4.632  88.943 114.960  0.00  0.00    -0.241 OA
ATOM     24  O   LIG d   1      -6.585  89.681 115.510  0.00  0.00    -0.241 OA
ENDBRANCH   3  22
TORSDOF 7
ENDMDL
MODEL 9
REMARK VINA RESULT:      -4.6      1.871      2.206
REMARK  7 active torsions:
REMARK  status: ('A' for Active; 'I' for Inactive)
REMARK    1  A    between atoms: C_2  and  C_3 
REMARK    2  A    between atoms: C_3  and  O_6 
REMARK    3  A    between atoms: C_3  and  C_4 
REMARK    4  A    between atoms: C_7  and  O_6 
REMARK    5  A    between atoms: C_9  and  C_10 
REMARK    6  A    between atoms: N_15  and  C_14 
REMARK    7  A    between atoms: N_20  and  C_19 
REMARK       I    between atoms: C_22  and  N_20 
ROOT
ATOM      1  C   LIG d   1      -4.178  92.625 117.444  0.00  0.00     0.161 C 
ATOM      2  C   LIG d   1      -5.428  92.517 116.812  0.00  0.00     0.016 C 
ATOM      3  C   LIG d   1      -5.894  91.327 116.207  0.00  0.00     0.038 C 
ATOM      4  C   LIG d   1      -5.200  90.114 116.325  0.00  0.00     0.028 C 
ATOM      5  C   LIG d   1      -3.698  90.292 116.519  0.00  0.00    -0.047 C 
ATOM      6  C   LIG d   1      -3.455  91.283 117.680  0.00  0.00     0.091 C 
ENDROOT
BRANCH   1   7
ATOM      7  O   LIG d   1      -4.319  93.344 118.685  0.00  0.00    -0.368 OA
BRANCH   7   8
ATOM      8  C   LIG d   1      -5.635  93.881 118.965  0.00  0.00     0.119 C 
BRANCH   8   9
ATOM      9  C   LIG d   1      -5.469  95.384 119.263  0.00  0.00     0.028 C 
ATOM     10  C   LIG d   1      -4.027  95.748 119.654  0.00  0.00     0.006 C 
ENDBRANCH   8   9
BRANCH   8  11
ATOM     11  C   LIG d   1      -6.223  93.277 120.244  0.00  0.00     0.028 C 
ATOM     12  C   LIG d   1      -5.317  92.202 120.866  0.00  0.00     0.006 C 
ENDBRANCH   8  11
ENDBRANCH   7   8
ENDBRANCH   1   7
BRANCH   6  13
ATOM     13  N   LIG d   1      -2.013  91.578 117.881  0.00  0.00    -0.311 N 
ATOM     14  C   LIG d   1      -1.242  90.917 118.743  0.00  0.00     0.210 C 
ATOM     15  C   LIG d   1       0.212  91.395 118.808  0.00  0.00     0.109 C 
ATOM     16  O   LIG d   1      -1.616  89.958 119.435  0.00  0.00    -0.276 OA
ATOM     17  H   LIG d   1      -1.619  92.321 117.337  0.00  0.00     0.149 HD
ENDBRANCH   6  13
BRANCH   5  18
ATOM     18  N   LIG d   1      -3.119  88.958 116.766  0.00  0.00     0.381 N 
ATOM     19  H   LIG d   1      -3.741  88.418 117.333  0.00  0.00    -0.090 HD
ATOM     20  H   LIG d   1      -2.253  89.067 117.264  0.00  0.00    -0.090 HD
ATOM     21  H   LIG d   1      -2.956  88.491 115.901  0.00  0.00    -0.090 HD
ENDBRANCH   5  18
BRANCH   3  22
ATOM     22  C   LIG d   1      -7.048  91.353 115.439  0.00  0.00     0.382 C 
ATOM     23  O   LIG d   1      -8.014  90.607 115.732  0.00  0.00    -0.241 OA
ATOM     24  O   LIG d   1      -7.120  92.080 114.430  0.00  0.00    -0.241 OA
ENDBRANCH   3  22
TORSDOF 7
ENDMDL
