MODEL 1
REMARK VINA RESULT:      -5.1      0.000      0.000
REMARK  7 active torsions:
REMARK  status: ('A' for Active; 'I' for Inactive)
REMARK    1  A    between atoms: C_2  and  C_3 
REMARK    2  A    between atoms: C_3  and  O_6 
REMARK    3  A    between atoms: C_3  and  C_4 
REMARK    4  A    between atoms: C_7  and  O_6 
REMARK    5  A    between atoms: C_9  and  C_10 
REMARK    6  A    between atoms: N_15  and  C_14 
REMARK    7  A    between atoms: N_20  and  C_19 
REMARK       I    between atoms: C_22  and  N_20 
ROOT
ATOM      1  C   LIG d   1      -4.686  92.551 117.146  0.00  0.00     0.161 C 
ATOM      2  C   LIG d   1      -5.773  91.781 116.699  0.00  0.00     0.016 C 
ATOM      3  C   LIG d   1      -5.696  90.390 116.462  0.00  0.00     0.038 C 
ATOM      4  C   LIG d   1      -4.560  89.641 116.803  0.00  0.00     0.028 C 
ATOM      5  C   LIG d   1      -3.270  90.455 116.783  0.00  0.00    -0.047 C 
ATOM      6  C   LIG d   1      -3.470  91.733 117.630  0.00  0.00     0.091 C 
ENDROOT
BRANCH   1   7
ATOM      7  O   LIG d   1      -5.122  93.459 118.177  0.00  0.00    -0.368 OA
BRANCH   7   8
ATOM      8  C   LIG d   1      -6.548  93.502 118.427  0.00  0.00     0.119 C 
BRANCH   8   9
ATOM      9  C   LIG d   1      -7.021  94.944 118.160  0.00  0.00     0.028 C 
ATOM     10  C   LIG d   1      -8.402  95.232 118.773  0.00  0.00     0.006 C 
ENDBRANCH   8   9
BRANCH   8  11
ATOM     11  C   LIG d   1      -6.864  93.239 119.903  0.00  0.00     0.028 C 
ATOM     12  C   LIG d   1      -6.329  91.884 120.394  0.00  0.00     0.006 C 
ENDBRANCH   8  11
ENDBRANCH   7   8
ENDBRANCH   1   7
BRANCH   6  13
ATOM     13  N   LIG d   1      -2.284  92.628 117.595  0.00  0.00    -0.311 N 
ATOM     14  C   LIG d   1      -1.687  93.097 118.689  0.00  0.00     0.210 C 
ATOM     15  C   LIG d   1      -0.492  94.020 118.429  0.00  0.00     0.109 C 
ATOM     16  O   LIG d   1      -2.014  92.810 119.851  0.00  0.00    -0.276 OA
ATOM     17  H   LIG d   1      -1.934  92.886 116.693  0.00  0.00     0.149 HD
ENDBRANCH   6  13
BRANCH   5  18
ATOM     18  N   LIG d   1      -2.189  89.590 117.291  0.00  0.00     0.381 N 
ATOM     19  H   LIG d   1      -1.385  89.671 116.701  0.00  0.00    -0.090 HD
ATOM     20  H   LIG d   1      -2.500  88.634 117.269  0.00  0.00    -0.090 HD
ATOM     21  H   LIG d   1      -1.954  89.849 118.223  0.00  0.00    -0.090 HD
ENDBRANCH   5  18
BRANCH   3  22
ATOM     22  C   LIG d   1      -6.751  89.739 115.840  0.00  0.00     0.382 C 
ATOM     23  O   LIG d   1      -6.877  88.496 115.957  0.00  0.00    -0.241 OA
ATOM     24  O   LIG d   1      -7.552  90.373 115.128  0.00  0.00    -0.241 OA
ENDBRANCH   3  22
TORSDOF 7
ENDMDL
MODEL 2
REMARK VINA RESULT:      -4.9      2.413      4.472
REMARK  7 active torsions:
REMARK  status: ('A' for Active; 'I' for Inactive)
REMARK    1  A    between atoms: C_2  and  C_3 
REMARK    2  A    between atoms: C_3  and  O_6 
REMARK    3  A    between atoms: C_3  and  C_4 
REMARK    4  A    between atoms: C_7  and  O_6 
REMARK    5  A    between atoms: C_9  and  C_10 
REMARK    6  A    between atoms: N_15  and  C_14 
REMARK    7  A    between atoms: N_20  and  C_19 
REMARK       I    between atoms: C_22  and  N_20 
ROOT
ATOM      1  C   LIG d   1      -3.616  90.699 117.462  0.00  0.00     0.161 C 
ATOM      2  C   LIG d   1      -4.071  89.746 116.536  0.00  0.00     0.016 C 
ATOM      3  C   LIG d   1      -5.168  89.964 115.671  0.00  0.00     0.038 C 
ATOM      4  C   LIG d   1      -5.794  91.215 115.568  0.00  0.00     0.028 C 
ATOM      5  C   LIG d   1      -5.694  92.049 116.841  0.00  0.00    -0.047 C 
ATOM      6  C   LIG d   1      -4.215  92.110 117.287  0.00  0.00     0.091 C 
ENDROOT
BRANCH   1   7
ATOM      7  O   LIG d   1      -2.176  90.760 117.433  0.00  0.00    -0.368 OA
BRANCH   7   8
ATOM      8  C   LIG d   1      -1.491  90.211 118.587  0.00  0.00     0.119 C 
BRANCH   8   9
ATOM      9  C   LIG d   1      -0.351  91.182 118.953  0.00  0.00     0.028 C 
ATOM     10  C   LIG d   1       0.269  91.852 117.716  0.00  0.00     0.006 C 
ENDBRANCH   8   9
BRANCH   8  11
ATOM     11  C   LIG d   1      -0.803  88.886 118.248  0.00  0.00     0.028 C 
ATOM     12  C   LIG d   1      -1.647  87.661 118.633  0.00  0.00     0.006 C 
ENDBRANCH   8  11
ENDBRANCH   7   8
ENDBRANCH   1   7
BRANCH   6  13
ATOM     13  N   LIG d   1      -4.040  92.836 118.572  0.00  0.00    -0.311 N 
ATOM     14  C   LIG d   1      -3.131  93.792 118.755  0.00  0.00     0.210 C 
ATOM     15  C   LIG d   1      -3.105  94.397 120.162  0.00  0.00     0.109 C 
ATOM     16  O   LIG d   1      -2.365  94.218 117.878  0.00  0.00    -0.276 OA
ATOM     17  H   LIG d   1      -4.641  92.575 119.329  0.00  0.00     0.149 HD
ENDBRANCH   6  13
BRANCH   5  18
ATOM     18  N   LIG d   1      -6.266  93.377 116.550  0.00  0.00     0.381 N 
ATOM     19  H   LIG d   1      -6.397  93.884 117.403  0.00  0.00    -0.090 HD
ATOM     20  H   LIG d   1      -7.163  93.257 116.114  0.00  0.00    -0.090 HD
ATOM     21  H   LIG d   1      -5.659  93.884 115.944  0.00  0.00    -0.090 HD
ENDBRANCH   5  18
BRANCH   3  22
ATOM     22  C   LIG d   1      -5.675  88.911 114.926  0.00  0.00     0.382 C 
ATOM     23  O   LIG d   1      -6.915  88.784 114.782  0.00  0.00    -0.241 OA
ATOM     24  O   LIG d   1      -4.910  88.061 114.432  0.00  0.00    -0.241 OA
ENDBRANCH   3  22
TORSDOF 7
ENDMDL
MODEL 3
REMARK VINA RESULT:      -4.9      2.483      4.289
REMARK  7 active torsions:
REMARK  status: ('A' for Active; 'I' for Inactive)
REMARK    1  A    between atoms: C_2  and  C_3 
REMARK    2  A    between atoms: C_3  and  O_6 
REMARK    3  A    between atoms: C_3  and  C_4 
REMARK    4  A    between atoms: C_7  and  O_6 
REMARK    5  A    between atoms: C_9  and  C_10 
REMARK    6  A    between atoms: N_15  and  C_14 
REMARK    7  A    between atoms: N_20  and  C_19 
REMARK       I    between atoms: C_22  and  N_20 
ROOT
ATOM      1  C   LIG d   1      -3.589  90.965 117.567  0.00  0.00     0.161 C 
ATOM      2  C   LIG d   1      -3.953  89.918 116.703  0.00  0.00     0.016 C 
ATOM      3  C   LIG d   1      -5.040  89.994 115.803  0.00  0.00     0.038 C 
ATOM      4  C   LIG d   1      -5.750  91.187 115.596  0.00  0.00     0.028 C 
ATOM      5  C   LIG d   1      -5.741  92.115 116.807  0.00  0.00    -0.047 C 
ATOM      6  C   LIG d   1      -4.282  92.313 117.276  0.00  0.00     0.091 C 
ENDROOT
BRANCH   1   7
ATOM      7  O   LIG d   1      -2.157  91.126 117.562  0.00  0.00    -0.368 OA
BRANCH   7   8
ATOM      8  C   LIG d   1      -1.462  90.684 118.754  0.00  0.00     0.119 C 
BRANCH   8   9
ATOM      9  C   LIG d   1      -0.815  89.322 118.434  0.00  0.00     0.028 C 
ATOM     10  C   LIG d   1      -1.388  88.184 119.296  0.00  0.00     0.006 C 
ENDBRANCH   8   9
BRANCH   8  11
ATOM     11  C   LIG d   1      -2.441  90.409 119.900  0.00  0.00     0.028 C 
ATOM     12  C   LIG d   1      -2.227  91.342 121.103  0.00  0.00     0.006 C 
ENDBRANCH   8  11
ENDBRANCH   7   8
ENDBRANCH   1   7
BRANCH   6  13
ATOM     13  N   LIG d   1      -4.190  93.140 118.508  0.00  0.00    -0.311 N 
ATOM     14  C   LIG d   1      -3.240  94.051 118.710  0.00  0.00     0.210 C 
ATOM     15  C   LIG d   1      -3.318  94.779 120.056  0.00  0.00     0.109 C 
ATOM     16  O   LIG d   1      -2.359  94.349 117.889  0.00  0.00    -0.276 OA
ATOM     17  H   LIG d   1      -4.884  92.986 119.213  0.00  0.00     0.149 HD
ENDBRANCH   6  13
BRANCH   5  18
ATOM     18  N   LIG d   1      -6.396  93.374 116.407  0.00  0.00     0.381 N 
ATOM     19  H   LIG d   1      -5.806  93.877 115.775  0.00  0.00    -0.090 HD
ATOM     20  H   LIG d   1      -6.538  93.941 117.225  0.00  0.00    -0.090 HD
ATOM     21  H   LIG d   1      -7.272  93.181 115.973  0.00  0.00    -0.090 HD
ENDBRANCH   5  18
BRANCH   3  22
ATOM     22  C   LIG d   1      -5.454  88.857 115.127  0.00  0.00     0.382 C 
ATOM     23  O   LIG d   1      -6.579  88.831 114.573  0.00  0.00    -0.241 OA
ATOM     24  O   LIG d   1      -4.734  87.841 115.101  0.00  0.00    -0.241 OA
ENDBRANCH   3  22
TORSDOF 7
ENDMDL
MODEL 4
REMARK VINA RESULT:      -4.8      2.339      4.208
REMARK  7 active torsions:
REMARK  status: ('A' for Active; 'I' for Inactive)
REMARK    1  A    between atoms: C_2  and  C_3 
REMARK    2  A    between atoms: C_3  and  O_6 
REMARK    3  A    between atoms: C_3  and  C_4 
REMARK    4  A    between atoms: C_7  and  O_6 
REMARK    5  A    between atoms: C_9  and  C_10 
REMARK    6  A    between atoms: N_15  and  C_14 
REMARK    7  A    between atoms: N_20  and  C_19 
REMARK       I    between atoms: C_22  and  N_20 
ROOT
ATOM      1  C   LIG d   1      -3.378  91.572 117.516  0.00  0.00     0.161 C 
ATOM      2  C   LIG d   1      -4.469  92.396 117.194  0.00  0.00     0.016 C 
ATOM      3  C   LIG d   1      -5.534  91.987 116.358  0.00  0.00     0.038 C 
ATOM      4  C   LIG d   1      -5.656  90.665 115.907  0.00  0.00     0.028 C 
ATOM      5  C   LIG d   1      -4.320  89.938 115.791  0.00  0.00    -0.047 C 
ATOM      6  C   LIG d   1      -3.550  90.090 117.123  0.00  0.00     0.091 C 
ENDROOT
BRANCH   1   7
ATOM      7  O   LIG d   1      -3.077  91.686 118.921  0.00  0.00    -0.368 OA
BRANCH   7   8
ATOM      8  C   LIG d   1      -1.877  92.425 119.257  0.00  0.00     0.119 C 
BRANCH   8   9
ATOM      9  C   LIG d   1      -2.315  93.799 119.799  0.00  0.00     0.028 C 
ATOM     10  C   LIG d   1      -3.530  93.699 120.737  0.00  0.00     0.006 C 
ENDBRANCH   8   9
BRANCH   8  11
ATOM     11  C   LIG d   1      -1.041  92.729 118.010  0.00  0.00     0.028 C 
ATOM     12  C   LIG d   1       0.298  91.975 117.991  0.00  0.00     0.006 C 
ENDBRANCH   8  11
ENDBRANCH   7   8
ENDBRANCH   1   7
BRANCH   6  13
ATOM     13  N   LIG d   1      -2.196  89.480 117.067  0.00  0.00    -0.311 N 
ATOM     14  C   LIG d   1      -1.924  88.256 117.516  0.00  0.00     0.210 C 
ATOM     15  C   LIG d   1      -0.459  87.828 117.381  0.00  0.00     0.109 C 
ATOM     16  O   LIG d   1      -2.763  87.472 117.985  0.00  0.00    -0.276 OA
ATOM     17  H   LIG d   1      -1.461  90.035 116.673  0.00  0.00     0.149 HD
ENDBRANCH   6  13
BRANCH   5  18
ATOM     18  N   LIG d   1      -4.606  88.533 115.445  0.00  0.00     0.381 N 
ATOM     19  H   LIG d   1      -4.096  88.277 114.623  0.00  0.00    -0.090 HD
ATOM     20  H   LIG d   1      -5.587  88.439 115.250  0.00  0.00    -0.090 HD
ATOM     21  H   LIG d   1      -4.351  87.937 116.201  0.00  0.00    -0.090 HD
ENDBRANCH   5  18
BRANCH   3  22
ATOM     22  C   LIG d   1      -6.471  92.917 115.934  0.00  0.00     0.382 C 
ATOM     23  O   LIG d   1      -6.873  93.807 116.722  0.00  0.00    -0.241 OA
ATOM     24  O   LIG d   1      -6.951  92.852 114.786  0.00  0.00    -0.241 OA
ENDBRANCH   3  22
TORSDOF 7
ENDMDL
MODEL 5
REMARK VINA RESULT:      -4.7      1.362      1.984
REMARK  7 active torsions:
REMARK  status: ('A' for Active; 'I' for Inactive)
REMARK    1  A    between atoms: C_2  and  C_3 
REMARK    2  A    between atoms: C_3  and  O_6 
REMARK    3  A    between atoms: C_3  and  C_4 
REMARK    4  A    between atoms: C_7  and  O_6 
REMARK    5  A    between atoms: C_9  and  C_10 
REMARK    6  A    between atoms: N_15  and  C_14 
REMARK    7  A    between atoms: N_20  and  C_19 
REMARK       I    between atoms: C_22  and  N_20 
ROOT
ATOM      1  C   LIG d   1      -5.437  92.617 116.997  0.00  0.00     0.161 C 
ATOM      2  C   LIG d   1      -5.962  91.409 116.509  0.00  0.00     0.016 C 
ATOM      3  C   LIG d   1      -5.295  90.168 116.623  0.00  0.00     0.038 C 
ATOM      4  C   LIG d   1      -4.118  90.025 117.372  0.00  0.00     0.028 C 
ATOM      5  C   LIG d   1      -3.292  91.305 117.454  0.00  0.00    -0.047 C 
ATOM      6  C   LIG d   1      -4.206  92.463 117.915  0.00  0.00     0.091 C 
ENDROOT
BRANCH   1   7
ATOM      7  O   LIG d   1      -6.471  93.364 117.667  0.00  0.00    -0.368 OA
BRANCH   7   8
ATOM      8  C   LIG d   1      -6.314  93.528 119.098  0.00  0.00     0.119 C 
BRANCH   8   9
ATOM      9  C   LIG d   1      -7.143  92.426 119.784  0.00  0.00     0.028 C 
ATOM     10  C   LIG d   1      -6.349  91.688 120.875  0.00  0.00     0.006 C 
ENDBRANCH   8   9
BRANCH   8  11
ATOM     11  C   LIG d   1      -6.921  94.850 119.577  0.00  0.00     0.028 C 
ATOM     12  C   LIG d   1      -5.968  95.653 120.477  0.00  0.00     0.006 C 
ENDBRANCH   8  11
ENDBRANCH   7   8
ENDBRANCH   1   7
BRANCH   6  13
ATOM     13  N   LIG d   1      -3.497  93.769 117.940  0.00  0.00    -0.311 N 
ATOM     14  C   LIG d   1      -2.897  94.256 119.025  0.00  0.00     0.210 C 
ATOM     15  C   LIG d   1      -2.242  95.629 118.839  0.00  0.00     0.109 C 
ATOM     16  O   LIG d   1      -2.817  93.668 120.114  0.00  0.00    -0.276 OA
ATOM     17  H   LIG d   1      -3.486  94.298 117.091  0.00  0.00     0.149 HD
ENDBRANCH   6  13
BRANCH   5  18
ATOM     18  N   LIG d   1      -2.169  91.052 118.375  0.00  0.00     0.381 N 
ATOM     19  H   LIG d   1      -2.296  90.172 118.832  0.00  0.00    -0.090 HD
ATOM     20  H   LIG d   1      -2.155  91.772 119.076  0.00  0.00    -0.090 HD
ATOM     21  H   LIG d   1      -1.309  91.052 117.872  0.00  0.00    -0.090 HD
ENDBRANCH   5  18
BRANCH   3  22
ATOM     22  C   LIG d   1      -5.785  89.060 115.949  0.00  0.00     0.382 C 
ATOM     23  O   LIG d   1      -4.993  88.271 115.379  0.00  0.00    -0.241 OA
ATOM     24  O   LIG d   1      -7.012  88.863 115.865  0.00  0.00    -0.241 OA
ENDBRANCH   3  22
TORSDOF 7
ENDMDL
MODEL 6
REMARK VINA RESULT:      -4.6      1.605      4.873
REMARK  7 active torsions:
REMARK  status: ('A' for Active; 'I' for Inactive)
REMARK    1  A    between atoms: C_2  and  C_3 
REMARK    2  A    between atoms: C_3  and  O_6 
REMARK    3  A    between atoms: C_3  and  C_4 
REMARK    4  A    between atoms: C_7  and  O_6 
REMARK    5  A    between atoms: C_9  and  C_10 
REMARK    6  A    between atoms: N_15  and  C_14 
REMARK    7  A    between atoms: N_20  and  C_19 
REMARK       I    between atoms: C_22  and  N_20 
ROOT
ATOM      1  C   LIG d   1      -5.731  92.023 118.197  0.00  0.00     0.161 C 
ATOM      2  C   LIG d   1      -4.583  92.642 118.719  0.00  0.00     0.016 C 
ATOM      3  C   LIG d   1      -3.267  92.210 118.431  0.00  0.00     0.038 C 
ATOM      4  C   LIG d   1      -3.005  91.217 117.476  0.00  0.00     0.028 C 
ATOM      5  C   LIG d   1      -4.150  90.225 117.303  0.00  0.00    -0.047 C 
ATOM      6  C   LIG d   1      -5.462  91.008 117.066  0.00  0.00     0.091 C 
ENDROOT
BRANCH   1   7
ATOM      7  O   LIG d   1      -6.670  93.025 117.759  0.00  0.00    -0.368 OA
BRANCH   7   8
ATOM      8  C   LIG d   1      -6.995  94.058 118.721  0.00  0.00     0.119 C 
BRANCH   8   9
ATOM      9  C   LIG d   1      -7.877  93.415 119.809  0.00  0.00     0.028 C 
ATOM     10  C   LIG d   1      -7.776  94.150 121.156  0.00  0.00     0.006 C 
ENDBRANCH   8   9
BRANCH   8  11
ATOM     11  C   LIG d   1      -7.862  95.152 118.091  0.00  0.00     0.028 C 
ATOM     12  C   LIG d   1      -7.166  96.522 118.065  0.00  0.00     0.006 C 
ENDBRANCH   8  11
ENDBRANCH   7   8
ENDBRANCH   1   7
BRANCH   6  13
ATOM     13  N   LIG d   1      -6.646  90.116 116.971  0.00  0.00    -0.311 N 
ATOM     14  C   LIG d   1      -7.084  89.598 115.825  0.00  0.00     0.210 C 
ATOM     15  C   LIG d   1      -8.333  88.720 115.947  0.00  0.00     0.109 C 
ATOM     16  O   LIG d   1      -6.537  89.756 114.723  0.00  0.00    -0.276 OA
ATOM     17  H   LIG d   1      -7.131  89.910 117.822  0.00  0.00     0.149 HD
ENDBRANCH   6  13
BRANCH   5  18
ATOM     18  N   LIG d   1      -3.801  89.330 116.184  0.00  0.00     0.381 N 
ATOM     19  H   LIG d   1      -2.820  89.135 116.200  0.00  0.00    -0.090 HD
ATOM     20  H   LIG d   1      -4.016  89.793 115.318  0.00  0.00    -0.090 HD
ATOM     21  H   LIG d   1      -4.317  88.481 116.252  0.00  0.00    -0.090 HD
ENDBRANCH   5  18
BRANCH   3  22
ATOM     22  C   LIG d   1      -2.199  92.747 119.133  0.00  0.00     0.382 C 
ATOM     23  O   LIG d   1      -2.071  92.509 120.358  0.00  0.00    -0.241 OA
ATOM     24  O   LIG d   1      -1.387  93.502 118.566  0.00  0.00    -0.241 OA
ENDBRANCH   3  22
TORSDOF 7
ENDMDL
MODEL 7
REMARK VINA RESULT:      -4.5      2.053      2.886
REMARK  7 active torsions:
REMARK  status: ('A' for Active; 'I' for Inactive)
REMARK    1  A    between atoms: C_2  and  C_3 
REMARK    2  A    between atoms: C_3  and  O_6 
REMARK    3  A    between atoms: C_3  and  C_4 
REMARK    4  A    between atoms: C_7  and  O_6 
REMARK    5  A    between atoms: C_9  and  C_10 
REMARK    6  A    between atoms: N_15  and  C_14 
REMARK    7  A    between atoms: N_20  and  C_19 
REMARK       I    between atoms: C_22  and  N_20 
ROOT
ATOM      1  C   LIG d   1      -3.764  92.213 117.751  0.00  0.00     0.161 C 
ATOM      2  C   LIG d   1      -4.898  92.351 116.934  0.00  0.00     0.016 C 
ATOM      3  C   LIG d   1      -5.391  91.317 116.105  0.00  0.00     0.038 C 
ATOM      4  C   LIG d   1      -4.868  90.016 116.153  0.00  0.00     0.028 C 
ATOM      5  C   LIG d   1      -3.408  89.966 116.588  0.00  0.00    -0.047 C 
ATOM      6  C   LIG d   1      -3.247  90.767 117.901  0.00  0.00     0.091 C 
ENDROOT
BRANCH   1   7
ATOM      7  O   LIG d   1      -4.023  92.789 119.047  0.00  0.00    -0.368 OA
BRANCH   7   8
ATOM      8  C   LIG d   1      -3.320  94.019 119.350  0.00  0.00     0.119 C 
BRANCH   8   9
ATOM      9  C   LIG d   1      -4.360  95.157 119.357  0.00  0.00     0.028 C 
ATOM     10  C   LIG d   1      -3.707  96.549 119.392  0.00  0.00     0.006 C 
ENDBRANCH   8   9
BRANCH   8  11
ATOM     11  C   LIG d   1      -2.330  94.383 118.240  0.00  0.00     0.028 C 
ATOM     12  C   LIG d   1      -0.866  94.317 118.703  0.00  0.00     0.006 C 
ENDBRANCH   8  11
ENDBRANCH   7   8
ENDBRANCH   1   7
BRANCH   6  13
ATOM     13  N   LIG d   1      -1.833  90.840 118.351  0.00  0.00    -0.311 N 
ATOM     14  C   LIG d   1      -1.444  90.564 119.595  0.00  0.00     0.210 C 
ATOM     15  C   LIG d   1       0.057  90.721 119.853  0.00  0.00     0.109 C 
ATOM     16  O   LIG d   1      -2.197  90.175 120.501  0.00  0.00    -0.276 OA
ATOM     17  H   LIG d   1      -1.151  91.118 117.672  0.00  0.00     0.149 HD
ENDBRANCH   6  13
BRANCH   5  18
ATOM     18  N   LIG d   1      -3.032  88.546 116.728  0.00  0.00     0.381 N 
ATOM     19  H   LIG d   1      -2.086  88.475 117.045  0.00  0.00    -0.090 HD
ATOM     20  H   LIG d   1      -3.098  88.103 115.829  0.00  0.00    -0.090 HD
ATOM     21  H   LIG d   1      -3.641  88.095 117.375  0.00  0.00    -0.090 HD
ENDBRANCH   5  18
BRANCH   3  22
ATOM     22  C   LIG d   1      -6.394  91.590 115.187  0.00  0.00     0.382 C 
ATOM     23  O   LIG d   1      -7.328  90.770 115.016  0.00  0.00    -0.241 OA
ATOM     24  O   LIG d   1      -6.352  92.625 114.496  0.00  0.00    -0.241 OA
ENDBRANCH   3  22
TORSDOF 7
ENDMDL
MODEL 8
REMARK VINA RESULT:      -4.5      2.350      4.569
REMARK  7 active torsions:
REMARK  status: ('A' for Active; 'I' for Inactive)
REMARK    1  A    between atoms: C_2  and  C_3 
REMARK    2  A    between atoms: C_3  and  O_6 
REMARK    3  A    between atoms: C_3  and  C_4 
REMARK    4  A    between atoms: C_7  and  O_6 
REMARK    5  A    between atoms: C_9  and  C_10 
REMARK    6  A    between atoms: N_15  and  C_14 
REMARK    7  A    between atoms: N_20  and  C_19 
REMARK       I    between atoms: C_22  and  N_20 
ROOT
ATOM      1  C   LIG d   1      -4.229  92.133 118.716  0.00  0.00     0.161 C 
ATOM      2  C   LIG d   1      -4.246  91.100 117.764  0.00  0.00     0.016 C 
ATOM      3  C   LIG d   1      -5.065  91.117 116.612  0.00  0.00     0.038 C 
ATOM      4  C   LIG d   1      -5.816  92.246 116.253  0.00  0.00     0.028 C 
ATOM      5  C   LIG d   1      -6.218  93.110 117.443  0.00  0.00    -0.047 C 
ATOM      6  C   LIG d   1      -4.959  93.422 118.284  0.00  0.00     0.091 C 
ENDROOT
BRANCH   1   7
ATOM      7  O   LIG d   1      -2.869  92.429 119.091  0.00  0.00    -0.368 OA
BRANCH   7   8
ATOM      8  C   LIG d   1      -1.895  92.417 118.019  0.00  0.00     0.119 C 
BRANCH   8   9
ATOM      9  C   LIG d   1      -0.689  91.586 118.498  0.00  0.00     0.028 C 
ATOM     10  C   LIG d   1      -0.406  90.382 117.584  0.00  0.00     0.006 C 
ENDBRANCH   8   9
BRANCH   8  11
ATOM     11  C   LIG d   1      -1.341  93.821 117.755  0.00  0.00     0.028 C 
ATOM     12  C   LIG d   1      -0.611  94.412 118.971  0.00  0.00     0.006 C 
ENDBRANCH   8  11
ENDBRANCH   7   8
ENDBRANCH   1   7
BRANCH   6  13
ATOM     13  N   LIG d   1      -5.275  94.193 119.514  0.00  0.00    -0.311 N 
ATOM     14  C   LIG d   1      -4.683  95.344 119.831  0.00  0.00     0.210 C 
ATOM     15  C   LIG d   1      -5.143  95.964 121.154  0.00  0.00     0.109 C 
ATOM     16  O   LIG d   1      -3.844  95.925 119.126  0.00  0.00    -0.276 OA
ATOM     17  H   LIG d   1      -5.968  93.810 120.127  0.00  0.00     0.149 HD
ENDBRANCH   6  13
BRANCH   5  18
ATOM     18  N   LIG d   1      -6.874  94.320 116.914  0.00  0.00     0.381 N 
ATOM     19  H   LIG d   1      -6.199  94.898 116.454  0.00  0.00    -0.090 HD
ATOM     20  H   LIG d   1      -7.264  94.840 117.680  0.00  0.00    -0.090 HD
ATOM     21  H   LIG d   1      -7.595  94.065 116.275  0.00  0.00    -0.090 HD
ENDBRANCH   5  18
BRANCH   3  22
ATOM     22  C   LIG d   1      -5.169  89.979 115.826  0.00  0.00     0.382 C 
ATOM     23  O   LIG d   1      -4.699  88.890 116.234  0.00  0.00    -0.241 OA
ATOM     24  O   LIG d   1      -5.687  90.038 114.694  0.00  0.00    -0.241 OA
ENDBRANCH   3  22
TORSDOF 7
ENDMDL
MODEL 9
REMARK VINA RESULT:      -4.4      1.948      2.559
REMARK  7 active torsions:
REMARK  status: ('A' for Active; 'I' for Inactive)
REMARK    1  A    between atoms: C_2  and  C_3 
REMARK    2  A    between atoms: C_3  and  O_6 
REMARK    3  A    between atoms: C_3  and  C_4 
REMARK    4  A    between atoms: C_7  and  O_6 
REMARK    5  A    between atoms: C_9  and  C_10 
REMARK    6  A    between atoms: N_15  and  C_14 
REMARK    7  A    between atoms: N_20  and  C_19 
REMARK       I    between atoms: C_22  and  N_20 
ROOT
ATOM      1  C   LIG d   1      -4.086  92.243 117.581  0.00  0.00     0.161 C 
ATOM      2  C   LIG d   1      -5.243  92.399 116.798  0.00  0.00     0.016 C 
ATOM      3  C   LIG d   1      -5.738  91.396 115.935  0.00  0.00     0.038 C 
ATOM      4  C   LIG d   1      -5.192  90.104 115.908  0.00  0.00     0.028 C 
ATOM      5  C   LIG d   1      -3.720  90.060 116.304  0.00  0.00    -0.047 C 
ATOM      6  C   LIG d   1      -3.540  90.802 117.649  0.00  0.00     0.091 C 
ENDROOT
BRANCH   1   7
ATOM      7  O   LIG d   1      -4.322  92.753 118.908  0.00  0.00    -0.368 OA
BRANCH   7   8
ATOM      8  C   LIG d   1      -4.858  91.809 119.867  0.00  0.00     0.119 C 
BRANCH   8   9
ATOM      9  C   LIG d   1      -6.384  92.021 119.922  0.00  0.00     0.028 C 
ATOM     10  C   LIG d   1      -6.770  93.306 120.673  0.00  0.00     0.006 C 
ENDBRANCH   8   9
BRANCH   8  11
ATOM     11  C   LIG d   1      -4.356  92.107 121.283  0.00  0.00     0.028 C 
ATOM     12  C   LIG d   1      -3.234  91.156 121.730  0.00  0.00     0.006 C 
ENDBRANCH   8  11
ENDBRANCH   7   8
ENDBRANCH   1   7
BRANCH   6  13
ATOM     13  N   LIG d   1      -2.116  90.879 118.067  0.00  0.00    -0.311 N 
ATOM     14  C   LIG d   1      -1.522  89.954 118.818  0.00  0.00     0.210 C 
ATOM     15  C   LIG d   1      -0.054  90.237 119.152  0.00  0.00     0.109 C 
ATOM     16  O   LIG d   1      -2.062  88.909 119.213  0.00  0.00    -0.276 OA
ATOM     17  H   LIG d   1      -1.595  91.678 117.764  0.00  0.00     0.149 HD
ENDBRANCH   6  13
BRANCH   5  18
ATOM     18  N   LIG d   1      -3.318  88.643 116.367  0.00  0.00     0.381 N 
ATOM     19  H   LIG d   1      -4.051  88.100 116.778  0.00  0.00    -0.090 HD
ATOM     20  H   LIG d   1      -2.502  88.562 116.949  0.00  0.00    -0.090 HD
ATOM     21  H   LIG d   1      -3.117  88.304 115.452  0.00  0.00    -0.090 HD
ENDBRANCH   5  18
BRANCH   3  22
ATOM     22  C   LIG d   1      -6.769  91.694 115.055  0.00  0.00     0.382 C 
ATOM     23  O   LIG d   1      -6.944  92.875 114.672  0.00  0.00    -0.241 OA
ATOM     24  O   LIG d   1      -7.552  90.803 114.675  0.00  0.00    -0.241 OA
ENDBRANCH   3  22
TORSDOF 7
ENDMDL
