MODEL 1
REMARK VINA RESULT:      -5.5      0.000      0.000
REMARK  7 active torsions:
REMARK  status: ('A' for Active; 'I' for Inactive)
REMARK    1  A    between atoms: C_2  and  C_3 
REMARK    2  A    between atoms: C_3  and  O_6 
REMARK    3  A    between atoms: C_3  and  C_4 
REMARK    4  A    between atoms: C_7  and  O_6 
REMARK    5  A    between atoms: C_9  and  C_10 
REMARK    6  A    between atoms: N_15  and  C_14 
REMARK    7  A    between atoms: N_20  and  C_19 
REMARK       I    between atoms: C_22  and  N_20 
ROOT
ATOM      1  C   LIG d   1      -3.947  91.103 117.731  0.00  0.00     0.161 C 
ATOM      2  C   LIG d   1      -4.804  90.437 116.839  0.00  0.00     0.016 C 
ATOM      3  C   LIG d   1      -6.027  90.981 116.383  0.00  0.00     0.038 C 
ATOM      4  C   LIG d   1      -6.406  92.300 116.673  0.00  0.00     0.028 C 
ATOM      5  C   LIG d   1      -5.817  92.827 117.977  0.00  0.00    -0.047 C 
ATOM      6  C   LIG d   1      -4.290  92.588 117.971  0.00  0.00     0.091 C 
ENDROOT
BRANCH   1   7
ATOM      7  O   LIG d   1      -2.582  90.968 117.289  0.00  0.00    -0.368 OA
BRANCH   7   8
ATOM      8  C   LIG d   1      -1.709  90.191 118.145  0.00  0.00     0.119 C 
BRANCH   8   9
ATOM      9  C   LIG d   1      -0.267  90.387 117.636  0.00  0.00     0.028 C 
ATOM     10  C   LIG d   1       0.106  91.872 117.491  0.00  0.00     0.006 C 
ENDBRANCH   8   9
BRANCH   8  11
ATOM     11  C   LIG d   1      -1.986  88.691 118.008  0.00  0.00     0.028 C 
ATOM     12  C   LIG d   1      -2.568  88.073 119.289  0.00  0.00     0.006 C 
ENDBRANCH   8  11
ENDBRANCH   7   8
ENDBRANCH   1   7
BRANCH   6  13
ATOM     13  N   LIG d   1      -3.646  92.998 119.246  0.00  0.00    -0.311 N 
ATOM     14  C   LIG d   1      -2.609  93.831 119.310  0.00  0.00     0.210 C 
ATOM     15  C   LIG d   1      -2.086  94.106 120.723  0.00  0.00     0.109 C 
ATOM     16  O   LIG d   1      -2.093  94.393 118.332  0.00  0.00    -0.276 OA
ATOM     17  H   LIG d   1      -4.022  92.613 120.091  0.00  0.00     0.149 HD
ENDBRANCH   6  13
BRANCH   5  18
ATOM     18  N   LIG d   1      -6.179  94.253 118.086  0.00  0.00     0.381 N 
ATOM     19  H   LIG d   1      -5.900  94.737 117.256  0.00  0.00    -0.090 HD
ATOM     20  H   LIG d   1      -5.688  94.654 118.865  0.00  0.00    -0.090 HD
ATOM     21  H   LIG d   1      -7.162  94.346 118.219  0.00  0.00    -0.090 HD
ENDBRANCH   5  18
BRANCH   3  22
ATOM     22  C   LIG d   1      -6.905  90.187 115.661  0.00  0.00     0.382 C 
ATOM     23  O   LIG d   1      -7.835  89.585 116.249  0.00  0.00    -0.241 OA
ATOM     24  O   LIG d   1      -6.752  90.031 114.434  0.00  0.00    -0.241 OA
ENDBRANCH   3  22
TORSDOF 7
ENDMDL
MODEL 2
REMARK VINA RESULT:      -5.4      2.364      4.592
REMARK  7 active torsions:
REMARK  status: ('A' for Active; 'I' for Inactive)
REMARK    1  A    between atoms: C_2  and  C_3 
REMARK    2  A    between atoms: C_3  and  O_6 
REMARK    3  A    between atoms: C_3  and  C_4 
REMARK    4  A    between atoms: C_7  and  O_6 
REMARK    5  A    between atoms: C_9  and  C_10 
REMARK    6  A    between atoms: N_15  and  C_14 
REMARK    7  A    between atoms: N_20  and  C_19 
REMARK       I    between atoms: C_22  and  N_20 
ROOT
ATOM      1  C   LIG d   1      -6.178  93.147 117.855  0.00  0.00     0.161 C 
ATOM      2  C   LIG d   1      -6.783  92.125 117.105  0.00  0.00     0.016 C 
ATOM      3  C   LIG d   1      -6.079  91.005 116.606  0.00  0.00     0.038 C 
ATOM      4  C   LIG d   1      -4.743  90.754 116.953  0.00  0.00     0.028 C 
ATOM      5  C   LIG d   1      -3.957  92.017 117.289  0.00  0.00    -0.047 C 
ATOM      6  C   LIG d   1      -4.746  92.835 118.337  0.00  0.00     0.091 C 
ENDROOT
BRANCH   1   7
ATOM      7  O   LIG d   1      -7.019  93.497 118.972  0.00  0.00    -0.368 OA
BRANCH   7   8
ATOM      8  C   LIG d   1      -6.620  92.965 120.260  0.00  0.00     0.119 C 
BRANCH   8   9
ATOM      9  C   LIG d   1      -7.649  91.887 120.654  0.00  0.00     0.028 C 
ATOM     10  C   LIG d   1      -8.778  92.447 121.534  0.00  0.00     0.006 C 
ENDBRANCH   8   9
BRANCH   8  11
ATOM     11  C   LIG d   1      -6.711  94.031 121.355  0.00  0.00     0.028 C 
ATOM     12  C   LIG d   1      -6.706  95.463 120.796  0.00  0.00     0.006 C 
ENDBRANCH   8  11
ENDBRANCH   7   8
ENDBRANCH   1   7
BRANCH   6  13
ATOM     13  N   LIG d   1      -4.088  94.128 118.660  0.00  0.00    -0.311 N 
ATOM     14  C   LIG d   1      -3.253  94.289 119.685  0.00  0.00     0.210 C 
ATOM     15  C   LIG d   1      -2.701  95.709 119.852  0.00  0.00     0.109 C 
ATOM     16  O   LIG d   1      -2.891  93.385 120.452  0.00  0.00    -0.276 OA
ATOM     17  H   LIG d   1      -4.301  94.908 118.070  0.00  0.00     0.149 HD
ENDBRANCH   6  13
BRANCH   5  18
ATOM     18  N   LIG d   1      -2.625  91.600 117.765  0.00  0.00     0.381 N 
ATOM     19  H   LIG d   1      -2.006  91.489 116.987  0.00  0.00    -0.090 HD
ATOM     20  H   LIG d   1      -2.709  90.712 118.230  0.00  0.00    -0.090 HD
ATOM     21  H   LIG d   1      -2.259  92.279 118.396  0.00  0.00    -0.090 HD
ENDBRANCH   5  18
BRANCH   3  22
ATOM     22  C   LIG d   1      -6.701  90.143 115.716  0.00  0.00     0.382 C 
ATOM     23  O   LIG d   1      -7.761  89.558 116.047  0.00  0.00    -0.241 OA
ATOM     24  O   LIG d   1      -6.192  89.908 114.603  0.00  0.00    -0.241 OA
ENDBRANCH   3  22
TORSDOF 7
ENDMDL
MODEL 3
REMARK VINA RESULT:      -5.4      2.447      4.866
REMARK  7 active torsions:
REMARK  status: ('A' for Active; 'I' for Inactive)
REMARK    1  A    between atoms: C_2  and  C_3 
REMARK    2  A    between atoms: C_3  and  O_6 
REMARK    3  A    between atoms: C_3  and  C_4 
REMARK    4  A    between atoms: C_7  and  O_6 
REMARK    5  A    between atoms: C_9  and  C_10 
REMARK    6  A    between atoms: N_15  and  C_14 
REMARK    7  A    between atoms: N_20  and  C_19 
REMARK       I    between atoms: C_22  and  N_20 
ROOT
ATOM      1  C   LIG d   1      -5.998  93.250 117.779  0.00  0.00     0.161 C 
ATOM      2  C   LIG d   1      -6.822  92.355 117.076  0.00  0.00     0.016 C 
ATOM      3  C   LIG d   1      -6.364  91.125 116.550  0.00  0.00     0.038 C 
ATOM      4  C   LIG d   1      -5.078  90.634 116.824  0.00  0.00     0.028 C 
ATOM      5  C   LIG d   1      -4.057  91.732 117.101  0.00  0.00    -0.047 C 
ATOM      6  C   LIG d   1      -4.622  92.681 118.183  0.00  0.00     0.091 C 
ENDROOT
BRANCH   1   7
ATOM      7  O   LIG d   1      -6.695  93.747 118.939  0.00  0.00    -0.368 OA
BRANCH   7   8
ATOM      8  C   LIG d   1      -7.352  95.029 118.786  0.00  0.00     0.119 C 
BRANCH   8   9
ATOM      9  C   LIG d   1      -6.314  96.123 119.105  0.00  0.00     0.028 C 
ATOM     10  C   LIG d   1      -5.747  95.996 120.530  0.00  0.00     0.006 C 
ENDBRANCH   8   9
BRANCH   8  11
ATOM     11  C   LIG d   1      -8.465  95.212 119.822  0.00  0.00     0.028 C 
ATOM     12  C   LIG d   1      -9.733  95.845 119.229  0.00  0.00     0.006 C 
ENDBRANCH   8  11
ENDBRANCH   7   8
ENDBRANCH   1   7
BRANCH   6  13
ATOM     13  N   LIG d   1      -3.721  93.832 118.454  0.00  0.00    -0.311 N 
ATOM     14  C   LIG d   1      -2.816  93.840 119.431  0.00  0.00     0.210 C 
ATOM     15  C   LIG d   1      -2.005  95.134 119.550  0.00  0.00     0.109 C 
ATOM     16  O   LIG d   1      -2.586  92.886 120.190  0.00  0.00    -0.276 OA
ATOM     17  H   LIG d   1      -3.819  94.636 117.866  0.00  0.00     0.149 HD
ENDBRANCH   6  13
BRANCH   5  18
ATOM     18  N   LIG d   1      -2.798  91.078 117.506  0.00  0.00     0.381 N 
ATOM     19  H   LIG d   1      -2.795  90.127 117.194  0.00  0.00    -0.090 HD
ATOM     20  H   LIG d   1      -2.738  91.082 118.509  0.00  0.00    -0.090 HD
ATOM     21  H   LIG d   1      -2.021  91.565 117.117  0.00  0.00    -0.090 HD
ENDBRANCH   5  18
BRANCH   3  22
ATOM     22  C   LIG d   1      -7.183  90.391 115.706  0.00  0.00     0.382 C 
ATOM     23  O   LIG d   1      -7.918  89.488 116.175  0.00  0.00    -0.241 OA
ATOM     24  O   LIG d   1      -7.164  90.589 114.477  0.00  0.00    -0.241 OA
ENDBRANCH   3  22
TORSDOF 7
ENDMDL
MODEL 4
REMARK VINA RESULT:      -5.3      0.689      1.881
REMARK  7 active torsions:
REMARK  status: ('A' for Active; 'I' for Inactive)
REMARK    1  A    between atoms: C_2  and  C_3 
REMARK    2  A    between atoms: C_3  and  O_6 
REMARK    3  A    between atoms: C_3  and  C_4 
REMARK    4  A    between atoms: C_7  and  O_6 
REMARK    5  A    between atoms: C_9  and  C_10 
REMARK    6  A    between atoms: N_15  and  C_14 
REMARK    7  A    between atoms: N_20  and  C_19 
REMARK       I    between atoms: C_22  and  N_20 
ROOT
ATOM      1  C   LIG d   1      -4.209  91.271 117.682  0.00  0.00     0.161 C 
ATOM      2  C   LIG d   1      -4.901  90.662 116.621  0.00  0.00     0.016 C 
ATOM      3  C   LIG d   1      -6.071  91.204 116.042  0.00  0.00     0.038 C 
ATOM      4  C   LIG d   1      -6.547  92.478 116.386  0.00  0.00     0.028 C 
ATOM      5  C   LIG d   1      -6.173  92.902 117.803  0.00  0.00    -0.047 C 
ATOM      6  C   LIG d   1      -4.650  92.716 117.996  0.00  0.00     0.091 C 
ENDROOT
BRANCH   1   7
ATOM      7  O   LIG d   1      -2.791  91.223 117.432  0.00  0.00    -0.368 OA
BRANCH   7   8
ATOM      8  C   LIG d   1      -2.121  89.989 117.791  0.00  0.00     0.119 C 
BRANCH   8   9
ATOM      9  C   LIG d   1      -2.506  89.661 119.246  0.00  0.00     0.028 C 
ATOM     10  C   LIG d   1      -2.931  88.194 119.424  0.00  0.00     0.006 C 
ENDBRANCH   8   9
BRANCH   8  11
ATOM     11  C   LIG d   1      -0.600  90.164 117.803  0.00  0.00     0.028 C 
ATOM     12  C   LIG d   1      -0.170  91.628 117.987  0.00  0.00     0.006 C 
ENDBRANCH   8  11
ENDBRANCH   7   8
ENDBRANCH   1   7
BRANCH   6  13
ATOM     13  N   LIG d   1      -4.213  93.028 119.382  0.00  0.00    -0.311 N 
ATOM     14  C   LIG d   1      -3.143  93.771 119.663  0.00  0.00     0.210 C 
ATOM     15  C   LIG d   1      -2.858  93.954 121.157  0.00  0.00     0.109 C 
ATOM     16  O   LIG d   1      -2.423  94.322 118.817  0.00  0.00    -0.276 OA
ATOM     17  H   LIG d   1      -4.758  92.647 120.129  0.00  0.00     0.149 HD
ENDBRANCH   6  13
BRANCH   5  18
ATOM     18  N   LIG d   1      -6.611  94.299 117.980  0.00  0.00     0.381 N 
ATOM     19  H   LIG d   1      -7.296  94.530 117.288  0.00  0.00    -0.090 HD
ATOM     20  H   LIG d   1      -5.821  94.907 117.856  0.00  0.00    -0.090 HD
ATOM     21  H   LIG d   1      -6.995  94.423 118.891  0.00  0.00    -0.090 HD
ENDBRANCH   5  18
BRANCH   3  22
ATOM     22  C   LIG d   1      -6.801  90.451 115.135  0.00  0.00     0.382 C 
ATOM     23  O   LIG d   1      -6.225  89.587 114.430  0.00  0.00    -0.241 OA
ATOM     24  O   LIG d   1      -8.020  90.656 114.980  0.00  0.00    -0.241 OA
ENDBRANCH   3  22
TORSDOF 7
ENDMDL
MODEL 5
REMARK VINA RESULT:      -4.9      2.463      4.609
REMARK  7 active torsions:
REMARK  status: ('A' for Active; 'I' for Inactive)
REMARK    1  A    between atoms: C_2  and  C_3 
REMARK    2  A    between atoms: C_3  and  O_6 
REMARK    3  A    between atoms: C_3  and  C_4 
REMARK    4  A    between atoms: C_7  and  O_6 
REMARK    5  A    between atoms: C_9  and  C_10 
REMARK    6  A    between atoms: N_15  and  C_14 
REMARK    7  A    between atoms: N_20  and  C_19 
REMARK       I    between atoms: C_22  and  N_20 
ROOT
ATOM      1  C   LIG d   1      -5.396  92.896 118.507  0.00  0.00     0.161 C 
ATOM      2  C   LIG d   1      -6.427  92.252 117.803  0.00  0.00     0.016 C 
ATOM      3  C   LIG d   1      -6.215  91.136 116.960  0.00  0.00     0.038 C 
ATOM      4  C   LIG d   1      -4.971  90.491 116.883  0.00  0.00     0.028 C 
ATOM      5  C   LIG d   1      -3.792  91.410 117.184  0.00  0.00    -0.047 C 
ATOM      6  C   LIG d   1      -4.052  92.138 118.522  0.00  0.00     0.091 C 
ENDROOT
BRANCH   1   7
ATOM      7  O   LIG d   1      -5.827  93.180 119.853  0.00  0.00    -0.368 OA
BRANCH   7   8
ATOM      8  C   LIG d   1      -7.250  93.075 120.102  0.00  0.00     0.119 C 
BRANCH   8   9
ATOM      9  C   LIG d   1      -7.743  94.461 120.561  0.00  0.00     0.028 C 
ATOM     10  C   LIG d   1      -8.136  95.365 119.381  0.00  0.00     0.006 C 
ENDBRANCH   8   9
BRANCH   8  11
ATOM     11  C   LIG d   1      -7.543  92.132 121.272  0.00  0.00     0.028 C 
ATOM     12  C   LIG d   1      -9.015  92.170 121.714  0.00  0.00     0.006 C 
ENDBRANCH   8  11
ENDBRANCH   7   8
ENDBRANCH   1   7
BRANCH   6  13
ATOM     13  N   LIG d   1      -2.985  93.121 118.850  0.00  0.00    -0.311 N 
ATOM     14  C   LIG d   1      -1.929  92.831 119.607  0.00  0.00     0.210 C 
ATOM     15  C   LIG d   1      -0.959  93.994 119.837  0.00  0.00     0.109 C 
ATOM     16  O   LIG d   1      -1.686  91.712 120.084  0.00  0.00    -0.276 OA
ATOM     17  H   LIG d   1      -3.087  94.045 118.477  0.00  0.00     0.149 HD
ENDBRANCH   6  13
BRANCH   5  18
ATOM     18  N   LIG d   1      -2.574  90.580 117.204  0.00  0.00     0.381 N 
ATOM     19  H   LIG d   1      -2.136  90.641 118.102  0.00  0.00    -0.090 HD
ATOM     20  H   LIG d   1      -1.930  90.929 116.515  0.00  0.00    -0.090 HD
ATOM     21  H   LIG d   1      -2.804  89.632 117.003  0.00  0.00    -0.090 HD
ENDBRANCH   5  18
BRANCH   3  22
ATOM     22  C   LIG d   1      -7.245  90.679 116.153  0.00  0.00     0.382 C 
ATOM     23  O   LIG d   1      -7.685  91.404 115.228  0.00  0.00    -0.241 OA
ATOM     24  O   LIG d   1      -7.770  89.570 116.365  0.00  0.00    -0.241 OA
ENDBRANCH   3  22
TORSDOF 7
ENDMDL
MODEL 6
REMARK VINA RESULT:      -4.8      3.083      4.637
REMARK  7 active torsions:
REMARK  status: ('A' for Active; 'I' for Inactive)
REMARK    1  A    between atoms: C_2  and  C_3 
REMARK    2  A    between atoms: C_3  and  O_6 
REMARK    3  A    between atoms: C_3  and  C_4 
REMARK    4  A    between atoms: C_7  and  O_6 
REMARK    5  A    between atoms: C_9  and  C_10 
REMARK    6  A    between atoms: N_15  and  C_14 
REMARK    7  A    between atoms: N_20  and  C_19 
REMARK       I    between atoms: C_22  and  N_20 
ROOT
ATOM      1  C   LIG d   1      -6.056  93.095 119.389  0.00  0.00     0.161 C 
ATOM      2  C   LIG d   1      -7.293  93.746 119.255  0.00  0.00     0.016 C 
ATOM      3  C   LIG d   1      -7.428  95.149 119.151  0.00  0.00     0.038 C 
ATOM      4  C   LIG d   1      -6.314  95.993 119.023  0.00  0.00     0.028 C 
ATOM      5  C   LIG d   1      -5.049  95.428 119.661  0.00  0.00    -0.047 C 
ATOM      6  C   LIG d   1      -4.824  93.991 119.140  0.00  0.00     0.091 C 
ENDROOT
BRANCH   1   7
ATOM      7  O   LIG d   1      -6.016  91.938 118.531  0.00  0.00    -0.368 OA
BRANCH   7   8
ATOM      8  C   LIG d   1      -5.583  92.170 117.168  0.00  0.00     0.119 C 
BRANCH   8   9
ATOM      9  C   LIG d   1      -6.836  92.135 116.272  0.00  0.00     0.028 C 
ATOM     10  C   LIG d   1      -6.500  91.809 114.807  0.00  0.00     0.006 C 
ENDBRANCH   8   9
BRANCH   8  11
ATOM     11  C   LIG d   1      -4.692  91.030 116.665  0.00  0.00     0.028 C 
ATOM     12  C   LIG d   1      -3.985  90.279 117.804  0.00  0.00     0.006 C 
ENDBRANCH   8  11
ENDBRANCH   7   8
ENDBRANCH   1   7
BRANCH   6  13
ATOM     13  N   LIG d   1      -3.653  93.334 119.778  0.00  0.00    -0.311 N 
ATOM     14  C   LIG d   1      -2.448  93.275 119.214  0.00  0.00     0.210 C 
ATOM     15  C   LIG d   1      -1.387  92.533 120.033  0.00  0.00     0.109 C 
ATOM     16  O   LIG d   1      -2.149  93.793 118.128  0.00  0.00    -0.276 OA
ATOM     17  H   LIG d   1      -3.799  92.914 120.675  0.00  0.00     0.149 HD
ENDBRANCH   6  13
BRANCH   5  18
ATOM     18  N   LIG d   1      -3.939  96.343 119.334  0.00  0.00     0.381 N 
ATOM     19  H   LIG d   1      -4.248  97.291 119.410  0.00  0.00    -0.090 HD
ATOM     20  H   LIG d   1      -3.652  96.179 118.385  0.00  0.00    -0.090 HD
ATOM     21  H   LIG d   1      -3.174  96.185 119.952  0.00  0.00    -0.090 HD
ENDBRANCH   5  18
BRANCH   3  22
ATOM     22  C   LIG d   1      -8.687  95.726 119.216  0.00  0.00     0.382 C 
ATOM     23  O   LIG d   1      -8.969  96.513 120.151  0.00  0.00    -0.241 OA
ATOM     24  O   LIG d   1      -9.559  95.435 118.375  0.00  0.00    -0.241 OA
ENDBRANCH   3  22
TORSDOF 7
ENDMDL
MODEL 7
REMARK VINA RESULT:      -4.8      2.323      4.365
REMARK  7 active torsions:
REMARK  status: ('A' for Active; 'I' for Inactive)
REMARK    1  A    between atoms: C_2  and  C_3 
REMARK    2  A    between atoms: C_3  and  O_6 
REMARK    3  A    between atoms: C_3  and  C_4 
REMARK    4  A    between atoms: C_7  and  O_6 
REMARK    5  A    between atoms: C_9  and  C_10 
REMARK    6  A    between atoms: N_15  and  C_14 
REMARK    7  A    between atoms: N_20  and  C_19 
REMARK       I    between atoms: C_22  and  N_20 
ROOT
ATOM      1  C   LIG d   1      -4.556  92.824 118.102  0.00  0.00     0.161 C 
ATOM      2  C   LIG d   1      -5.496  92.555 117.093  0.00  0.00     0.016 C 
ATOM      3  C   LIG d   1      -5.521  91.349 116.355  0.00  0.00     0.038 C 
ATOM      4  C   LIG d   1      -4.696  90.263 116.682  0.00  0.00     0.028 C 
ATOM      5  C   LIG d   1      -3.393  90.673 117.360  0.00  0.00    -0.047 C 
ATOM      6  C   LIG d   1      -3.719  91.607 118.548  0.00  0.00     0.091 C 
ENDROOT
BRANCH   1   7
ATOM      7  O   LIG d   1      -5.215  93.422 119.236  0.00  0.00    -0.368 OA
BRANCH   7   8
ATOM      8  C   LIG d   1      -6.515  94.007 118.982  0.00  0.00     0.119 C 
BRANCH   8   9
ATOM      9  C   LIG d   1      -6.367  95.536 119.104  0.00  0.00     0.028 C 
ATOM     10  C   LIG d   1      -5.236  95.942 120.064  0.00  0.00     0.006 C 
ENDBRANCH   8   9
BRANCH   8  11
ATOM     11  C   LIG d   1      -7.525  93.611 120.063  0.00  0.00     0.028 C 
ATOM     12  C   LIG d   1      -7.327  92.172 120.564  0.00  0.00     0.006 C 
ENDBRANCH   8  11
ENDBRANCH   7   8
ENDBRANCH   1   7
BRANCH   6  13
ATOM     13  N   LIG d   1      -2.495  92.123 119.215  0.00  0.00    -0.311 N 
ATOM     14  C   LIG d   1      -1.934  91.537 120.271  0.00  0.00     0.210 C 
ATOM     15  C   LIG d   1      -0.689  92.244 120.817  0.00  0.00     0.109 C 
ATOM     16  O   LIG d   1      -2.329  90.481 120.787  0.00  0.00    -0.276 OA
ATOM     17  H   LIG d   1      -2.090  92.959 118.842  0.00  0.00     0.149 HD
ENDBRANCH   6  13
BRANCH   5  18
ATOM     18  N   LIG d   1      -2.695  89.440 117.768  0.00  0.00     0.381 N 
ATOM     19  H   LIG d   1      -3.347  88.682 117.817  0.00  0.00    -0.090 HD
ATOM     20  H   LIG d   1      -2.302  89.577 118.683  0.00  0.00    -0.090 HD
ATOM     21  H   LIG d   1      -1.973  89.225 117.117  0.00  0.00    -0.090 HD
ENDBRANCH   5  18
BRANCH   3  22
ATOM     22  C   LIG d   1      -6.352  91.237 115.251  0.00  0.00     0.382 C 
ATOM     23  O   LIG d   1      -6.985  90.173 115.048  0.00  0.00    -0.241 OA
ATOM     24  O   LIG d   1      -6.442  92.170 114.430  0.00  0.00    -0.241 OA
ENDBRANCH   3  22
TORSDOF 7
ENDMDL
MODEL 8
REMARK VINA RESULT:      -4.8      2.031      3.015
REMARK  7 active torsions:
REMARK  status: ('A' for Active; 'I' for Inactive)
REMARK    1  A    between atoms: C_2  and  C_3 
REMARK    2  A    between atoms: C_3  and  O_6 
REMARK    3  A    between atoms: C_3  and  C_4 
REMARK    4  A    between atoms: C_7  and  O_6 
REMARK    5  A    between atoms: C_9  and  C_10 
REMARK    6  A    between atoms: N_15  and  C_14 
REMARK    7  A    between atoms: N_20  and  C_19 
REMARK       I    between atoms: C_22  and  N_20 
ROOT
ATOM      1  C   LIG d   1      -2.044  90.394 118.030  0.00  0.00     0.161 C 
ATOM      2  C   LIG d   1      -3.251  90.055 117.396  0.00  0.00     0.016 C 
ATOM      3  C   LIG d   1      -4.282  90.987 117.137  0.00  0.00     0.038 C 
ATOM      4  C   LIG d   1      -4.112  92.362 117.360  0.00  0.00     0.028 C 
ATOM      5  C   LIG d   1      -3.107  92.677 118.463  0.00  0.00    -0.047 C 
ATOM      6  C   LIG d   1      -1.795  91.909 118.180  0.00  0.00     0.091 C 
ENDROOT
BRANCH   1   7
ATOM      7  O   LIG d   1      -0.940  89.771 117.344  0.00  0.00    -0.368 OA
BRANCH   7   8
ATOM      8  C   LIG d   1      -0.559  88.454 117.814  0.00  0.00     0.119 C 
BRANCH   8   9
ATOM      9  C   LIG d   1      -0.853  88.399 119.325  0.00  0.00     0.028 C 
ATOM     10  C   LIG d   1      -1.595  87.114 119.732  0.00  0.00     0.006 C 
ENDBRANCH   8   9
BRANCH   8  11
ATOM     11  C   LIG d   1       0.951  88.233 117.686  0.00  0.00     0.028 C 
ATOM     12  C   LIG d   1       1.305  86.838 117.146  0.00  0.00     0.006 C 
ENDBRANCH   8  11
ENDBRANCH   7   8
ENDBRANCH   1   7
BRANCH   6  13
ATOM     13  N   LIG d   1      -0.787  92.095 119.256  0.00  0.00    -0.311 N 
ATOM     14  C   LIG d   1       0.453  92.526 119.032  0.00  0.00     0.210 C 
ATOM     15  C   LIG d   1       1.338  92.628 120.278  0.00  0.00     0.109 C 
ATOM     16  O   LIG d   1       0.895  92.864 117.923  0.00  0.00    -0.276 OA
ATOM     17  H   LIG d   1      -1.071  91.874 120.190  0.00  0.00     0.149 HD
ENDBRANCH   6  13
BRANCH   5  18
ATOM     18  N   LIG d   1      -2.925  94.140 118.495  0.00  0.00     0.381 N 
ATOM     19  H   LIG d   1      -2.036  94.362 118.897  0.00  0.00    -0.090 HD
ATOM     20  H   LIG d   1      -3.642  94.544 119.072  0.00  0.00    -0.090 HD
ATOM     21  H   LIG d   1      -2.983  94.512 117.572  0.00  0.00    -0.090 HD
ENDBRANCH   5  18
BRANCH   3  22
ATOM     22  C   LIG d   1      -5.514  90.541 116.685  0.00  0.00     0.382 C 
ATOM     23  O   LIG d   1      -5.653  90.186 115.490  0.00  0.00    -0.241 OA
ATOM     24  O   LIG d   1      -6.500  90.529 117.447  0.00  0.00    -0.241 OA
ENDBRANCH   3  22
TORSDOF 7
ENDMDL
MODEL 9
REMARK VINA RESULT:      -4.7      2.098      5.288
REMARK  7 active torsions:
REMARK  status: ('A' for Active; 'I' for Inactive)
REMARK    1  A    between atoms: C_2  and  C_3 
REMARK    2  A    between atoms: C_3  and  O_6 
REMARK    3  A    between atoms: C_3  and  C_4 
REMARK    4  A    between atoms: C_7  and  O_6 
REMARK    5  A    between atoms: C_9  and  C_10 
REMARK    6  A    between atoms: N_15  and  C_14 
REMARK    7  A    between atoms: N_20  and  C_19 
REMARK       I    between atoms: C_22  and  N_20 
ROOT
ATOM      1  C   LIG d   1      -1.565  90.513 117.408  0.00  0.00     0.161 C 
ATOM      2  C   LIG d   1      -0.488  91.066 118.120  0.00  0.00     0.016 C 
ATOM      3  C   LIG d   1      -0.584  92.258 118.874  0.00  0.00     0.038 C 
ATOM      4  C   LIG d   1      -1.812  92.900 119.093  0.00  0.00     0.028 C 
ATOM      5  C   LIG d   1      -2.828  92.659 117.981  0.00  0.00    -0.047 C 
ATOM      6  C   LIG d   1      -2.940  91.139 117.725  0.00  0.00     0.091 C 
ENDROOT
BRANCH   1   7
ATOM      7  O   LIG d   1      -1.605  89.087 117.612  0.00  0.00    -0.368 OA
BRANCH   7   8
ATOM      8  C   LIG d   1      -1.211  88.620 118.926  0.00  0.00     0.119 C 
BRANCH   8   9
ATOM      9  C   LIG d   1      -0.342  87.363 118.729  0.00  0.00     0.028 C 
ATOM     10  C   LIG d   1       0.623  87.496 117.539  0.00  0.00     0.006 C 
ENDBRANCH   8   9
BRANCH   8  11
ATOM     11  C   LIG d   1      -2.422  88.153 119.739  0.00  0.00     0.028 C 
ATOM     12  C   LIG d   1      -2.792  89.126 120.870  0.00  0.00     0.006 C 
ENDBRANCH   8  11
ENDBRANCH   7   8
ENDBRANCH   1   7
BRANCH   6  13
ATOM     13  N   LIG d   1      -3.850  90.820 116.594  0.00  0.00    -0.311 N 
ATOM     14  C   LIG d   1      -5.146  90.552 116.750  0.00  0.00     0.210 C 
ATOM     15  C   LIG d   1      -5.899  90.230 115.455  0.00  0.00     0.109 C 
ATOM     16  O   LIG d   1      -5.749  90.582 117.833  0.00  0.00    -0.276 OA
ATOM     17  H   LIG d   1      -3.450  90.805 115.676  0.00  0.00     0.149 HD
ENDBRANCH   6  13
BRANCH   5  18
ATOM     18  N   LIG d   1      -4.103  93.270 118.402  0.00  0.00     0.381 N 
ATOM     19  H   LIG d   1      -4.199  94.175 117.987  0.00  0.00    -0.090 HD
ATOM     20  H   LIG d   1      -4.096  93.380 119.401  0.00  0.00    -0.090 HD
ATOM     21  H   LIG d   1      -4.865  92.689 118.130  0.00  0.00    -0.090 HD
ENDBRANCH   5  18
BRANCH   3  22
ATOM     22  C   LIG d   1       0.565  92.841 119.387  0.00  0.00     0.382 C 
ATOM     23  O   LIG d   1       1.691  92.481 118.968  0.00  0.00    -0.241 OA
ATOM     24  O   LIG d   1       0.491  93.691 120.295  0.00  0.00    -0.241 OA
ENDBRANCH   3  22
TORSDOF 7
ENDMDL
