MODEL 1
REMARK VINA RESULT:      -5.6      0.000      0.000
REMARK  7 active torsions:
REMARK  status: ('A' for Active; 'I' for Inactive)
REMARK    1  A    between atoms: C_2  and  C_3 
REMARK    2  A    between atoms: C_3  and  O_6 
REMARK    3  A    between atoms: C_3  and  C_4 
REMARK    4  A    between atoms: C_7  and  O_6 
REMARK    5  A    between atoms: C_9  and  C_10 
REMARK    6  A    between atoms: N_15  and  C_14 
REMARK    7  A    between atoms: N_20  and  C_19 
REMARK       I    between atoms: C_22  and  N_20 
ROOT
ATOM      1  C   LIG d   1      -6.013  92.422 118.583  0.00  0.00     0.161 C 
ATOM      2  C   LIG d   1      -4.966  93.003 119.317  0.00  0.00     0.016 C 
ATOM      3  C   LIG d   1      -3.615  92.607 119.192  0.00  0.00     0.038 C 
ATOM      4  C   LIG d   1      -3.196  91.699 118.208  0.00  0.00     0.028 C 
ATOM      5  C   LIG d   1      -4.285  90.717 117.788  0.00  0.00    -0.047 C 
ATOM      6  C   LIG d   1      -5.562  91.509 117.425  0.00  0.00     0.091 C 
ENDROOT
BRANCH   1   7
ATOM      7  O   LIG d   1      -6.897  93.451 118.095  0.00  0.00    -0.368 OA
BRANCH   7   8
ATOM      8  C   LIG d   1      -7.174  94.541 119.009  0.00  0.00     0.119 C 
BRANCH   8   9
ATOM      9  C   LIG d   1      -8.350  94.106 119.905  0.00  0.00     0.028 C 
ATOM     10  C   LIG d   1      -8.022  94.227 121.403  0.00  0.00     0.006 C 
ENDBRANCH   8   9
BRANCH   8  11
ATOM     11  C   LIG d   1      -7.670  95.782 118.262  0.00  0.00     0.028 C 
ATOM     12  C   LIG d   1      -7.048  97.084 118.791  0.00  0.00     0.006 C 
ENDBRANCH   8  11
ENDBRANCH   7   8
ENDBRANCH   1   7
BRANCH   6  13
ATOM     13  N   LIG d   1      -6.702  90.619 117.083  0.00  0.00    -0.311 N 
ATOM     14  C   LIG d   1      -6.944  90.177 115.850  0.00  0.00     0.210 C 
ATOM     15  C   LIG d   1      -8.183  89.287 115.713  0.00  0.00     0.109 C 
ATOM     16  O   LIG d   1      -6.231  90.412 114.862  0.00  0.00    -0.276 OA
ATOM     17  H   LIG d   1      -7.313  90.353 117.830  0.00  0.00     0.149 HD
ENDBRANCH   6  13
BRANCH   5  18
ATOM     18  N   LIG d   1      -3.757  89.922 116.662  0.00  0.00     0.381 N 
ATOM     19  H   LIG d   1      -2.790  90.135 116.521  0.00  0.00    -0.090 HD
ATOM     20  H   LIG d   1      -4.260  90.168 115.827  0.00  0.00    -0.090 HD
ATOM     21  H   LIG d   1      -3.867  88.950 116.851  0.00  0.00    -0.090 HD
ENDBRANCH   5  18
BRANCH   3  22
ATOM     22  C   LIG d   1      -2.671  93.091 120.086  0.00  0.00     0.382 C 
ATOM     23  O   LIG d   1      -1.468  92.755 119.970  0.00  0.00    -0.241 OA
ATOM     24  O   LIG d   1      -3.015  93.823 121.033  0.00  0.00    -0.241 OA
ENDBRANCH   3  22
TORSDOF 7
ENDMDL
MODEL 2
REMARK VINA RESULT:      -5.3      2.701      6.541
REMARK  7 active torsions:
REMARK  status: ('A' for Active; 'I' for Inactive)
REMARK    1  A    between atoms: C_2  and  C_3 
REMARK    2  A    between atoms: C_3  and  O_6 
REMARK    3  A    between atoms: C_3  and  C_4 
REMARK    4  A    between atoms: C_7  and  O_6 
REMARK    5  A    between atoms: C_9  and  C_10 
REMARK    6  A    between atoms: N_15  and  C_14 
REMARK    7  A    between atoms: N_20  and  C_19 
REMARK       I    between atoms: C_22  and  N_20 
ROOT
ATOM      1  C   LIG d   1      -3.679  90.956 118.355  0.00  0.00     0.161 C 
ATOM      2  C   LIG d   1      -4.191  90.226 117.270  0.00  0.00     0.016 C 
ATOM      3  C   LIG d   1      -5.367  90.589 116.574  0.00  0.00     0.038 C 
ATOM      4  C   LIG d   1      -6.032  91.800 116.821  0.00  0.00     0.028 C 
ATOM      5  C   LIG d   1      -5.839  92.317 118.243  0.00  0.00    -0.047 C 
ATOM      6  C   LIG d   1      -4.328  92.340 118.568  0.00  0.00     0.091 C 
ENDROOT
BRANCH   1   7
ATOM      7  O   LIG d   1      -2.250  91.088 118.224  0.00  0.00    -0.368 OA
BRANCH   7   8
ATOM      8  C   LIG d   1      -1.538  89.906 117.783  0.00  0.00     0.119 C 
BRANCH   8   9
ATOM      9  C   LIG d   1      -1.248  89.048 119.029  0.00  0.00     0.028 C 
ATOM     10  C   LIG d   1      -1.986  87.699 118.998  0.00  0.00     0.006 C 
ENDBRANCH   8   9
BRANCH   8  11
ATOM     11  C   LIG d   1      -0.164  90.264 117.208  0.00  0.00     0.028 C 
ATOM     12  C   LIG d   1       0.161  91.761 117.331  0.00  0.00     0.006 C 
ENDBRANCH   8  11
ENDBRANCH   7   8
ENDBRANCH   1   7
BRANCH   6  13
ATOM     13  N   LIG d   1      -4.056  92.754 119.969  0.00  0.00    -0.311 N 
ATOM     14  C   LIG d   1      -3.795  94.011 120.325  0.00  0.00     0.210 C 
ATOM     15  C   LIG d   1      -3.523  94.216 121.818  0.00  0.00     0.109 C 
ATOM     16  O   LIG d   1      -3.796  94.979 119.551  0.00  0.00    -0.276 OA
ATOM     17  H   LIG d   1      -4.067  92.036 120.667  0.00  0.00     0.149 HD
ENDBRANCH   6  13
BRANCH   5  18
ATOM     18  N   LIG d   1      -6.468  93.649 118.322  0.00  0.00     0.381 N 
ATOM     19  H   LIG d   1      -7.020  93.714 119.154  0.00  0.00    -0.090 HD
ATOM     20  H   LIG d   1      -7.075  93.769 117.530  0.00  0.00    -0.090 HD
ATOM     21  H   LIG d   1      -5.767  94.357 118.323  0.00  0.00    -0.090 HD
ENDBRANCH   5  18
BRANCH   3  22
ATOM     22  C   LIG d   1      -5.913  89.717 115.644  0.00  0.00     0.382 C 
ATOM     23  O   LIG d   1      -7.110  89.355 115.750  0.00  0.00    -0.241 OA
ATOM     24  O   LIG d   1      -5.211  89.251 114.727  0.00  0.00    -0.241 OA
ENDBRANCH   3  22
TORSDOF 7
ENDMDL
MODEL 3
REMARK VINA RESULT:      -4.9      2.095      4.811
REMARK  7 active torsions:
REMARK  status: ('A' for Active; 'I' for Inactive)
REMARK    1  A    between atoms: C_2  and  C_3 
REMARK    2  A    between atoms: C_3  and  O_6 
REMARK    3  A    between atoms: C_3  and  C_4 
REMARK    4  A    between atoms: C_7  and  O_6 
REMARK    5  A    between atoms: C_9  and  C_10 
REMARK    6  A    between atoms: N_15  and  C_14 
REMARK    7  A    between atoms: N_20  and  C_19 
REMARK       I    between atoms: C_22  and  N_20 
ROOT
ATOM      1  C   LIG d   1      -4.878  92.058 118.313  0.00  0.00     0.161 C 
ATOM      2  C   LIG d   1      -5.809  91.989 117.263  0.00  0.00     0.016 C 
ATOM      3  C   LIG d   1      -5.776  90.996 116.257  0.00  0.00     0.038 C 
ATOM      4  C   LIG d   1      -4.893  89.907 116.319  0.00  0.00     0.028 C 
ATOM      5  C   LIG d   1      -3.610  90.211 117.084  0.00  0.00    -0.047 C 
ATOM      6  C   LIG d   1      -3.976  90.815 118.459  0.00  0.00     0.091 C 
ENDROOT
BRANCH   1   7
ATOM      7  O   LIG d   1      -5.560  92.331 119.553  0.00  0.00    -0.368 OA
BRANCH   7   8
ATOM      8  C   LIG d   1      -6.488  93.443 119.539  0.00  0.00     0.119 C 
BRANCH   8   9
ATOM      9  C   LIG d   1      -5.723  94.691 120.022  0.00  0.00     0.028 C 
ATOM     10  C   LIG d   1      -6.639  95.915 120.185  0.00  0.00     0.006 C 
ENDBRANCH   8   9
BRANCH   8  11
ATOM     11  C   LIG d   1      -7.616  93.241 120.554  0.00  0.00     0.028 C 
ATOM     12  C   LIG d   1      -7.220  92.302 121.705  0.00  0.00     0.006 C 
ENDBRANCH   8  11
ENDBRANCH   7   8
ENDBRANCH   1   7
BRANCH   6  13
ATOM     13  N   LIG d   1      -2.776  91.219 119.238  0.00  0.00    -0.311 N 
ATOM     14  C   LIG d   1      -2.171  90.423 120.117  0.00  0.00     0.210 C 
ATOM     15  C   LIG d   1      -0.963  91.043 120.826  0.00  0.00     0.109 C 
ATOM     16  O   LIG d   1      -2.500  89.250 120.354  0.00  0.00    -0.276 OA
ATOM     17  H   LIG d   1      -2.424  92.143 119.085  0.00  0.00     0.149 HD
ENDBRANCH   6  13
BRANCH   5  18
ATOM     18  N   LIG d   1      -2.845  88.954 117.189  0.00  0.00     0.381 N 
ATOM     19  H   LIG d   1      -3.346  88.215 116.737  0.00  0.00    -0.090 HD
ATOM     20  H   LIG d   1      -2.742  88.717 118.160  0.00  0.00    -0.090 HD
ATOM     21  H   LIG d   1      -1.949  89.064 116.769  0.00  0.00    -0.090 HD
ENDBRANCH   5  18
BRANCH   3  22
ATOM     22  C   LIG d   1      -6.607  91.108 115.153  0.00  0.00     0.382 C 
ATOM     23  O   LIG d   1      -7.378  90.165 114.850  0.00  0.00    -0.241 OA
ATOM     24  O   LIG d   1      -6.565  92.122 114.430  0.00  0.00    -0.241 OA
ENDBRANCH   3  22
TORSDOF 7
ENDMDL
MODEL 4
REMARK VINA RESULT:      -4.8      2.493      5.767
REMARK  7 active torsions:
REMARK  status: ('A' for Active; 'I' for Inactive)
REMARK    1  A    between atoms: C_2  and  C_3 
REMARK    2  A    between atoms: C_3  and  O_6 
REMARK    3  A    between atoms: C_3  and  C_4 
REMARK    4  A    between atoms: C_7  and  O_6 
REMARK    5  A    between atoms: C_9  and  C_10 
REMARK    6  A    between atoms: N_15  and  C_14 
REMARK    7  A    between atoms: N_20  and  C_19 
REMARK       I    between atoms: C_22  and  N_20 
ROOT
ATOM      1  C   LIG d   1      -5.050  92.571 118.918  0.00  0.00     0.161 C 
ATOM      2  C   LIG d   1      -6.412  92.912 118.883  0.00  0.00     0.016 C 
ATOM      3  C   LIG d   1      -6.927  94.113 119.423  0.00  0.00     0.038 C 
ATOM      4  C   LIG d   1      -6.089  95.130 119.903  0.00  0.00     0.028 C 
ATOM      5  C   LIG d   1      -4.749  94.616 120.419  0.00  0.00    -0.047 C 
ATOM      6  C   LIG d   1      -4.106  93.717 119.339  0.00  0.00     0.091 C 
ENDROOT
BRANCH   1   7
ATOM      7  O   LIG d   1      -4.647  92.034 117.642  0.00  0.00    -0.368 OA
BRANCH   7   8
ATOM      8  C   LIG d   1      -4.811  90.604 117.473  0.00  0.00     0.119 C 
BRANCH   8   9
ATOM      9  C   LIG d   1      -3.406  89.971 117.497  0.00  0.00     0.028 C 
ATOM     10  C   LIG d   1      -3.002  89.494 118.902  0.00  0.00     0.006 C 
ENDBRANCH   8   9
BRANCH   8  11
ATOM     11  C   LIG d   1      -5.383  90.268 116.092  0.00  0.00     0.028 C 
ATOM     12  C   LIG d   1      -6.317  91.363 115.552  0.00  0.00     0.006 C 
ENDBRANCH   8  11
ENDBRANCH   7   8
ENDBRANCH   1   7
BRANCH   6  13
ATOM     13  N   LIG d   1      -2.831  93.105 119.795  0.00  0.00    -0.311 N 
ATOM     14  C   LIG d   1      -1.756  92.984 119.017  0.00  0.00     0.210 C 
ATOM     15  C   LIG d   1      -0.553  92.305 119.679  0.00  0.00     0.109 C 
ATOM     16  O   LIG d   1      -1.675  93.403 117.853  0.00  0.00    -0.276 OA
ATOM     17  H   LIG d   1      -2.799  92.767 120.737  0.00  0.00     0.149 HD
ENDBRANCH   6  13
BRANCH   5  18
ATOM     18  N   LIG d   1      -3.923  95.790 120.760  0.00  0.00     0.381 N 
ATOM     19  H   LIG d   1      -4.088  96.056 121.710  0.00  0.00    -0.090 HD
ATOM     20  H   LIG d   1      -4.188  96.557 120.167  0.00  0.00    -0.090 HD
ATOM     21  H   LIG d   1      -2.958  95.578 120.630  0.00  0.00    -0.090 HD
ENDBRANCH   5  18
BRANCH   3  22
ATOM     22  C   LIG d   1      -8.299  94.289 119.522  0.00  0.00     0.382 C 
ATOM     23  O   LIG d   1      -8.934  94.814 118.575  0.00  0.00    -0.241 OA
ATOM     24  O   LIG d   1      -8.903  93.970 120.563  0.00  0.00    -0.241 OA
ENDBRANCH   3  22
TORSDOF 7
ENDMDL
MODEL 5
REMARK VINA RESULT:      -4.8      2.056      4.746
REMARK  7 active torsions:
REMARK  status: ('A' for Active; 'I' for Inactive)
REMARK    1  A    between atoms: C_2  and  C_3 
REMARK    2  A    between atoms: C_3  and  O_6 
REMARK    3  A    between atoms: C_3  and  C_4 
REMARK    4  A    between atoms: C_7  and  O_6 
REMARK    5  A    between atoms: C_9  and  C_10 
REMARK    6  A    between atoms: N_15  and  C_14 
REMARK    7  A    between atoms: N_20  and  C_19 
REMARK       I    between atoms: C_22  and  N_20 
ROOT
ATOM      1  C   LIG d   1      -5.118  91.872 118.444  0.00  0.00     0.161 C 
ATOM      2  C   LIG d   1      -5.998  91.827 117.350  0.00  0.00     0.016 C 
ATOM      3  C   LIG d   1      -5.830  90.953 116.251  0.00  0.00     0.038 C 
ATOM      4  C   LIG d   1      -4.846  89.953 116.243  0.00  0.00     0.028 C 
ATOM      5  C   LIG d   1      -3.628  90.295 117.094  0.00  0.00    -0.047 C 
ATOM      6  C   LIG d   1      -4.102  90.712 118.505  0.00  0.00     0.091 C 
ENDROOT
BRANCH   1   7
ATOM      7  O   LIG d   1      -5.868  91.946 119.672  0.00  0.00    -0.368 OA
BRANCH   7   8
ATOM      8  C   LIG d   1      -5.917  93.246 120.312  0.00  0.00     0.119 C 
BRANCH   8   9
ATOM      9  C   LIG d   1      -7.263  93.896 119.936  0.00  0.00     0.028 C 
ATOM     10  C   LIG d   1      -7.083  95.194 119.131  0.00  0.00     0.006 C 
ENDBRANCH   8   9
BRANCH   8  11
ATOM     11  C   LIG d   1      -4.843  94.183 119.751  0.00  0.00     0.028 C 
ATOM     12  C   LIG d   1      -3.690  94.425 120.738  0.00  0.00     0.006 C 
ENDBRANCH   8  11
ENDBRANCH   7   8
ENDBRANCH   1   7
BRANCH   6  13
ATOM     13  N   LIG d   1      -2.978  91.143 119.377  0.00  0.00    -0.311 N 
ATOM     14  C   LIG d   1      -2.335  90.322 120.204  0.00  0.00     0.210 C 
ATOM     15  C   LIG d   1      -1.221  90.975 121.027  0.00  0.00     0.109 C 
ATOM     16  O   LIG d   1      -2.561  89.107 120.312  0.00  0.00    -0.276 OA
ATOM     17  H   LIG d   1      -2.709  92.107 119.330  0.00  0.00     0.149 HD
ENDBRANCH   6  13
BRANCH   5  18
ATOM     18  N   LIG d   1      -2.747  89.111 117.107  0.00  0.00     0.381 N 
ATOM     19  H   LIG d   1      -3.299  88.279 117.159  0.00  0.00    -0.090 HD
ATOM     20  H   LIG d   1      -2.160  89.152 117.922  0.00  0.00    -0.090 HD
ATOM     21  H   LIG d   1      -2.185  89.096 116.284  0.00  0.00    -0.090 HD
ENDBRANCH   5  18
BRANCH   3  22
ATOM     22  C   LIG d   1      -6.627  91.102 115.127  0.00  0.00     0.382 C 
ATOM     23  O   LIG d   1      -6.541  92.142 114.431  0.00  0.00    -0.241 OA
ATOM     24  O   LIG d   1      -7.462  90.229 114.824  0.00  0.00    -0.241 OA
ENDBRANCH   3  22
TORSDOF 7
ENDMDL
MODEL 6
REMARK VINA RESULT:      -4.8      2.608      5.471
REMARK  7 active torsions:
REMARK  status: ('A' for Active; 'I' for Inactive)
REMARK    1  A    between atoms: C_2  and  C_3 
REMARK    2  A    between atoms: C_3  and  O_6 
REMARK    3  A    between atoms: C_3  and  C_4 
REMARK    4  A    between atoms: C_7  and  O_6 
REMARK    5  A    between atoms: C_9  and  C_10 
REMARK    6  A    between atoms: N_15  and  C_14 
REMARK    7  A    between atoms: N_20  and  C_19 
REMARK       I    between atoms: C_22  and  N_20 
ROOT
ATOM      1  C   LIG d   1      -3.480  90.597 118.234  0.00  0.00     0.161 C 
ATOM      2  C   LIG d   1      -2.956  91.191 119.394  0.00  0.00     0.016 C 
ATOM      3  C   LIG d   1      -3.560  92.292 120.045  0.00  0.00     0.038 C 
ATOM      4  C   LIG d   1      -4.819  92.779 119.663  0.00  0.00     0.028 C 
ATOM      5  C   LIG d   1      -5.142  92.537 118.193  0.00  0.00    -0.047 C 
ATOM      6  C   LIG d   1      -4.911  91.044 117.867  0.00  0.00     0.091 C 
ENDROOT
BRANCH   1   7
ATOM      7  O   LIG d   1      -3.418  89.161 118.350  0.00  0.00    -0.368 OA
BRANCH   7   8
ATOM      8  C   LIG d   1      -2.188  88.618 118.889  0.00  0.00     0.119 C 
BRANCH   8   9
ATOM      9  C   LIG d   1      -1.359  88.086 117.704  0.00  0.00     0.028 C 
ATOM     10  C   LIG d   1      -0.200  89.026 117.330  0.00  0.00     0.006 C 
ENDBRANCH   8   9
BRANCH   8  11
ATOM     11  C   LIG d   1      -2.459  87.398 119.774  0.00  0.00     0.028 C 
ATOM     12  C   LIG d   1      -1.396  86.299 119.616  0.00  0.00     0.006 C 
ENDBRANCH   8  11
ENDBRANCH   7   8
ENDBRANCH   1   7
BRANCH   6  13
ATOM     13  N   LIG d   1      -5.123  90.738 116.429  0.00  0.00    -0.311 N 
ATOM     14  C   LIG d   1      -6.275  90.284 115.938  0.00  0.00     0.210 C 
ATOM     15  C   LIG d   1      -6.274  90.014 114.430  0.00  0.00     0.109 C 
ATOM     16  O   LIG d   1      -7.307  90.109 116.603  0.00  0.00    -0.276 OA
ATOM     17  H   LIG d   1      -4.347  90.881 115.813  0.00  0.00     0.149 HD
ENDBRANCH   6  13
BRANCH   5  18
ATOM     18  N   LIG d   1      -6.534  92.970 117.966  0.00  0.00     0.381 N 
ATOM     19  H   LIG d   1      -6.889  92.545 117.133  0.00  0.00    -0.090 HD
ATOM     20  H   LIG d   1      -6.548  93.967 117.841  0.00  0.00    -0.090 HD
ATOM     21  H   LIG d   1      -7.101  92.717 118.744  0.00  0.00    -0.090 HD
ENDBRANCH   5  18
BRANCH   3  22
ATOM     22  C   LIG d   1      -2.883  92.941 121.066  0.00  0.00     0.382 C 
ATOM     23  O   LIG d   1      -1.659  92.730 121.241  0.00  0.00    -0.241 OA
ATOM     24  O   LIG d   1      -3.491  93.703 121.842  0.00  0.00    -0.241 OA
ENDBRANCH   3  22
TORSDOF 7
ENDMDL
MODEL 7
REMARK VINA RESULT:      -4.7      2.513      5.623
REMARK  7 active torsions:
REMARK  status: ('A' for Active; 'I' for Inactive)
REMARK    1  A    between atoms: C_2  and  C_3 
REMARK    2  A    between atoms: C_3  and  O_6 
REMARK    3  A    between atoms: C_3  and  C_4 
REMARK    4  A    between atoms: C_7  and  O_6 
REMARK    5  A    between atoms: C_9  and  C_10 
REMARK    6  A    between atoms: N_15  and  C_14 
REMARK    7  A    between atoms: N_20  and  C_19 
REMARK       I    between atoms: C_22  and  N_20 
ROOT
ATOM      1  C   LIG d   1      -3.745  92.561 119.978  0.00  0.00     0.161 C 
ATOM      2  C   LIG d   1      -3.464  91.479 119.127  0.00  0.00     0.016 C 
ATOM      3  C   LIG d   1      -4.252  91.150 118.000  0.00  0.00     0.038 C 
ATOM      4  C   LIG d   1      -5.295  91.978 117.558  0.00  0.00     0.028 C 
ATOM      5  C   LIG d   1      -5.929  92.802 118.673  0.00  0.00    -0.047 C 
ATOM      6  C   LIG d   1      -4.813  93.540 119.448  0.00  0.00     0.091 C 
ENDROOT
BRANCH   1   7
ATOM      7  O   LIG d   1      -2.527  93.267 120.287  0.00  0.00    -0.368 OA
BRANCH   7   8
ATOM      8  C   LIG d   1      -2.002  94.121 119.241  0.00  0.00     0.119 C 
BRANCH   8   9
ATOM      9  C   LIG d   1      -0.603  93.591 118.871  0.00  0.00     0.028 C 
ATOM     10  C   LIG d   1      -0.513  93.148 117.401  0.00  0.00     0.006 C 
ENDBRANCH   8   9
BRANCH   8  11
ATOM     11  C   LIG d   1      -1.774  95.548 119.749  0.00  0.00     0.028 C 
ATOM     12  C   LIG d   1      -2.054  95.698 121.252  0.00  0.00     0.006 C 
ENDBRANCH   8  11
ENDBRANCH   7   8
ENDBRANCH   1   7
BRANCH   6  13
ATOM     13  N   LIG d   1      -5.339  94.304 120.609  0.00  0.00    -0.311 N 
ATOM     14  C   LIG d   1      -5.645  95.599 120.557  0.00  0.00     0.210 C 
ATOM     15  C   LIG d   1      -6.153  96.197 121.873  0.00  0.00     0.109 C 
ATOM     16  O   LIG d   1      -5.576  96.302 119.538  0.00  0.00    -0.276 OA
ATOM     17  H   LIG d   1      -5.456  93.804 121.469  0.00  0.00     0.149 HD
ENDBRANCH   6  13
BRANCH   5  18
ATOM     18  N   LIG d   1      -6.904  93.718 118.052  0.00  0.00     0.381 N 
ATOM     19  H   LIG d   1      -6.492  94.163 117.257  0.00  0.00    -0.090 HD
ATOM     20  H   LIG d   1      -7.153  94.428 118.718  0.00  0.00    -0.090 HD
ATOM     21  H   LIG d   1      -7.717  93.213 117.775  0.00  0.00    -0.090 HD
ENDBRANCH   5  18
BRANCH   3  22
ATOM     22  C   LIG d   1      -4.025  89.960 117.325  0.00  0.00     0.382 C 
ATOM     23  O   LIG d   1      -4.688  89.686 116.296  0.00  0.00    -0.241 OA
ATOM     24  O   LIG d   1      -3.196  89.137 117.758  0.00  0.00    -0.241 OA
ENDBRANCH   3  22
TORSDOF 7
ENDMDL
MODEL 8
REMARK VINA RESULT:      -4.7      2.901      7.116
REMARK  7 active torsions:
REMARK  status: ('A' for Active; 'I' for Inactive)
REMARK    1  A    between atoms: C_2  and  C_3 
REMARK    2  A    between atoms: C_3  and  O_6 
REMARK    3  A    between atoms: C_3  and  C_4 
REMARK    4  A    between atoms: C_7  and  O_6 
REMARK    5  A    between atoms: C_9  and  C_10 
REMARK    6  A    between atoms: N_15  and  C_14 
REMARK    7  A    between atoms: N_20  and  C_19 
REMARK       I    between atoms: C_22  and  N_20 
ROOT
ATOM      1  C   LIG d   1      -3.099  90.313 118.075  0.00  0.00     0.161 C 
ATOM      2  C   LIG d   1      -3.980  89.858 117.079  0.00  0.00     0.016 C 
ATOM      3  C   LIG d   1      -5.144  90.560 116.691  0.00  0.00     0.038 C 
ATOM      4  C   LIG d   1      -5.427  91.849 117.168  0.00  0.00     0.028 C 
ATOM      5  C   LIG d   1      -4.836  92.127 118.546  0.00  0.00    -0.047 C 
ATOM      6  C   LIG d   1      -3.332  91.770 118.528  0.00  0.00     0.091 C 
ENDROOT
BRANCH   1   7
ATOM      7  O   LIG d   1      -1.737  90.136 117.639  0.00  0.00    -0.368 OA
BRANCH   7   8
ATOM      8  C   LIG d   1      -0.914  89.268 118.457  0.00  0.00     0.119 C 
BRANCH   8   9
ATOM      9  C   LIG d   1       0.509  89.859 118.473  0.00  0.00     0.028 C 
ATOM     10  C   LIG d   1       0.527  91.354 118.116  0.00  0.00     0.006 C 
ENDBRANCH   8   9
BRANCH   8  11
ATOM     11  C   LIG d   1      -0.769  87.880 117.825  0.00  0.00     0.028 C 
ATOM     12  C   LIG d   1       0.303  87.835 116.725  0.00  0.00     0.006 C 
ENDBRANCH   8  11
ENDBRANCH   7   8
ENDBRANCH   1   7
BRANCH   6  13
ATOM     13  N   LIG d   1      -2.695  91.933 119.860  0.00  0.00    -0.311 N 
ATOM     14  C   LIG d   1      -2.030  93.028 120.226  0.00  0.00     0.210 C 
ATOM     15  C   LIG d   1      -1.433  92.982 121.636  0.00  0.00     0.109 C 
ATOM     16  O   LIG d   1      -1.904  94.045 119.527  0.00  0.00    -0.276 OA
ATOM     17  H   LIG d   1      -2.774  91.168 120.501  0.00  0.00     0.149 HD
ENDBRANCH   6  13
BRANCH   5  18
ATOM     18  N   LIG d   1      -5.089  93.546 118.861  0.00  0.00     0.381 N 
ATOM     19  H   LIG d   1      -4.863  93.726 119.819  0.00  0.00    -0.090 HD
ATOM     20  H   LIG d   1      -6.065  93.740 118.725  0.00  0.00    -0.090 HD
ATOM     21  H   LIG d   1      -4.541  94.130 118.268  0.00  0.00    -0.090 HD
ENDBRANCH   5  18
BRANCH   3  22
ATOM     22  C   LIG d   1      -6.061  89.956 115.844  0.00  0.00     0.382 C 
ATOM     23  O   LIG d   1      -7.274  89.916 116.159  0.00  0.00    -0.241 OA
ATOM     24  O   LIG d   1      -5.683  89.411 114.790  0.00  0.00    -0.241 OA
ENDBRANCH   3  22
TORSDOF 7
ENDMDL
MODEL 9
REMARK VINA RESULT:      -4.6      4.801      7.699
REMARK  7 active torsions:
REMARK  status: ('A' for Active; 'I' for Inactive)
REMARK    1  A    between atoms: C_2  and  C_3 
REMARK    2  A    between atoms: C_3  and  O_6 
REMARK    3  A    between atoms: C_3  and  C_4 
REMARK    4  A    between atoms: C_7  and  O_6 
REMARK    5  A    between atoms: C_9  and  C_10 
REMARK    6  A    between atoms: N_15  and  C_14 
REMARK    7  A    between atoms: N_20  and  C_19 
REMARK       I    between atoms: C_22  and  N_20 
ROOT
ATOM      1  C   LIG d   1       0.311  90.626 116.618  0.00  0.00     0.161 C 
ATOM      2  C   LIG d   1       1.711  90.636 116.496  0.00  0.00     0.016 C 
ATOM      3  C   LIG d   1       2.552  91.487 117.250  0.00  0.00     0.038 C 
ATOM      4  C   LIG d   1       2.057  92.283 118.293  0.00  0.00     0.028 C 
ATOM      5  C   LIG d   1       0.596  92.679 118.113  0.00  0.00    -0.047 C 
ATOM      6  C   LIG d   1      -0.237  91.408 117.830  0.00  0.00     0.091 C 
ENDROOT
BRANCH   1   7
ATOM      7  O   LIG d   1      -0.167  89.267 116.641  0.00  0.00    -0.368 OA
BRANCH   7   8
ATOM      8  C   LIG d   1      -0.479  88.723 117.947  0.00  0.00     0.119 C 
BRANCH   8   9
ATOM      9  C   LIG d   1       0.488  87.551 118.204  0.00  0.00     0.028 C 
ATOM     10  C   LIG d   1       1.672  87.952 119.100  0.00  0.00     0.006 C 
ENDBRANCH   8   9
BRANCH   8  11
ATOM     11  C   LIG d   1      -1.881  88.105 117.973  0.00  0.00     0.028 C 
ATOM     12  C   LIG d   1      -2.403  87.871 119.400  0.00  0.00     0.006 C 
ENDBRANCH   8  11
ENDBRANCH   7   8
ENDBRANCH   1   7
BRANCH   6  13
ATOM     13  N   LIG d   1      -1.666  91.715 117.558  0.00  0.00    -0.311 N 
ATOM     14  C   LIG d   1      -2.609  91.709 118.498  0.00  0.00     0.210 C 
ATOM     15  C   LIG d   1      -4.021  92.034 118.000  0.00  0.00     0.109 C 
ATOM     16  O   LIG d   1      -2.406  91.495 119.703  0.00  0.00    -0.276 OA
ATOM     17  H   LIG d   1      -1.914  91.930 116.612  0.00  0.00     0.149 HD
ENDBRANCH   6  13
BRANCH   5  18
ATOM     18  N   LIG d   1       0.172  93.388 119.335  0.00  0.00     0.381 N 
ATOM     19  H   LIG d   1       0.107  92.742 120.096  0.00  0.00    -0.090 HD
ATOM     20  H   LIG d   1      -0.737  93.787 119.181  0.00  0.00    -0.090 HD
ATOM     21  H   LIG d   1       0.825  94.108 119.555  0.00  0.00    -0.090 HD
ENDBRANCH   5  18
BRANCH   3  22
ATOM     22  C   LIG d   1       3.899  91.576 116.935  0.00  0.00     0.382 C 
ATOM     23  O   LIG d   1       4.547  92.606 117.239  0.00  0.00    -0.241 OA
ATOM     24  O   LIG d   1       4.464  90.657 116.312  0.00  0.00    -0.241 OA
ENDBRANCH   3  22
TORSDOF 7
ENDMDL
