MODEL 1
REMARK VINA RESULT:      -5.6      0.000      0.000
REMARK  7 active torsions:
REMARK  status: ('A' for Active; 'I' for Inactive)
REMARK    1  A    between atoms: C_2  and  C_3 
REMARK    2  A    between atoms: C_3  and  O_6 
REMARK    3  A    between atoms: C_3  and  C_4 
REMARK    4  A    between atoms: C_7  and  O_6 
REMARK    5  A    between atoms: C_9  and  C_10 
REMARK    6  A    between atoms: N_15  and  C_14 
REMARK    7  A    between atoms: N_20  and  C_19 
REMARK       I    between atoms: C_22  and  N_20 
ROOT
ATOM      1  C   LIG d   1      -5.051  91.647 118.227  0.00  0.00     0.161 C 
ATOM      2  C   LIG d   1      -5.173  90.877 117.058  0.00  0.00     0.016 C 
ATOM      3  C   LIG d   1      -6.182  91.085 116.091  0.00  0.00     0.038 C 
ATOM      4  C   LIG d   1      -7.053  92.184 116.153  0.00  0.00     0.028 C 
ATOM      5  C   LIG d   1      -7.289  92.690 117.571  0.00  0.00    -0.047 C 
ATOM      6  C   LIG d   1      -5.923  92.919 118.257  0.00  0.00     0.091 C 
ENDROOT
BRANCH   1   7
ATOM      7  O   LIG d   1      -3.667  91.983 118.448  0.00  0.00    -0.368 OA
BRANCH   7   8
ATOM      8  C   LIG d   1      -2.973  91.199 119.449  0.00  0.00     0.119 C 
BRANCH   8   9
ATOM      9  C   LIG d   1      -2.166  92.177 120.326  0.00  0.00     0.028 C 
ATOM     10  C   LIG d   1      -2.369  93.643 119.909  0.00  0.00     0.006 C 
ENDBRANCH   8   9
BRANCH   8  11
ATOM     11  C   LIG d   1      -1.932  90.275 118.810  0.00  0.00     0.028 C 
ATOM     12  C   LIG d   1      -2.482  88.869 118.520  0.00  0.00     0.006 C 
ENDBRANCH   8  11
ENDBRANCH   7   8
ENDBRANCH   1   7
BRANCH   6  13
ATOM     13  N   LIG d   1      -6.064  93.335 119.677  0.00  0.00    -0.311 N 
ATOM     14  C   LIG d   1      -6.094  94.608 120.068  0.00  0.00     0.210 C 
ATOM     15  C   LIG d   1      -6.225  94.816 121.580  0.00  0.00     0.109 C 
ATOM     16  O   LIG d   1      -6.058  95.584 119.304  0.00  0.00    -0.276 OA
ATOM     17  H   LIG d   1      -6.131  92.607 120.361  0.00  0.00     0.149 HD
ENDBRANCH   6  13
BRANCH   5  18
ATOM     18  N   LIG d   1      -8.102  93.917 117.477  0.00  0.00     0.381 N 
ATOM     19  H   LIG d   1      -8.289  94.271 118.394  0.00  0.00    -0.090 HD
ATOM     20  H   LIG d   1      -8.980  93.693 117.041  0.00  0.00    -0.090 HD
ATOM     21  H   LIG d   1      -7.622  94.604 116.939  0.00  0.00    -0.090 HD
ENDBRANCH   5  18
BRANCH   3  22
ATOM     22  C   LIG d   1      -6.353  90.166 115.067  0.00  0.00     0.382 C 
ATOM     23  O   LIG d   1      -7.433  90.131 114.430  0.00  0.00    -0.241 OA
ATOM     24  O   LIG d   1      -5.458  89.342 114.802  0.00  0.00    -0.241 OA
ENDBRANCH   3  22
TORSDOF 7
ENDMDL
MODEL 2
REMARK VINA RESULT:      -5.6      0.969      1.834
REMARK  7 active torsions:
REMARK  status: ('A' for Active; 'I' for Inactive)
REMARK    1  A    between atoms: C_2  and  C_3 
REMARK    2  A    between atoms: C_3  and  O_6 
REMARK    3  A    between atoms: C_3  and  C_4 
REMARK    4  A    between atoms: C_7  and  O_6 
REMARK    5  A    between atoms: C_9  and  C_10 
REMARK    6  A    between atoms: N_15  and  C_14 
REMARK    7  A    between atoms: N_20  and  C_19 
REMARK       I    between atoms: C_22  and  N_20 
ROOT
ATOM      1  C   LIG d   1      -5.036  92.061 118.707  0.00  0.00     0.161 C 
ATOM      2  C   LIG d   1      -4.945  91.185 117.613  0.00  0.00     0.016 C 
ATOM      3  C   LIG d   1      -5.859  91.190 116.534  0.00  0.00     0.038 C 
ATOM      4  C   LIG d   1      -6.844  92.181 116.401  0.00  0.00     0.028 C 
ATOM      5  C   LIG d   1      -7.288  92.775 117.733  0.00  0.00    -0.047 C 
ATOM      6  C   LIG d   1      -6.038  93.221 118.525  0.00  0.00     0.091 C 
ENDROOT
BRANCH   1   7
ATOM      7  O   LIG d   1      -3.729  92.575 119.031  0.00  0.00    -0.368 OA
BRANCH   7   8
ATOM      8  C   LIG d   1      -2.609  91.709 118.722  0.00  0.00     0.119 C 
BRANCH   8   9
ATOM      9  C   LIG d   1      -2.142  91.066 120.042  0.00  0.00     0.028 C 
ATOM     10  C   LIG d   1      -1.969  89.542 119.924  0.00  0.00     0.006 C 
ENDBRANCH   8   9
BRANCH   8  11
ATOM     11  C   LIG d   1      -1.408  92.512 118.214  0.00  0.00     0.028 C 
ATOM     12  C   LIG d   1      -1.690  94.020 118.132  0.00  0.00     0.006 C 
ENDBRANCH   8  11
ENDBRANCH   7   8
ENDBRANCH   1   7
BRANCH   6  13
ATOM     13  N   LIG d   1      -6.377  93.738 119.877  0.00  0.00    -0.311 N 
ATOM     14  C   LIG d   1      -6.560  95.030 120.143  0.00  0.00     0.210 C 
ATOM     15  C   LIG d   1      -6.884  95.349 121.606  0.00  0.00     0.109 C 
ATOM     16  O   LIG d   1      -6.516  95.939 119.301  0.00  0.00    -0.276 OA
ATOM     17  H   LIG d   1      -6.463  93.065 120.614  0.00  0.00     0.149 HD
ENDBRANCH   6  13
BRANCH   5  18
ATOM     18  N   LIG d   1      -8.212  93.887 117.439  0.00  0.00     0.381 N 
ATOM     19  H   LIG d   1      -8.191  94.095 116.460  0.00  0.00    -0.090 HD
ATOM     20  H   LIG d   1      -7.910  94.702 117.942  0.00  0.00    -0.090 HD
ATOM     21  H   LIG d   1      -9.138  93.642 117.713  0.00  0.00    -0.090 HD
ENDBRANCH   5  18
BRANCH   3  22
ATOM     22  C   LIG d   1      -5.817  90.173 115.593  0.00  0.00     0.382 C 
ATOM     23  O   LIG d   1      -4.906  89.311 115.641  0.00  0.00    -0.241 OA
ATOM     24  O   LIG d   1      -6.652  90.132 114.669  0.00  0.00    -0.241 OA
ENDBRANCH   3  22
TORSDOF 7
ENDMDL
MODEL 3
REMARK VINA RESULT:      -5.1      2.118      5.456
REMARK  7 active torsions:
REMARK  status: ('A' for Active; 'I' for Inactive)
REMARK    1  A    between atoms: C_2  and  C_3 
REMARK    2  A    between atoms: C_3  and  O_6 
REMARK    3  A    between atoms: C_3  and  C_4 
REMARK    4  A    between atoms: C_7  and  O_6 
REMARK    5  A    between atoms: C_9  and  C_10 
REMARK    6  A    between atoms: N_15  and  C_14 
REMARK    7  A    between atoms: N_20  and  C_19 
REMARK       I    between atoms: C_22  and  N_20 
ROOT
ATOM      1  C   LIG d   1      -6.414  92.245 117.183  0.00  0.00     0.161 C 
ATOM      2  C   LIG d   1      -7.385  93.214 117.486  0.00  0.00     0.016 C 
ATOM      3  C   LIG d   1      -7.371  93.987 118.669  0.00  0.00     0.038 C 
ATOM      4  C   LIG d   1      -6.293  93.951 119.566  0.00  0.00     0.028 C 
ATOM      5  C   LIG d   1      -5.541  92.625 119.555  0.00  0.00    -0.047 C 
ATOM      6  C   LIG d   1      -5.170  92.270 118.096  0.00  0.00     0.091 C 
ENDROOT
BRANCH   1   7
ATOM      7  O   LIG d   1      -6.022  92.361 115.801  0.00  0.00    -0.368 OA
BRANCH   7   8
ATOM      8  C   LIG d   1      -6.537  91.344 114.906  0.00  0.00     0.119 C 
BRANCH   8   9
ATOM      9  C   LIG d   1      -8.057  91.564 114.780  0.00  0.00     0.028 C 
ATOM     10  C   LIG d   1      -8.864  90.306 115.139  0.00  0.00     0.006 C 
ENDBRANCH   8   9
BRANCH   8  11
ATOM     11  C   LIG d   1      -6.378  89.943 115.504  0.00  0.00     0.028 C 
ATOM     12  C   LIG d   1      -5.131  89.211 114.984  0.00  0.00     0.006 C 
ENDBRANCH   8  11
ENDBRANCH   7   8
ENDBRANCH   1   7
BRANCH   6  13
ATOM     13  N   LIG d   1      -4.505  90.946 117.987  0.00  0.00    -0.311 N 
ATOM     14  C   LIG d   1      -3.192  90.770 118.130  0.00  0.00     0.210 C 
ATOM     15  C   LIG d   1      -2.710  89.327 117.958  0.00  0.00     0.109 C 
ATOM     16  O   LIG d   1      -2.386  91.668 118.415  0.00  0.00    -0.276 OA
ATOM     17  H   LIG d   1      -5.089  90.157 117.788  0.00  0.00     0.149 HD
ENDBRANCH   6  13
BRANCH   5  18
ATOM     18  N   LIG d   1      -4.363  92.773 120.431  0.00  0.00     0.381 N 
ATOM     19  H   LIG d   1      -3.890  93.629 120.220  0.00  0.00    -0.090 HD
ATOM     20  H   LIG d   1      -3.731  92.012 120.257  0.00  0.00    -0.090 HD
ATOM     21  H   LIG d   1      -4.646  92.767 121.386  0.00  0.00    -0.090 HD
ENDBRANCH   5  18
BRANCH   3  22
ATOM     22  C   LIG d   1      -8.464  94.780 118.985  0.00  0.00     0.382 C 
ATOM     23  O   LIG d   1      -9.592  94.256 119.149  0.00  0.00    -0.241 OA
ATOM     24  O   LIG d   1      -8.345  96.017 119.064  0.00  0.00    -0.241 OA
ENDBRANCH   3  22
TORSDOF 7
ENDMDL
MODEL 4
REMARK VINA RESULT:      -5.0      2.246      5.908
REMARK  7 active torsions:
REMARK  status: ('A' for Active; 'I' for Inactive)
REMARK    1  A    between atoms: C_2  and  C_3 
REMARK    2  A    between atoms: C_3  and  O_6 
REMARK    3  A    between atoms: C_3  and  C_4 
REMARK    4  A    between atoms: C_7  and  O_6 
REMARK    5  A    between atoms: C_9  and  C_10 
REMARK    6  A    between atoms: N_15  and  C_14 
REMARK    7  A    between atoms: N_20  and  C_19 
REMARK       I    between atoms: C_22  and  N_20 
ROOT
ATOM      1  C   LIG d   1      -6.462  92.880 118.547  0.00  0.00     0.161 C 
ATOM      2  C   LIG d   1      -5.451  93.009 119.513  0.00  0.00     0.016 C 
ATOM      3  C   LIG d   1      -4.230  92.297 119.461  0.00  0.00     0.038 C 
ATOM      4  C   LIG d   1      -3.874  91.516 118.352  0.00  0.00     0.028 C 
ATOM      5  C   LIG d   1      -5.074  90.959 117.592  0.00  0.00    -0.047 C 
ATOM      6  C   LIG d   1      -6.046  92.118 117.271  0.00  0.00     0.091 C 
ENDROOT
BRANCH   1   7
ATOM      7  O   LIG d   1      -6.980  94.181 118.205  0.00  0.00    -0.368 OA
BRANCH   7   8
ATOM      8  C   LIG d   1      -7.222  95.082 119.314  0.00  0.00     0.119 C 
BRANCH   8   9
ATOM      9  C   LIG d   1      -8.564  94.677 119.955  0.00  0.00     0.028 C 
ATOM     10  C   LIG d   1      -8.606  94.973 121.464  0.00  0.00     0.006 C 
ENDBRANCH   8   9
BRANCH   8  11
ATOM     11  C   LIG d   1      -7.422  96.521 118.830  0.00  0.00     0.028 C 
ATOM     12  C   LIG d   1      -6.139  97.363 118.916  0.00  0.00     0.006 C 
ENDBRANCH   8  11
ENDBRANCH   7   8
ENDBRANCH   1   7
BRANCH   6  13
ATOM     13  N   LIG d   1      -7.287  91.647 116.603  0.00  0.00    -0.311 N 
ATOM     14  C   LIG d   1      -7.462  91.669 115.283  0.00  0.00     0.210 C 
ATOM     15  C   LIG d   1      -8.824  91.157 114.803  0.00  0.00     0.109 C 
ATOM     16  O   LIG d   1      -6.607  92.033 114.462  0.00  0.00    -0.276 OA
ATOM     17  H   LIG d   1      -8.021  91.306 117.192  0.00  0.00     0.149 HD
ENDBRANCH   6  13
BRANCH   5  18
ATOM     18  N   LIG d   1      -4.563  90.282 116.385  0.00  0.00     0.381 N 
ATOM     19  H   LIG d   1      -3.564  90.338 116.363  0.00  0.00    -0.090 HD
ATOM     20  H   LIG d   1      -4.923  90.751 115.573  0.00  0.00    -0.090 HD
ATOM     21  H   LIG d   1      -4.849  89.328 116.382  0.00  0.00    -0.090 HD
ENDBRANCH   5  18
BRANCH   3  22
ATOM     22  C   LIG d   1      -3.368  92.331 120.547  0.00  0.00     0.382 C 
ATOM     23  O   LIG d   1      -2.144  92.112 120.382  0.00  0.00    -0.241 OA
ATOM     24  O   LIG d   1      -3.806  92.534 121.695  0.00  0.00    -0.241 OA
ENDBRANCH   3  22
TORSDOF 7
ENDMDL
MODEL 5
REMARK VINA RESULT:      -4.9      2.282      4.593
REMARK  7 active torsions:
REMARK  status: ('A' for Active; 'I' for Inactive)
REMARK    1  A    between atoms: C_2  and  C_3 
REMARK    2  A    between atoms: C_3  and  O_6 
REMARK    3  A    between atoms: C_3  and  C_4 
REMARK    4  A    between atoms: C_7  and  O_6 
REMARK    5  A    between atoms: C_9  and  C_10 
REMARK    6  A    between atoms: N_15  and  C_14 
REMARK    7  A    between atoms: N_20  and  C_19 
REMARK       I    between atoms: C_22  and  N_20 
ROOT
ATOM      1  C   LIG d   1      -6.188  93.698 118.594  0.00  0.00     0.161 C 
ATOM      2  C   LIG d   1      -6.976  92.817 117.833  0.00  0.00     0.016 C 
ATOM      3  C   LIG d   1      -6.470  91.639 117.236  0.00  0.00     0.038 C 
ATOM      4  C   LIG d   1      -5.168  91.181 117.486  0.00  0.00     0.028 C 
ATOM      5  C   LIG d   1      -4.190  92.298 117.835  0.00  0.00    -0.047 C 
ATOM      6  C   LIG d   1      -4.793  93.157 118.970  0.00  0.00     0.091 C 
ENDROOT
BRANCH   1   7
ATOM      7  O   LIG d   1      -6.907  94.097 119.777  0.00  0.00    -0.368 OA
BRANCH   7   8
ATOM      8  C   LIG d   1      -7.818  95.213 119.624  0.00  0.00     0.119 C 
BRANCH   8   9
ATOM      9  C   LIG d   1      -7.012  96.394 119.049  0.00  0.00     0.028 C 
ATOM     10  C   LIG d   1      -6.179  97.114 120.123  0.00  0.00     0.006 C 
ENDBRANCH   8   9
BRANCH   8  11
ATOM     11  C   LIG d   1      -8.338  95.699 120.980  0.00  0.00     0.028 C 
ATOM     12  C   LIG d   1      -9.498  94.845 121.515  0.00  0.00     0.006 C 
ENDBRANCH   8  11
ENDBRANCH   7   8
ENDBRANCH   1   7
BRANCH   6  13
ATOM     13  N   LIG d   1      -3.937  94.322 119.315  0.00  0.00    -0.311 N 
ATOM     14  C   LIG d   1      -3.437  94.530 120.532  0.00  0.00     0.210 C 
ATOM     15  C   LIG d   1      -2.597  95.802 120.677  0.00  0.00     0.109 C 
ATOM     16  O   LIG d   1      -3.583  93.764 121.496  0.00  0.00    -0.276 OA
ATOM     17  H   LIG d   1      -3.743  94.978 118.583  0.00  0.00     0.149 HD
ENDBRANCH   6  13
BRANCH   5  18
ATOM     18  N   LIG d   1      -2.908  91.668 118.206  0.00  0.00     0.381 N 
ATOM     19  H   LIG d   1      -3.064  90.718 118.477  0.00  0.00    -0.090 HD
ATOM     20  H   LIG d   1      -2.519  92.160 118.991  0.00  0.00    -0.090 HD
ATOM     21  H   LIG d   1      -2.276  91.702 117.437  0.00  0.00    -0.090 HD
ENDBRANCH   5  18
BRANCH   3  22
ATOM     22  C   LIG d   1      -7.259  90.927 116.345  0.00  0.00     0.382 C 
ATOM     23  O   LIG d   1      -6.944  89.755 116.027  0.00  0.00    -0.241 OA
ATOM     24  O   LIG d   1      -8.257  91.458 115.821  0.00  0.00    -0.241 OA
ENDBRANCH   3  22
TORSDOF 7
ENDMDL
MODEL 6
REMARK VINA RESULT:      -4.9      1.563      2.332
REMARK  7 active torsions:
REMARK  status: ('A' for Active; 'I' for Inactive)
REMARK    1  A    between atoms: C_2  and  C_3 
REMARK    2  A    between atoms: C_3  and  O_6 
REMARK    3  A    between atoms: C_3  and  C_4 
REMARK    4  A    between atoms: C_7  and  O_6 
REMARK    5  A    between atoms: C_9  and  C_10 
REMARK    6  A    between atoms: N_15  and  C_14 
REMARK    7  A    between atoms: N_20  and  C_19 
REMARK       I    between atoms: C_22  and  N_20 
ROOT
ATOM      1  C   LIG d   1      -4.038  91.593 118.348  0.00  0.00     0.161 C 
ATOM      2  C   LIG d   1      -4.673  90.821 117.361  0.00  0.00     0.016 C 
ATOM      3  C   LIG d   1      -5.929  91.152 116.803  0.00  0.00     0.038 C 
ATOM      4  C   LIG d   1      -6.570  92.367 117.088  0.00  0.00     0.028 C 
ATOM      5  C   LIG d   1      -6.209  92.936 118.456  0.00  0.00    -0.047 C 
ATOM      6  C   LIG d   1      -4.670  92.979 118.591  0.00  0.00     0.091 C 
ENDROOT
BRANCH   1   7
ATOM      7  O   LIG d   1      -2.637  91.728 118.037  0.00  0.00    -0.368 OA
BRANCH   7   8
ATOM      8  C   LIG d   1      -1.714  91.123 118.976  0.00  0.00     0.119 C 
BRANCH   8   9
ATOM      9  C   LIG d   1      -0.916  90.048 118.213  0.00  0.00     0.028 C 
ATOM     10  C   LIG d   1      -1.707  88.740 118.043  0.00  0.00     0.006 C 
ENDBRANCH   8   9
BRANCH   8  11
ATOM     11  C   LIG d   1      -2.459  90.368 120.081  0.00  0.00     0.028 C 
ATOM     12  C   LIG d   1      -2.089  90.857 121.490  0.00  0.00     0.006 C 
ENDBRANCH   8  11
ENDBRANCH   7   8
ENDBRANCH   1   7
BRANCH   6  13
ATOM     13  N   LIG d   1      -4.231  93.445 119.933  0.00  0.00    -0.311 N 
ATOM     14  C   LIG d   1      -3.343  94.421 120.116  0.00  0.00     0.210 C 
ATOM     15  C   LIG d   1      -3.017  94.730 121.580  0.00  0.00     0.109 C 
ATOM     16  O   LIG d   1      -2.820  95.080 119.206  0.00  0.00    -0.276 OA
ATOM     17  H   LIG d   1      -4.630  92.985 120.728  0.00  0.00     0.149 HD
ENDBRANCH   6  13
BRANCH   5  18
ATOM     18  N   LIG d   1      -6.837  94.266 118.565  0.00  0.00     0.381 N 
ATOM     19  H   LIG d   1      -7.526  94.257 119.291  0.00  0.00    -0.090 HD
ATOM     20  H   LIG d   1      -7.295  94.482 117.698  0.00  0.00    -0.090 HD
ATOM     21  H   LIG d   1      -6.144  94.955 118.763  0.00  0.00    -0.090 HD
ENDBRANCH   5  18
BRANCH   3  22
ATOM     22  C   LIG d   1      -6.576  90.244 115.979  0.00  0.00     0.382 C 
ATOM     23  O   LIG d   1      -6.046  89.889 114.899  0.00  0.00    -0.241 OA
ATOM     24  O   LIG d   1      -7.704  89.809 116.281  0.00  0.00    -0.241 OA
ENDBRANCH   3  22
TORSDOF 7
ENDMDL
MODEL 7
REMARK VINA RESULT:      -4.6      2.179      5.056
REMARK  7 active torsions:
REMARK  status: ('A' for Active; 'I' for Inactive)
REMARK    1  A    between atoms: C_2  and  C_3 
REMARK    2  A    between atoms: C_3  and  O_6 
REMARK    3  A    between atoms: C_3  and  C_4 
REMARK    4  A    between atoms: C_7  and  O_6 
REMARK    5  A    between atoms: C_9  and  C_10 
REMARK    6  A    between atoms: N_15  and  C_14 
REMARK    7  A    between atoms: N_20  and  C_19 
REMARK       I    between atoms: C_22  and  N_20 
ROOT
ATOM      1  C   LIG d   1      -5.700  92.141 118.163  0.00  0.00     0.161 C 
ATOM      2  C   LIG d   1      -6.867  92.915 118.042  0.00  0.00     0.016 C 
ATOM      3  C   LIG d   1      -7.107  94.083 118.801  0.00  0.00     0.038 C 
ATOM      4  C   LIG d   1      -6.124  94.645 119.629  0.00  0.00     0.028 C 
ATOM      5  C   LIG d   1      -5.126  93.623 120.163  0.00  0.00    -0.047 C 
ATOM      6  C   LIG d   1      -4.569  92.800 118.980  0.00  0.00     0.091 C 
ENDROOT
BRANCH   1   7
ATOM      7  O   LIG d   1      -5.223  91.770 116.854  0.00  0.00    -0.368 OA
BRANCH   7   8
ATOM      8  C   LIG d   1      -6.003  90.773 116.150  0.00  0.00     0.119 C 
BRANCH   8   9
ATOM      9  C   LIG d   1      -5.036  89.660 115.702  0.00  0.00     0.028 C 
ATOM     10  C   LIG d   1      -3.888  89.443 116.702  0.00  0.00     0.006 C 
ENDBRANCH   8   9
BRANCH   8  11
ATOM     11  C   LIG d   1      -6.595  91.341 114.856  0.00  0.00     0.028 C 
ATOM     12  C   LIG d   1      -8.130  91.397 114.878  0.00  0.00     0.006 C 
ENDBRANCH   8  11
ENDBRANCH   7   8
ENDBRANCH   1   7
BRANCH   6  13
ATOM     13  N   LIG d   1      -3.648  91.721 119.423  0.00  0.00    -0.311 N 
ATOM     14  C   LIG d   1      -2.324  91.861 119.472  0.00  0.00     0.210 C 
ATOM     15  C   LIG d   1      -1.560  90.618 119.940  0.00  0.00     0.109 C 
ATOM     16  O   LIG d   1      -1.713  92.906 119.203  0.00  0.00    -0.276 OA
ATOM     17  H   LIG d   1      -4.062  90.849 119.690  0.00  0.00     0.149 HD
ENDBRANCH   6  13
BRANCH   5  18
ATOM     18  N   LIG d   1      -4.081  94.362 120.896  0.00  0.00     0.381 N 
ATOM     19  H   LIG d   1      -3.255  94.427 120.335  0.00  0.00    -0.090 HD
ATOM     20  H   LIG d   1      -3.853  93.858 121.735  0.00  0.00    -0.090 HD
ATOM     21  H   LIG d   1      -4.406  95.275 121.127  0.00  0.00    -0.090 HD
ENDBRANCH   5  18
BRANCH   3  22
ATOM     22  C   LIG d   1      -8.358  94.680 118.766  0.00  0.00     0.382 C 
ATOM     23  O   LIG d   1      -9.298  94.207 119.450  0.00  0.00    -0.241 OA
ATOM     24  O   LIG d   1      -8.571  95.658 118.025  0.00  0.00    -0.241 OA
ENDBRANCH   3  22
TORSDOF 7
ENDMDL
MODEL 8
REMARK VINA RESULT:      -4.6      1.845      3.177
REMARK  7 active torsions:
REMARK  status: ('A' for Active; 'I' for Inactive)
REMARK    1  A    between atoms: C_2  and  C_3 
REMARK    2  A    between atoms: C_3  and  O_6 
REMARK    3  A    between atoms: C_3  and  C_4 
REMARK    4  A    between atoms: C_7  and  O_6 
REMARK    5  A    between atoms: C_9  and  C_10 
REMARK    6  A    between atoms: N_15  and  C_14 
REMARK    7  A    between atoms: N_20  and  C_19 
REMARK       I    between atoms: C_22  and  N_20 
ROOT
ATOM      1  C   LIG d   1      -5.202  92.858 119.821  0.00  0.00     0.161 C 
ATOM      2  C   LIG d   1      -4.649  91.858 119.004  0.00  0.00     0.016 C 
ATOM      3  C   LIG d   1      -5.170  91.512 117.736  0.00  0.00     0.038 C 
ATOM      4  C   LIG d   1      -6.197  92.252 117.130  0.00  0.00     0.028 C 
ATOM      5  C   LIG d   1      -7.115  92.946 118.130  0.00  0.00    -0.047 C 
ATOM      6  C   LIG d   1      -6.253  93.751 119.129  0.00  0.00     0.091 C 
ENDROOT
BRANCH   1   7
ATOM      7  O   LIG d   1      -4.149  93.667 120.384  0.00  0.00    -0.368 OA
BRANCH   7   8
ATOM      8  C   LIG d   1      -3.775  94.843 119.625  0.00  0.00     0.119 C 
BRANCH   8   9
ATOM      9  C   LIG d   1      -2.336  94.627 119.118  0.00  0.00     0.028 C 
ATOM     10  C   LIG d   1      -1.401  94.091 120.215  0.00  0.00     0.006 C 
ENDBRANCH   8   9
BRANCH   8  11
ATOM     11  C   LIG d   1      -3.709  96.085 120.519  0.00  0.00     0.028 C 
ATOM     12  C   LIG d   1      -4.168  97.362 119.798  0.00  0.00     0.006 C 
ENDBRANCH   8  11
ENDBRANCH   7   8
ENDBRANCH   1   7
BRANCH   6  13
ATOM     13  N   LIG d   1      -7.068  94.392 120.193  0.00  0.00    -0.311 N 
ATOM     14  C   LIG d   1      -7.571  95.621 120.091  0.00  0.00     0.210 C 
ATOM     15  C   LIG d   1      -8.365  96.099 121.310  0.00  0.00     0.109 C 
ATOM     16  O   LIG d   1      -7.462  96.349 119.092  0.00  0.00    -0.276 OA
ATOM     17  H   LIG d   1      -7.232  93.861 121.026  0.00  0.00     0.149 HD
ENDBRANCH   6  13
BRANCH   5  18
ATOM     18  N   LIG d   1      -8.052  93.790 117.364  0.00  0.00     0.381 N 
ATOM     19  H   LIG d   1      -8.871  93.968 117.910  0.00  0.00    -0.090 HD
ATOM     20  H   LIG d   1      -8.328  93.297 116.533  0.00  0.00    -0.090 HD
ATOM     21  H   LIG d   1      -7.613  94.650 117.119  0.00  0.00    -0.090 HD
ENDBRANCH   5  18
BRANCH   3  22
ATOM     22  C   LIG d   1      -4.690  90.390 117.078  0.00  0.00     0.382 C 
ATOM     23  O   LIG d   1      -5.289  89.952 116.067  0.00  0.00    -0.241 OA
ATOM     24  O   LIG d   1      -3.691  89.784 117.510  0.00  0.00    -0.241 OA
ENDBRANCH   3  22
TORSDOF 7
ENDMDL
MODEL 9
REMARK VINA RESULT:      -4.6      2.122      4.485
REMARK  7 active torsions:
REMARK  status: ('A' for Active; 'I' for Inactive)
REMARK    1  A    between atoms: C_2  and  C_3 
REMARK    2  A    between atoms: C_3  and  O_6 
REMARK    3  A    between atoms: C_3  and  C_4 
REMARK    4  A    between atoms: C_7  and  O_6 
REMARK    5  A    between atoms: C_9  and  C_10 
REMARK    6  A    between atoms: N_15  and  C_14 
REMARK    7  A    between atoms: N_20  and  C_19 
REMARK       I    between atoms: C_22  and  N_20 
ROOT
ATOM      1  C   LIG d   1      -6.138  93.534 118.689  0.00  0.00     0.161 C 
ATOM      2  C   LIG d   1      -6.883  93.212 117.543  0.00  0.00     0.016 C 
ATOM      3  C   LIG d   1      -6.599  92.100 116.717  0.00  0.00     0.038 C 
ATOM      4  C   LIG d   1      -5.636  91.142 117.069  0.00  0.00     0.028 C 
ATOM      5  C   LIG d   1      -4.522  91.697 117.950  0.00  0.00    -0.047 C 
ATOM      6  C   LIG d   1      -5.154  92.438 119.151  0.00  0.00     0.091 C 
ENDROOT
BRANCH   1   7
ATOM      7  O   LIG d   1      -7.027  93.894 119.765  0.00  0.00    -0.368 OA
BRANCH   7   8
ATOM      8  C   LIG d   1      -6.728  95.134 120.452  0.00  0.00     0.119 C 
BRANCH   8   9
ATOM      9  C   LIG d   1      -8.046  95.660 121.052  0.00  0.00     0.028 C 
ATOM     10  C   LIG d   1      -9.194  94.645 120.929  0.00  0.00     0.006 C 
ENDBRANCH   8   9
BRANCH   8  11
ATOM     11  C   LIG d   1      -6.268  96.217 119.471  0.00  0.00     0.028 C 
ATOM     12  C   LIG d   1      -4.939  96.869 119.884  0.00  0.00     0.006 C 
ENDBRANCH   8  11
ENDBRANCH   7   8
ENDBRANCH   1   7
BRANCH   6  13
ATOM     13  N   LIG d   1      -4.135  93.084 120.018  0.00  0.00    -0.311 N 
ATOM     14  C   LIG d   1      -3.037  93.671 119.547  0.00  0.00     0.210 C 
ATOM     15  C   LIG d   1      -2.108  94.258 120.614  0.00  0.00     0.109 C 
ATOM     16  O   LIG d   1      -2.759  93.789 118.344  0.00  0.00    -0.276 OA
ATOM     17  H   LIG d   1      -4.297  93.062 121.006  0.00  0.00     0.149 HD
ENDBRANCH   6  13
BRANCH   5  18
ATOM     18  N   LIG d   1      -3.667  90.565 118.354  0.00  0.00     0.381 N 
ATOM     19  H   LIG d   1      -4.088  89.704 118.068  0.00  0.00    -0.090 HD
ATOM     20  H   LIG d   1      -3.587  90.560 119.356  0.00  0.00    -0.090 HD
ATOM     21  H   LIG d   1      -2.765  90.655 117.942  0.00  0.00    -0.090 HD
ENDBRANCH   5  18
BRANCH   3  22
ATOM     22  C   LIG d   1      -7.254  91.960 115.503  0.00  0.00     0.382 C 
ATOM     23  O   LIG d   1      -6.636  92.161 114.430  0.00  0.00    -0.241 OA
ATOM     24  O   LIG d   1      -8.467  91.678 115.469  0.00  0.00    -0.241 OA
ENDBRANCH   3  22
TORSDOF 7
ENDMDL
