MODEL 1
REMARK VINA RESULT:      -5.3      0.000      0.000
REMARK  7 active torsions:
REMARK  status: ('A' for Active; 'I' for Inactive)
REMARK    1  A    between atoms: C_2  and  C_3 
REMARK    2  A    between atoms: C_3  and  O_6 
REMARK    3  A    between atoms: C_3  and  C_4 
REMARK    4  A    between atoms: C_7  and  O_6 
REMARK    5  A    between atoms: C_9  and  C_10 
REMARK    6  A    between atoms: N_15  and  C_14 
REMARK    7  A    between atoms: N_20  and  C_19 
REMARK       I    between atoms: C_22  and  N_20 
ROOT
ATOM      1  C   LIG d   1      -3.791  92.104 117.566  0.00  0.00     0.161 C 
ATOM      2  C   LIG d   1      -4.882  92.199 116.687  0.00  0.00     0.016 C 
ATOM      3  C   LIG d   1      -5.286  91.148 115.831  0.00  0.00     0.038 C 
ATOM      4  C   LIG d   1      -4.715  89.870 115.907  0.00  0.00     0.028 C 
ATOM      5  C   LIG d   1      -3.280  89.877 116.422  0.00  0.00    -0.047 C 
ATOM      6  C   LIG d   1      -3.224  90.679 117.742  0.00  0.00     0.091 C 
ENDROOT
BRANCH   1   7
ATOM      7  O   LIG d   1      -4.144  92.664 118.846  0.00  0.00    -0.368 OA
BRANCH   7   8
ATOM      8  C   LIG d   1      -5.508  93.133 118.982  0.00  0.00     0.119 C 
BRANCH   8   9
ATOM      9  C   LIG d   1      -5.449  94.637 119.314  0.00  0.00     0.028 C 
ATOM     10  C   LIG d   1      -6.562  95.436 118.615  0.00  0.00     0.006 C 
ENDBRANCH   8   9
BRANCH   8  11
ATOM     11  C   LIG d   1      -6.205  92.480 120.179  0.00  0.00     0.028 C 
ATOM     12  C   LIG d   1      -5.336  91.414 120.866  0.00  0.00     0.006 C 
ENDBRANCH   8  11
ENDBRANCH   7   8
ENDBRANCH   1   7
BRANCH   6  13
ATOM     13  N   LIG d   1      -1.841  90.807 118.270  0.00  0.00    -0.311 N 
ATOM     14  C   LIG d   1      -1.300  89.941 119.125  0.00  0.00     0.210 C 
ATOM     15  C   LIG d   1       0.132  90.270 119.560  0.00  0.00     0.109 C 
ATOM     16  O   LIG d   1      -1.858  88.915 119.541  0.00  0.00    -0.276 OA
ATOM     17  H   LIG d   1      -1.306  91.594 117.961  0.00  0.00     0.149 HD
ENDBRANCH   6  13
BRANCH   5  18
ATOM     18  N   LIG d   1      -2.856  88.473 116.580  0.00  0.00     0.381 N 
ATOM     19  H   LIG d   1      -2.941  87.993 115.707  0.00  0.00    -0.090 HD
ATOM     20  H   LIG d   1      -3.459  88.025 117.247  0.00  0.00    -0.090 HD
ATOM     21  H   LIG d   1      -1.912  88.435 116.897  0.00  0.00    -0.090 HD
ENDBRANCH   5  18
BRANCH   3  22
ATOM     22  C   LIG d   1      -6.247  91.384 114.860  0.00  0.00     0.382 C 
ATOM     23  O   LIG d   1      -6.440  92.551 114.439  0.00  0.00    -0.241 OA
ATOM     24  O   LIG d   1      -6.953  90.453 114.430  0.00  0.00    -0.241 OA
ENDBRANCH   3  22
TORSDOF 7
ENDMDL
MODEL 2
REMARK VINA RESULT:      -5.1      0.979      1.831
REMARK  7 active torsions:
REMARK  status: ('A' for Active; 'I' for Inactive)
REMARK    1  A    between atoms: C_2  and  C_3 
REMARK    2  A    between atoms: C_3  and  O_6 
REMARK    3  A    between atoms: C_3  and  C_4 
REMARK    4  A    between atoms: C_7  and  O_6 
REMARK    5  A    between atoms: C_9  and  C_10 
REMARK    6  A    between atoms: N_15  and  C_14 
REMARK    7  A    between atoms: N_20  and  C_19 
REMARK       I    between atoms: C_22  and  N_20 
ROOT
ATOM      1  C   LIG d   1      -3.810  92.057 117.632  0.00  0.00     0.161 C 
ATOM      2  C   LIG d   1      -4.896  92.161 116.746  0.00  0.00     0.016 C 
ATOM      3  C   LIG d   1      -5.280  91.126 115.862  0.00  0.00     0.038 C 
ATOM      4  C   LIG d   1      -4.694  89.852 115.912  0.00  0.00     0.028 C 
ATOM      5  C   LIG d   1      -3.264  89.864 116.440  0.00  0.00    -0.047 C 
ATOM      6  C   LIG d   1      -3.229  90.635 117.779  0.00  0.00     0.091 C 
ENDROOT
BRANCH   1   7
ATOM      7  O   LIG d   1      -4.180  92.583 118.921  0.00  0.00    -0.368 OA
BRANCH   7   8
ATOM      8  C   LIG d   1      -4.358  94.019 118.997  0.00  0.00     0.119 C 
BRANCH   8   9
ATOM      9  C   LIG d   1      -3.351  94.556 120.032  0.00  0.00     0.028 C 
ATOM     10  C   LIG d   1      -2.829  93.455 120.970  0.00  0.00     0.006 C 
ENDBRANCH   8   9
BRANCH   8  11
ATOM     11  C   LIG d   1      -5.740  94.381 119.551  0.00  0.00     0.028 C 
ATOM     12  C   LIG d   1      -6.579  95.207 118.563  0.00  0.00     0.006 C 
ENDBRANCH   8  11
ENDBRANCH   7   8
ENDBRANCH   1   7
BRANCH   6  13
ATOM     13  N   LIG d   1      -1.851  90.767 118.322  0.00  0.00    -0.311 N 
ATOM     14  C   LIG d   1      -1.487  90.304 119.516  0.00  0.00     0.210 C 
ATOM     15  C   LIG d   1      -0.024  90.562 119.891  0.00  0.00     0.109 C 
ATOM     16  O   LIG d   1      -2.228  89.676 120.288  0.00  0.00    -0.276 OA
ATOM     17  H   LIG d   1      -1.178  91.236 117.748  0.00  0.00     0.149 HD
ENDBRANCH   6  13
BRANCH   5  18
ATOM     18  N   LIG d   1      -2.825  88.462 116.569  0.00  0.00     0.381 N 
ATOM     19  H   LIG d   1      -3.623  87.861 116.626  0.00  0.00    -0.090 HD
ATOM     20  H   LIG d   1      -2.295  88.364 117.417  0.00  0.00    -0.090 HD
ATOM     21  H   LIG d   1      -2.263  88.207 115.786  0.00  0.00    -0.090 HD
ENDBRANCH   5  18
BRANCH   3  22
ATOM     22  C   LIG d   1      -6.235  91.374 114.888  0.00  0.00     0.382 C 
ATOM     23  O   LIG d   1      -6.923  90.430 114.430  0.00  0.00    -0.241 OA
ATOM     24  O   LIG d   1      -6.387  92.522 114.430  0.00  0.00    -0.241 OA
ENDBRANCH   3  22
TORSDOF 7
ENDMDL
MODEL 3
REMARK VINA RESULT:      -5.0      2.553      4.838
REMARK  7 active torsions:
REMARK  status: ('A' for Active; 'I' for Inactive)
REMARK    1  A    between atoms: C_2  and  C_3 
REMARK    2  A    between atoms: C_3  and  O_6 
REMARK    3  A    between atoms: C_3  and  C_4 
REMARK    4  A    between atoms: C_7  and  O_6 
REMARK    5  A    between atoms: C_9  and  C_10 
REMARK    6  A    between atoms: N_15  and  C_14 
REMARK    7  A    between atoms: N_20  and  C_19 
REMARK       I    between atoms: C_22  and  N_20 
ROOT
ATOM      1  C   LIG d   1      -2.540  91.147 117.859  0.00  0.00     0.161 C 
ATOM      2  C   LIG d   1      -3.334  90.305 117.064  0.00  0.00     0.016 C 
ATOM      3  C   LIG d   1      -4.616  90.666 116.588  0.00  0.00     0.038 C 
ATOM      4  C   LIG d   1      -5.130  91.961 116.752  0.00  0.00     0.028 C 
ATOM      5  C   LIG d   1      -4.580  92.681 117.978  0.00  0.00    -0.047 C 
ATOM      6  C   LIG d   1      -3.036  92.605 117.955  0.00  0.00     0.091 C 
ENDROOT
BRANCH   1   7
ATOM      7  O   LIG d   1      -1.175  91.112 117.396  0.00  0.00    -0.368 OA
BRANCH   7   8
ATOM      8  C   LIG d   1      -0.309  90.144 118.037  0.00  0.00     0.119 C 
BRANCH   8   9
ATOM      9  C   LIG d   1       0.916  90.906 118.579  0.00  0.00     0.028 C 
ATOM     10  C   LIG d   1       1.257  92.145 117.734  0.00  0.00     0.006 C 
ENDBRANCH   8   9
BRANCH   8  11
ATOM     11  C   LIG d   1       0.252  89.141 117.025  0.00  0.00     0.028 C 
ATOM     12  C   LIG d   1      -0.477  87.788 117.060  0.00  0.00     0.006 C 
ENDBRANCH   8  11
ENDBRANCH   7   8
ENDBRANCH   1   7
BRANCH   6  13
ATOM     13  N   LIG d   1      -2.420  93.212 119.163  0.00  0.00    -0.311 N 
ATOM     14  C   LIG d   1      -1.538  94.208 119.115  0.00  0.00     0.210 C 
ATOM     15  C   LIG d   1      -1.012  94.673 120.476  0.00  0.00     0.109 C 
ATOM     16  O   LIG d   1      -1.166  94.773 118.075  0.00  0.00    -0.276 OA
ATOM     17  H   LIG d   1      -2.690  92.835 120.051  0.00  0.00     0.149 HD
ENDBRANCH   6  13
BRANCH   5  18
ATOM     18  N   LIG d   1      -5.092  94.064 117.950  0.00  0.00     0.381 N 
ATOM     19  H   LIG d   1      -5.896  94.140 118.541  0.00  0.00    -0.090 HD
ATOM     20  H   LIG d   1      -5.368  94.289 117.011  0.00  0.00    -0.090 HD
ATOM     21  H   LIG d   1      -4.385  94.695 118.256  0.00  0.00    -0.090 HD
ENDBRANCH   5  18
BRANCH   3  22
ATOM     22  C   LIG d   1      -5.415  89.713 115.975  0.00  0.00     0.382 C 
ATOM     23  O   LIG d   1      -5.094  89.254 114.852  0.00  0.00    -0.241 OA
ATOM     24  O   LIG d   1      -6.475  89.338 116.510  0.00  0.00    -0.241 OA
ENDBRANCH   3  22
TORSDOF 7
ENDMDL
MODEL 4
REMARK VINA RESULT:      -5.0      1.239      1.799
REMARK  7 active torsions:
REMARK  status: ('A' for Active; 'I' for Inactive)
REMARK    1  A    between atoms: C_2  and  C_3 
REMARK    2  A    between atoms: C_3  and  O_6 
REMARK    3  A    between atoms: C_3  and  C_4 
REMARK    4  A    between atoms: C_7  and  O_6 
REMARK    5  A    between atoms: C_9  and  C_10 
REMARK    6  A    between atoms: N_15  and  C_14 
REMARK    7  A    between atoms: N_20  and  C_19 
REMARK       I    between atoms: C_22  and  N_20 
ROOT
ATOM      1  C   LIG d   1      -3.749  91.856 117.636  0.00  0.00     0.161 C 
ATOM      2  C   LIG d   1      -4.843  91.996 116.766  0.00  0.00     0.016 C 
ATOM      3  C   LIG d   1      -5.240  90.997 115.849  0.00  0.00     0.038 C 
ATOM      4  C   LIG d   1      -4.659  89.720 115.845  0.00  0.00     0.028 C 
ATOM      5  C   LIG d   1      -3.223  89.707 116.358  0.00  0.00    -0.047 C 
ATOM      6  C   LIG d   1      -3.172  90.428 117.725  0.00  0.00     0.091 C 
ENDROOT
BRANCH   1   7
ATOM      7  O   LIG d   1      -4.105  92.335 118.949  0.00  0.00    -0.368 OA
BRANCH   7   8
ATOM      8  C   LIG d   1      -3.473  93.569 119.370  0.00  0.00     0.119 C 
BRANCH   8   9
ATOM      9  C   LIG d   1      -4.539  94.679 119.309  0.00  0.00     0.028 C 
ATOM     10  C   LIG d   1      -4.720  95.394 120.659  0.00  0.00     0.006 C 
ENDBRANCH   8   9
BRANCH   8  11
ATOM     11  C   LIG d   1      -2.382  94.000 118.386  0.00  0.00     0.028 C 
ATOM     12  C   LIG d   1      -0.984  94.034 119.023  0.00  0.00     0.006 C 
ENDBRANCH   8  11
ENDBRANCH   7   8
ENDBRANCH   1   7
BRANCH   6  13
ATOM     13  N   LIG d   1      -1.789  90.535 118.258  0.00  0.00    -0.311 N 
ATOM     14  C   LIG d   1      -1.459  90.219 119.509  0.00  0.00     0.210 C 
ATOM     15  C   LIG d   1       0.018  90.421 119.860  0.00  0.00     0.109 C 
ATOM     16  O   LIG d   1      -2.244  89.760 120.353  0.00  0.00    -0.276 OA
ATOM     17  H   LIG d   1      -1.083  90.869 117.632  0.00  0.00     0.149 HD
ENDBRANCH   6  13
BRANCH   5  18
ATOM     18  N   LIG d   1      -2.788  88.300 116.430  0.00  0.00     0.381 N 
ATOM     19  H   LIG d   1      -2.318  88.134 117.298  0.00  0.00    -0.090 HD
ATOM     20  H   LIG d   1      -2.141  88.121 115.683  0.00  0.00    -0.090 HD
ATOM     21  H   LIG d   1      -3.575  87.695 116.350  0.00  0.00    -0.090 HD
ENDBRANCH   5  18
BRANCH   3  22
ATOM     22  C   LIG d   1      -6.204  91.284 114.894  0.00  0.00     0.382 C 
ATOM     23  O   LIG d   1      -6.303  92.446 114.433  0.00  0.00    -0.241 OA
ATOM     24  O   LIG d   1      -7.005  90.406 114.521  0.00  0.00    -0.241 OA
ENDBRANCH   3  22
TORSDOF 7
ENDMDL
MODEL 5
REMARK VINA RESULT:      -4.9      2.358      4.816
REMARK  7 active torsions:
REMARK  status: ('A' for Active; 'I' for Inactive)
REMARK    1  A    between atoms: C_2  and  C_3 
REMARK    2  A    between atoms: C_3  and  O_6 
REMARK    3  A    between atoms: C_3  and  C_4 
REMARK    4  A    between atoms: C_7  and  O_6 
REMARK    5  A    between atoms: C_9  and  C_10 
REMARK    6  A    between atoms: N_15  and  C_14 
REMARK    7  A    between atoms: N_20  and  C_19 
REMARK       I    between atoms: C_22  and  N_20 
ROOT
ATOM      1  C   LIG d   1      -3.244  90.830 117.833  0.00  0.00     0.161 C 
ATOM      2  C   LIG d   1      -3.769  90.086 116.763  0.00  0.00     0.016 C 
ATOM      3  C   LIG d   1      -4.877  90.507 115.992  0.00  0.00     0.038 C 
ATOM      4  C   LIG d   1      -5.444  91.781 116.143  0.00  0.00     0.028 C 
ATOM      5  C   LIG d   1      -5.272  92.359 117.544  0.00  0.00    -0.047 C 
ATOM      6  C   LIG d   1      -3.780  92.273 117.942  0.00  0.00     0.091 C 
ENDROOT
BRANCH   1   7
ATOM      7  O   LIG d   1      -1.805  90.834 117.766  0.00  0.00    -0.368 OA
BRANCH   7   8
ATOM      8  C   LIG d   1      -1.184  89.604 117.317  0.00  0.00     0.119 C 
BRANCH   8   9
ATOM      9  C   LIG d   1      -0.945  88.726 118.561  0.00  0.00     0.028 C 
ATOM     10  C   LIG d   1      -1.849  87.483 118.584  0.00  0.00     0.006 C 
ENDBRANCH   8   9
BRANCH   8  11
ATOM     11  C   LIG d   1       0.207  89.864 116.730  0.00  0.00     0.028 C 
ATOM     12  C   LIG d   1       0.756  91.253 117.090  0.00  0.00     0.006 C 
ENDBRANCH   8  11
ENDBRANCH   7   8
ENDBRANCH   1   7
BRANCH   6  13
ATOM     13  N   LIG d   1      -3.537  92.740 119.331  0.00  0.00    -0.311 N 
ATOM     14  C   LIG d   1      -2.779  93.794 119.628  0.00  0.00     0.210 C 
ATOM     15  C   LIG d   1      -2.642  94.092 121.125  0.00  0.00     0.109 C 
ATOM     16  O   LIG d   1      -2.233  94.530 118.793  0.00  0.00    -0.276 OA
ATOM     17  H   LIG d   1      -3.967  92.219 120.070  0.00  0.00     0.149 HD
ENDBRANCH   6  13
BRANCH   5  18
ATOM     18  N   LIG d   1      -5.786  93.741 117.523  0.00  0.00     0.381 N 
ATOM     19  H   LIG d   1      -5.397  94.236 116.745  0.00  0.00    -0.090 HD
ATOM     20  H   LIG d   1      -5.502  94.207 118.367  0.00  0.00    -0.090 HD
ATOM     21  H   LIG d   1      -6.780  93.734 117.457  0.00  0.00    -0.090 HD
ENDBRANCH   5  18
BRANCH   3  22
ATOM     22  C   LIG d   1      -5.453  89.633 115.083  0.00  0.00     0.382 C 
ATOM     23  O   LIG d   1      -4.732  88.840 114.431  0.00  0.00    -0.241 OA
ATOM     24  O   LIG d   1      -6.681  89.658 114.874  0.00  0.00    -0.241 OA
ENDBRANCH   3  22
TORSDOF 7
ENDMDL
MODEL 6
REMARK VINA RESULT:      -4.9      2.391      4.890
REMARK  7 active torsions:
REMARK  status: ('A' for Active; 'I' for Inactive)
REMARK    1  A    between atoms: C_2  and  C_3 
REMARK    2  A    between atoms: C_3  and  O_6 
REMARK    3  A    between atoms: C_3  and  C_4 
REMARK    4  A    between atoms: C_7  and  O_6 
REMARK    5  A    between atoms: C_9  and  C_10 
REMARK    6  A    between atoms: N_15  and  C_14 
REMARK    7  A    between atoms: N_20  and  C_19 
REMARK       I    between atoms: C_22  and  N_20 
ROOT
ATOM      1  C   LIG d   1      -2.809  90.298 117.542  0.00  0.00     0.161 C 
ATOM      2  C   LIG d   1      -3.893  89.908 116.737  0.00  0.00     0.016 C 
ATOM      3  C   LIG d   1      -4.971  90.765 116.416  0.00  0.00     0.038 C 
ATOM      4  C   LIG d   1      -4.964  92.125 116.758  0.00  0.00     0.028 C 
ATOM      5  C   LIG d   1      -4.134  92.434 117.999  0.00  0.00    -0.047 C 
ATOM      6  C   LIG d   1      -2.729  91.811 117.831  0.00  0.00     0.091 C 
ENDROOT
BRANCH   1   7
ATOM      7  O   LIG d   1      -1.576  89.833 116.958  0.00  0.00    -0.368 OA
BRANCH   7   8
ATOM      8  C   LIG d   1      -1.213  88.460 117.245  0.00  0.00     0.119 C 
BRANCH   8   9
ATOM      9  C   LIG d   1      -1.263  88.277 118.774  0.00  0.00     0.028 C 
ATOM     10  C   LIG d   1      -2.025  87.008 119.189  0.00  0.00     0.006 C 
ENDBRANCH   8   9
BRANCH   8  11
ATOM     11  C   LIG d   1       0.239  88.174 116.849  0.00  0.00     0.028 C 
ATOM     12  C   LIG d   1       0.384  86.905 115.995  0.00  0.00     0.006 C 
ENDBRANCH   8  11
ENDBRANCH   7   8
ENDBRANCH   1   7
BRANCH   6  13
ATOM     13  N   LIG d   1      -1.880  91.995 119.036  0.00  0.00    -0.311 N 
ATOM     14  C   LIG d   1      -0.996  92.983 119.167  0.00  0.00     0.210 C 
ATOM     15  C   LIG d   1      -0.210  92.977 120.482  0.00  0.00     0.109 C 
ATOM     16  O   LIG d   1      -0.812  93.882 118.334  0.00  0.00    -0.276 OA
ATOM     17  H   LIG d   1      -1.987  91.328 119.775  0.00  0.00     0.149 HD
ENDBRANCH   6  13
BRANCH   5  18
ATOM     18  N   LIG d   1      -4.101  93.900 118.159  0.00  0.00     0.381 N 
ATOM     19  H   LIG d   1      -4.823  94.318 117.607  0.00  0.00    -0.090 HD
ATOM     20  H   LIG d   1      -3.215  94.243 117.832  0.00  0.00    -0.090 HD
ATOM     21  H   LIG d   1      -4.225  94.141 119.118  0.00  0.00    -0.090 HD
ENDBRANCH   5  18
BRANCH   3  22
ATOM     22  C   LIG d   1      -6.092  90.251 115.781  0.00  0.00     0.382 C 
ATOM     23  O   LIG d   1      -6.531  90.800 114.742  0.00  0.00    -0.241 OA
ATOM     24  O   LIG d   1      -6.695  89.271 116.259  0.00  0.00    -0.241 OA
ENDBRANCH   3  22
TORSDOF 7
ENDMDL
MODEL 7
REMARK VINA RESULT:      -4.6      2.681      4.885
REMARK  7 active torsions:
REMARK  status: ('A' for Active; 'I' for Inactive)
REMARK    1  A    between atoms: C_2  and  C_3 
REMARK    2  A    between atoms: C_3  and  O_6 
REMARK    3  A    between atoms: C_3  and  C_4 
REMARK    4  A    between atoms: C_7  and  O_6 
REMARK    5  A    between atoms: C_9  and  C_10 
REMARK    6  A    between atoms: N_15  and  C_14 
REMARK    7  A    between atoms: N_20  and  C_19 
REMARK       I    between atoms: C_22  and  N_20 
ROOT
ATOM      1  C   LIG d   1      -4.453  93.026 118.294  0.00  0.00     0.161 C 
ATOM      2  C   LIG d   1      -5.745  93.569 118.401  0.00  0.00     0.016 C 
ATOM      3  C   LIG d   1      -6.019  94.808 119.024  0.00  0.00     0.038 C 
ATOM      4  C   LIG d   1      -4.994  95.666 119.453  0.00  0.00     0.028 C 
ATOM      5  C   LIG d   1      -3.708  94.935 119.821  0.00  0.00    -0.047 C 
ATOM      6  C   LIG d   1      -3.311  93.999 118.657  0.00  0.00     0.091 C 
ENDROOT
BRANCH   1   7
ATOM      7  O   LIG d   1      -4.256  92.492 116.970  0.00  0.00    -0.368 OA
BRANCH   7   8
ATOM      8  C   LIG d   1      -4.162  91.050 116.872  0.00  0.00     0.119 C 
BRANCH   8   9
ATOM      9  C   LIG d   1      -5.290  90.575 115.935  0.00  0.00     0.028 C 
ATOM     10  C   LIG d   1      -6.423  89.864 116.694  0.00  0.00     0.006 C 
ENDBRANCH   8   9
BRANCH   8  11
ATOM     11  C   LIG d   1      -4.446  90.380 118.220  0.00  0.00     0.028 C 
ATOM     12  C   LIG d   1      -3.250  89.571 118.747  0.00  0.00     0.006 C 
ENDBRANCH   8  11
ENDBRANCH   7   8
ENDBRANCH   1   7
BRANCH   6  13
ATOM     13  N   LIG d   1      -2.109  93.183 118.969  0.00  0.00    -0.311 N 
ATOM     14  C   LIG d   1      -0.870  93.549 118.645  0.00  0.00     0.210 C 
ATOM     15  C   LIG d   1       0.224  92.553 119.042  0.00  0.00     0.109 C 
ATOM     16  O   LIG d   1      -0.570  94.619 118.094  0.00  0.00    -0.276 OA
ATOM     17  H   LIG d   1      -2.258  92.314 119.443  0.00  0.00     0.149 HD
ENDBRANCH   6  13
BRANCH   5  18
ATOM     18  N   LIG d   1      -2.684  95.956 120.116  0.00  0.00     0.381 N 
ATOM     19  H   LIG d   1      -1.873  95.519 120.505  0.00  0.00    -0.090 HD
ATOM     20  H   LIG d   1      -3.053  96.598 120.795  0.00  0.00    -0.090 HD
ATOM     21  H   LIG d   1      -2.441  96.445 119.283  0.00  0.00    -0.090 HD
ENDBRANCH   5  18
BRANCH   3  22
ATOM     22  C   LIG d   1      -7.333  95.183 119.261  0.00  0.00     0.382 C 
ATOM     23  O   LIG d   1      -7.699  95.488 120.421  0.00  0.00    -0.241 OA
ATOM     24  O   LIG d   1      -8.168  95.177 118.336  0.00  0.00    -0.241 OA
ENDBRANCH   3  22
TORSDOF 7
ENDMDL
MODEL 8
REMARK VINA RESULT:      -4.5      2.470      5.596
REMARK  7 active torsions:
REMARK  status: ('A' for Active; 'I' for Inactive)
REMARK    1  A    between atoms: C_2  and  C_3 
REMARK    2  A    between atoms: C_3  and  O_6 
REMARK    3  A    between atoms: C_3  and  C_4 
REMARK    4  A    between atoms: C_7  and  O_6 
REMARK    5  A    between atoms: C_9  and  C_10 
REMARK    6  A    between atoms: N_15  and  C_14 
REMARK    7  A    between atoms: N_20  and  C_19 
REMARK       I    between atoms: C_22  and  N_20 
ROOT
ATOM      1  C   LIG d   1      -2.022  91.595 118.037  0.00  0.00     0.161 C 
ATOM      2  C   LIG d   1      -1.651  92.655 118.881  0.00  0.00     0.016 C 
ATOM      3  C   LIG d   1      -2.525  93.709 119.237  0.00  0.00     0.038 C 
ATOM      4  C   LIG d   1      -3.884  93.694 118.891  0.00  0.00     0.028 C 
ATOM      5  C   LIG d   1      -4.177  92.903 117.620  0.00  0.00    -0.047 C 
ATOM      6  C   LIG d   1      -3.533  91.503 117.740  0.00  0.00     0.091 C 
ENDROOT
BRANCH   1   7
ATOM      7  O   LIG d   1      -1.540  90.349 118.578  0.00  0.00    -0.368 OA
BRANCH   7   8
ATOM      8  C   LIG d   1      -2.448  89.645 119.461  0.00  0.00     0.119 C 
BRANCH   8   9
ATOM      9  C   LIG d   1      -1.876  89.746 120.888  0.00  0.00     0.028 C 
ATOM     10  C   LIG d   1      -0.382  89.385 120.949  0.00  0.00     0.006 C 
ENDBRANCH   8   9
BRANCH   8  11
ATOM     11  C   LIG d   1      -2.483  88.147 119.144  0.00  0.00     0.028 C 
ATOM     12  C   LIG d   1      -1.909  87.818 117.757  0.00  0.00     0.006 C 
ENDBRANCH   8  11
ENDBRANCH   7   8
ENDBRANCH   1   7
BRANCH   6  13
ATOM     13  N   LIG d   1      -3.700  90.694 116.505  0.00  0.00    -0.311 N 
ATOM     14  C   LIG d   1      -4.704  89.840 116.318  0.00  0.00     0.210 C 
ATOM     15  C   LIG d   1      -4.677  89.092 114.981  0.00  0.00     0.109 C 
ATOM     16  O   LIG d   1      -5.632  89.653 117.119  0.00  0.00    -0.276 OA
ATOM     17  H   LIG d   1      -3.009  90.807 115.789  0.00  0.00     0.149 HD
ENDBRANCH   6  13
BRANCH   5  18
ATOM     18  N   LIG d   1      -5.642  92.854 117.454  0.00  0.00     0.381 N 
ATOM     19  H   LIG d   1      -6.088  92.966 118.342  0.00  0.00    -0.090 HD
ATOM     20  H   LIG d   1      -5.897  91.955 117.084  0.00  0.00    -0.090 HD
ATOM     21  H   LIG d   1      -5.939  93.573 116.832  0.00  0.00    -0.090 HD
ENDBRANCH   5  18
BRANCH   3  22
ATOM     22  C   LIG d   1      -2.030  94.813 119.913  0.00  0.00     0.382 C 
ATOM     23  O   LIG d   1      -0.820  95.126 119.802  0.00  0.00    -0.241 OA
ATOM     24  O   LIG d   1      -2.767  95.475 120.668  0.00  0.00    -0.241 OA
ENDBRANCH   3  22
TORSDOF 7
ENDMDL
MODEL 9
REMARK VINA RESULT:      -4.5      2.320      4.705
REMARK  7 active torsions:
REMARK  status: ('A' for Active; 'I' for Inactive)
REMARK    1  A    between atoms: C_2  and  C_3 
REMARK    2  A    between atoms: C_3  and  O_6 
REMARK    3  A    between atoms: C_3  and  C_4 
REMARK    4  A    between atoms: C_7  and  O_6 
REMARK    5  A    between atoms: C_9  and  C_10 
REMARK    6  A    between atoms: N_15  and  C_14 
REMARK    7  A    between atoms: N_20  and  C_19 
REMARK       I    between atoms: C_22  and  N_20 
ROOT
ATOM      1  C   LIG d   1      -2.698  90.284 117.642  0.00  0.00     0.161 C 
ATOM      2  C   LIG d   1      -3.705  89.726 116.838  0.00  0.00     0.016 C 
ATOM      3  C   LIG d   1      -4.875  90.424 116.459  0.00  0.00     0.038 C 
ATOM      4  C   LIG d   1      -5.046  91.789 116.736  0.00  0.00     0.028 C 
ATOM      5  C   LIG d   1      -4.289  92.255 117.975  0.00  0.00    -0.047 C 
ATOM      6  C   LIG d   1      -2.814  91.807 117.861  0.00  0.00     0.091 C 
ENDROOT
BRANCH   1   7
ATOM      7  O   LIG d   1      -1.403  89.953 117.103  0.00  0.00    -0.368 OA
BRANCH   7   8
ATOM      8  C   LIG d   1      -0.680  88.898 117.783  0.00  0.00     0.119 C 
BRANCH   8   9
ATOM      9  C   LIG d   1      -0.761  87.637 116.901  0.00  0.00     0.028 C 
ATOM     10  C   LIG d   1       0.597  87.266 116.281  0.00  0.00     0.006 C 
ENDBRANCH   8   9
BRANCH   8  11
ATOM     11  C   LIG d   1      -1.361  88.515 119.100  0.00  0.00     0.028 C 
ATOM     12  C   LIG d   1      -1.901  87.076 119.096  0.00  0.00     0.006 C 
ENDBRANCH   8  11
ENDBRANCH   7   8
ENDBRANCH   1   7
BRANCH   6  13
ATOM     13  N   LIG d   1      -2.022  92.150 119.071  0.00  0.00    -0.311 N 
ATOM     14  C   LIG d   1      -2.379  91.797 120.305  0.00  0.00     0.210 C 
ATOM     15  C   LIG d   1      -1.431  92.269 121.412  0.00  0.00     0.109 C 
ATOM     16  O   LIG d   1      -3.373  91.110 120.584  0.00  0.00    -0.276 OA
ATOM     17  H   LIG d   1      -1.184  92.679 118.932  0.00  0.00     0.149 HD
ENDBRANCH   6  13
BRANCH   5  18
ATOM     18  N   LIG d   1      -4.443  93.719 118.067  0.00  0.00     0.381 N 
ATOM     19  H   LIG d   1      -4.474  94.115 117.148  0.00  0.00    -0.090 HD
ATOM     20  H   LIG d   1      -3.647  94.101 118.547  0.00  0.00    -0.090 HD
ATOM     21  H   LIG d   1      -5.278  93.944 118.561  0.00  0.00    -0.090 HD
ENDBRANCH   5  18
BRANCH   3  22
ATOM     22  C   LIG d   1      -5.907  89.745 115.830  0.00  0.00     0.382 C 
ATOM     23  O   LIG d   1      -6.866  89.297 116.504  0.00  0.00    -0.241 OA
ATOM     24  O   LIG d   1      -5.870  89.537 114.603  0.00  0.00    -0.241 OA
ENDBRANCH   3  22
TORSDOF 7
ENDMDL
