MODEL 1
REMARK VINA RESULT:      -5.7      0.000      0.000
REMARK  7 active torsions:
REMARK  status: ('A' for Active; 'I' for Inactive)
REMARK    1  A    between atoms: C_2  and  C_3 
REMARK    2  A    between atoms: C_3  and  O_6 
REMARK    3  A    between atoms: C_3  and  C_4 
REMARK    4  A    between atoms: C_7  and  O_6 
REMARK    5  A    between atoms: C_9  and  C_10 
REMARK    6  A    between atoms: N_15  and  C_14 
REMARK    7  A    between atoms: N_20  and  C_19 
REMARK       I    between atoms: C_22  and  N_20 
ROOT
ATOM      1  C   LIG d   1      -5.352  91.575 118.761  0.00  0.00     0.161 C 
ATOM      2  C   LIG d   1      -6.516  91.108 118.127  0.00  0.00     0.016 C 
ATOM      3  C   LIG d   1      -6.500  90.327 116.949  0.00  0.00     0.038 C 
ATOM      4  C   LIG d   1      -5.307  89.830 116.405  0.00  0.00     0.028 C 
ATOM      5  C   LIG d   1      -4.091  90.693 116.721  0.00  0.00    -0.047 C 
ATOM      6  C   LIG d   1      -4.040  90.949 118.244  0.00  0.00     0.091 C 
ENDROOT
BRANCH   1   7
ATOM      7  O   LIG d   1      -5.466  91.395 120.186  0.00  0.00    -0.368 OA
BRANCH   7   8
ATOM      8  C   LIG d   1      -5.580  92.605 120.974  0.00  0.00     0.119 C 
BRANCH   8   9
ATOM      9  C   LIG d   1      -5.985  93.744 120.018  0.00  0.00     0.028 C 
ATOM     10  C   LIG d   1      -7.389  94.293 120.321  0.00  0.00     0.006 C 
ENDBRANCH   8   9
BRANCH   8  11
ATOM     11  C   LIG d   1      -4.225  93.024 121.552  0.00  0.00     0.028 C 
ATOM     12  C   LIG d   1      -3.749  94.388 121.028  0.00  0.00     0.006 C 
ENDBRANCH   8  11
ENDBRANCH   7   8
ENDBRANCH   1   7
BRANCH   6  13
ATOM     13  N   LIG d   1      -2.927  91.856 118.630  0.00  0.00    -0.311 N 
ATOM     14  C   LIG d   1      -1.738  91.423 119.044  0.00  0.00     0.210 C 
ATOM     15  C   LIG d   1      -0.739  92.525 119.411  0.00  0.00     0.109 C 
ATOM     16  O   LIG d   1      -1.404  90.230 119.111  0.00  0.00    -0.276 OA
ATOM     17  H   LIG d   1      -3.101  92.841 118.575  0.00  0.00     0.149 HD
ENDBRANCH   6  13
BRANCH   5  18
ATOM     18  N   LIG d   1      -2.899  89.988 116.213  0.00  0.00     0.381 N 
ATOM     19  H   LIG d   1      -2.574  89.335 116.897  0.00  0.00    -0.090 HD
ATOM     20  H   LIG d   1      -2.170  90.660 116.047  0.00  0.00    -0.090 HD
ATOM     21  H   LIG d   1      -3.120  89.511 115.366  0.00  0.00    -0.090 HD
ENDBRANCH   5  18
BRANCH   3  22
ATOM     22  C   LIG d   1      -7.687  90.070 116.279  0.00  0.00     0.382 C 
ATOM     23  O   LIG d   1      -8.478  89.200 116.718  0.00  0.00    -0.241 OA
ATOM     24  O   LIG d   1      -7.956  90.664 115.218  0.00  0.00    -0.241 OA
ENDBRANCH   3  22
TORSDOF 7
ENDMDL
MODEL 2
REMARK VINA RESULT:      -5.1      2.110      4.229
REMARK  7 active torsions:
REMARK  status: ('A' for Active; 'I' for Inactive)
REMARK    1  A    between atoms: C_2  and  C_3 
REMARK    2  A    between atoms: C_3  and  O_6 
REMARK    3  A    between atoms: C_3  and  C_4 
REMARK    4  A    between atoms: C_7  and  O_6 
REMARK    5  A    between atoms: C_9  and  C_10 
REMARK    6  A    between atoms: N_15  and  C_14 
REMARK    7  A    between atoms: N_20  and  C_19 
REMARK       I    between atoms: C_22  and  N_20 
ROOT
ATOM      1  C   LIG d   1      -3.637  90.425 117.786  0.00  0.00     0.161 C 
ATOM      2  C   LIG d   1      -4.685  90.199 116.880  0.00  0.00     0.016 C 
ATOM      3  C   LIG d   1      -6.017  90.614 117.111  0.00  0.00     0.038 C 
ATOM      4  C   LIG d   1      -6.362  91.422 118.204  0.00  0.00     0.028 C 
ATOM      5  C   LIG d   1      -5.436  91.249 119.403  0.00  0.00    -0.047 C 
ATOM      6  C   LIG d   1      -3.972  91.403 118.932  0.00  0.00     0.091 C 
ENDROOT
BRANCH   1   7
ATOM      7  O   LIG d   1      -2.464  90.870 117.076  0.00  0.00    -0.368 OA
BRANCH   7   8
ATOM      8  C   LIG d   1      -1.348  89.947 117.048  0.00  0.00     0.119 C 
BRANCH   8   9
ATOM      9  C   LIG d   1      -1.815  88.635 117.708  0.00  0.00     0.028 C 
ATOM     10  C   LIG d   1      -1.292  87.389 116.973  0.00  0.00     0.006 C 
ENDBRANCH   8   9
BRANCH   8  11
ATOM     11  C   LIG d   1      -0.189  90.447 117.915  0.00  0.00     0.028 C 
ATOM     12  C   LIG d   1      -0.082  91.980 117.939  0.00  0.00     0.006 C 
ENDBRANCH   8  11
ENDBRANCH   7   8
ENDBRANCH   1   7
BRANCH   6  13
ATOM     13  N   LIG d   1      -2.996  91.164 120.027  0.00  0.00    -0.311 N 
ATOM     14  C   LIG d   1      -2.466  92.140 120.763  0.00  0.00     0.210 C 
ATOM     15  C   LIG d   1      -1.466  91.677 121.827  0.00  0.00     0.109 C 
ATOM     16  O   LIG d   1      -2.754  93.342 120.656  0.00  0.00    -0.276 OA
ATOM     17  H   LIG d   1      -2.731  90.215 120.203  0.00  0.00     0.149 HD
ENDBRANCH   6  13
BRANCH   5  18
ATOM     18  N   LIG d   1      -5.826  92.247 120.416  0.00  0.00     0.381 N 
ATOM     19  H   LIG d   1      -5.470  93.147 120.160  0.00  0.00    -0.090 HD
ATOM     20  H   LIG d   1      -5.424  91.989 121.299  0.00  0.00    -0.090 HD
ATOM     21  H   LIG d   1      -6.819  92.285 120.493  0.00  0.00    -0.090 HD
ENDBRANCH   5  18
BRANCH   3  22
ATOM     22  C   LIG d   1      -7.027  90.185 116.263  0.00  0.00     0.382 C 
ATOM     23  O   LIG d   1      -7.737  89.201 116.581  0.00  0.00    -0.241 OA
ATOM     24  O   LIG d   1      -7.209  90.743 115.165  0.00  0.00    -0.241 OA
ENDBRANCH   3  22
TORSDOF 7
ENDMDL
MODEL 3
REMARK VINA RESULT:      -4.9      2.373      4.663
REMARK  7 active torsions:
REMARK  status: ('A' for Active; 'I' for Inactive)
REMARK    1  A    between atoms: C_2  and  C_3 
REMARK    2  A    between atoms: C_3  and  O_6 
REMARK    3  A    between atoms: C_3  and  C_4 
REMARK    4  A    between atoms: C_7  and  O_6 
REMARK    5  A    between atoms: C_9  and  C_10 
REMARK    6  A    between atoms: N_15  and  C_14 
REMARK    7  A    between atoms: N_20  and  C_19 
REMARK       I    between atoms: C_22  and  N_20 
ROOT
ATOM      1  C   LIG d   1      -3.424  90.126 117.557  0.00  0.00     0.161 C 
ATOM      2  C   LIG d   1      -4.322  90.056 116.479  0.00  0.00     0.016 C 
ATOM      3  C   LIG d   1      -5.645  90.552 116.535  0.00  0.00     0.038 C 
ATOM      4  C   LIG d   1      -6.114  91.291 117.631  0.00  0.00     0.028 C 
ATOM      5  C   LIG d   1      -5.409  90.948 118.939  0.00  0.00    -0.047 C 
ATOM      6  C   LIG d   1      -3.881  91.027 118.722  0.00  0.00     0.091 C 
ENDROOT
BRANCH   1   7
ATOM      7  O   LIG d   1      -2.125  90.536 117.085  0.00  0.00    -0.368 OA
BRANCH   7   8
ATOM      8  C   LIG d   1      -0.997  89.774 117.581  0.00  0.00     0.119 C 
BRANCH   8   9
ATOM      9  C   LIG d   1       0.142  89.910 116.551  0.00  0.00     0.028 C 
ATOM     10  C   LIG d   1       1.170  90.982 116.952  0.00  0.00     0.006 C 
ENDBRANCH   8   9
BRANCH   8  11
ATOM     11  C   LIG d   1      -1.317  88.277 117.636  0.00  0.00     0.028 C 
ATOM     12  C   LIG d   1      -0.403  87.439 116.729  0.00  0.00     0.006 C 
ENDBRANCH   8  11
ENDBRANCH   7   8
ENDBRANCH   1   7
BRANCH   6  13
ATOM     13  N   LIG d   1      -3.115  90.624 119.930  0.00  0.00    -0.311 N 
ATOM     14  C   LIG d   1      -2.313  91.450 120.600  0.00  0.00     0.210 C 
ATOM     15  C   LIG d   1      -1.602  90.826 121.805  0.00  0.00     0.109 C 
ATOM     16  O   LIG d   1      -2.149  92.649 120.330  0.00  0.00    -0.276 OA
ATOM     17  H   LIG d   1      -3.214  89.676 120.238  0.00  0.00     0.149 HD
ENDBRANCH   6  13
BRANCH   5  18
ATOM     18  N   LIG d   1      -5.897  91.885 119.968  0.00  0.00     0.381 N 
ATOM     19  H   LIG d   1      -5.242  91.931 120.723  0.00  0.00    -0.090 HD
ATOM     20  H   LIG d   1      -6.771  91.546 120.329  0.00  0.00    -0.090 HD
ATOM     21  H   LIG d   1      -6.021  92.791 119.572  0.00  0.00    -0.090 HD
ENDBRANCH   5  18
BRANCH   3  22
ATOM     22  C   LIG d   1      -6.527  90.275 115.502  0.00  0.00     0.382 C 
ATOM     23  O   LIG d   1      -7.736  90.597 115.606  0.00  0.00    -0.241 OA
ATOM     24  O   LIG d   1      -6.140  89.667 114.486  0.00  0.00    -0.241 OA
ENDBRANCH   3  22
TORSDOF 7
ENDMDL
MODEL 4
REMARK VINA RESULT:      -4.7      2.953      6.394
REMARK  7 active torsions:
REMARK  status: ('A' for Active; 'I' for Inactive)
REMARK    1  A    between atoms: C_2  and  C_3 
REMARK    2  A    between atoms: C_3  and  O_6 
REMARK    3  A    between atoms: C_3  and  C_4 
REMARK    4  A    between atoms: C_7  and  O_6 
REMARK    5  A    between atoms: C_9  and  C_10 
REMARK    6  A    between atoms: N_15  and  C_14 
REMARK    7  A    between atoms: N_20  and  C_19 
REMARK       I    between atoms: C_22  and  N_20 
ROOT
ATOM      1  C   LIG d   1      -1.368  92.174 118.033  0.00  0.00     0.161 C 
ATOM      2  C   LIG d   1      -0.219  91.587 117.477  0.00  0.00     0.016 C 
ATOM      3  C   LIG d   1       1.096  91.999 117.793  0.00  0.00     0.038 C 
ATOM      4  C   LIG d   1       1.357  92.931 118.809  0.00  0.00     0.028 C 
ATOM      5  C   LIG d   1       0.212  93.912 119.040  0.00  0.00    -0.047 C 
ATOM      6  C   LIG d   1      -1.101  93.116 119.226  0.00  0.00     0.091 C 
ENDROOT
BRANCH   1   7
ATOM      7  O   LIG d   1      -2.309  91.148 118.407  0.00  0.00    -0.368 OA
BRANCH   7   8
ATOM      8  C   LIG d   1      -3.506  91.055 117.597  0.00  0.00     0.119 C 
BRANCH   8   9
ATOM      9  C   LIG d   1      -4.714  91.050 118.554  0.00  0.00     0.028 C 
ATOM     10  C   LIG d   1      -6.057  91.055 117.805  0.00  0.00     0.006 C 
ENDBRANCH   8   9
BRANCH   8  11
ATOM     11  C   LIG d   1      -3.573  89.718 116.853  0.00  0.00     0.028 C 
ATOM     12  C   LIG d   1      -2.613  88.666 117.430  0.00  0.00     0.006 C 
ENDBRANCH   8  11
ENDBRANCH   7   8
ENDBRANCH   1   7
BRANCH   6  13
ATOM     13  N   LIG d   1      -2.285  94.002 119.373  0.00  0.00    -0.311 N 
ATOM     14  C   LIG d   1      -3.110  93.955 120.417  0.00  0.00     0.210 C 
ATOM     15  C   LIG d   1      -4.280  94.942 120.361  0.00  0.00     0.109 C 
ATOM     16  O   LIG d   1      -2.967  93.211 121.399  0.00  0.00    -0.276 OA
ATOM     17  H   LIG d   1      -2.458  94.658 118.637  0.00  0.00     0.149 HD
ENDBRANCH   6  13
BRANCH   5  18
ATOM     18  N   LIG d   1       0.560  94.735 120.213  0.00  0.00     0.381 N 
ATOM     19  H   LIG d   1       0.212  94.303 121.046  0.00  0.00    -0.090 HD
ATOM     20  H   LIG d   1       0.123  95.635 120.120  0.00  0.00    -0.090 HD
ATOM     21  H   LIG d   1       1.549  94.842 120.274  0.00  0.00    -0.090 HD
ENDBRANCH   5  18
BRANCH   3  22
ATOM     22  C   LIG d   1       2.165  91.505 117.062  0.00  0.00     0.382 C 
ATOM     23  O   LIG d   1       3.218  92.180 116.957  0.00  0.00    -0.241 OA
ATOM     24  O   LIG d   1       2.075  90.414 116.469  0.00  0.00    -0.241 OA
ENDBRANCH   3  22
TORSDOF 7
ENDMDL
MODEL 5
REMARK VINA RESULT:      -4.7      2.326      5.073
REMARK  7 active torsions:
REMARK  status: ('A' for Active; 'I' for Inactive)
REMARK    1  A    between atoms: C_2  and  C_3 
REMARK    2  A    between atoms: C_3  and  O_6 
REMARK    3  A    between atoms: C_3  and  C_4 
REMARK    4  A    between atoms: C_7  and  O_6 
REMARK    5  A    between atoms: C_9  and  C_10 
REMARK    6  A    between atoms: N_15  and  C_14 
REMARK    7  A    between atoms: N_20  and  C_19 
REMARK       I    between atoms: C_22  and  N_20 
ROOT
ATOM      1  C   LIG d   1      -3.123  89.970 118.399  0.00  0.00     0.161 C 
ATOM      2  C   LIG d   1      -3.469  90.845 119.442  0.00  0.00     0.016 C 
ATOM      3  C   LIG d   1      -2.782  92.052 119.705  0.00  0.00     0.038 C 
ATOM      4  C   LIG d   1      -1.790  92.544 118.843  0.00  0.00     0.028 C 
ATOM      5  C   LIG d   1      -1.067  91.450 118.065  0.00  0.00    -0.047 C 
ATOM      6  C   LIG d   1      -2.116  90.544 117.381  0.00  0.00     0.091 C 
ENDROOT
BRANCH   1   7
ATOM      7  O   LIG d   1      -4.314  89.519 117.725  0.00  0.00    -0.368 OA
BRANCH   7   8
ATOM      8  C   LIG d   1      -4.978  90.493 116.882  0.00  0.00     0.119 C 
BRANCH   8   9
ATOM      9  C   LIG d   1      -6.422  90.645 117.399  0.00  0.00     0.028 C 
ATOM     10  C   LIG d   1      -6.594  91.875 118.305  0.00  0.00     0.006 C 
ENDBRANCH   8   9
BRANCH   8  11
ATOM     11  C   LIG d   1      -5.114  89.985 115.443  0.00  0.00     0.028 C 
ATOM     12  C   LIG d   1      -6.177  90.749 114.639  0.00  0.00     0.006 C 
ENDBRANCH   8  11
ENDBRANCH   7   8
ENDBRANCH   1   7
BRANCH   6  13
ATOM     13  N   LIG d   1      -1.495  89.398 116.667  0.00  0.00    -0.311 N 
ATOM     14  C   LIG d   1      -0.774  88.458 117.276  0.00  0.00     0.210 C 
ATOM     15  C   LIG d   1      -0.208  87.376 116.352  0.00  0.00     0.109 C 
ATOM     16  O   LIG d   1      -0.576  88.401 118.499  0.00  0.00    -0.276 OA
ATOM     17  H   LIG d   1      -1.631  89.350 115.676  0.00  0.00     0.149 HD
ENDBRANCH   6  13
BRANCH   5  18
ATOM     18  N   LIG d   1      -0.159  92.110 117.108  0.00  0.00     0.381 N 
ATOM     19  H   LIG d   1      -0.329  91.762 116.185  0.00  0.00    -0.090 HD
ATOM     20  H   LIG d   1       0.790  91.893 117.357  0.00  0.00    -0.090 HD
ATOM     21  H   LIG d   1      -0.299  93.096 117.129  0.00  0.00    -0.090 HD
ENDBRANCH   5  18
BRANCH   3  22
ATOM     22  C   LIG d   1      -3.058  92.762 120.864  0.00  0.00     0.382 C 
ATOM     23  O   LIG d   1      -2.119  93.158 121.595  0.00  0.00    -0.241 OA
ATOM     24  O   LIG d   1      -4.236  92.972 121.211  0.00  0.00    -0.241 OA
ENDBRANCH   3  22
TORSDOF 7
ENDMDL
MODEL 6
REMARK VINA RESULT:      -4.6      1.994      4.708
REMARK  7 active torsions:
REMARK  status: ('A' for Active; 'I' for Inactive)
REMARK    1  A    between atoms: C_2  and  C_3 
REMARK    2  A    between atoms: C_3  and  O_6 
REMARK    3  A    between atoms: C_3  and  C_4 
REMARK    4  A    between atoms: C_7  and  O_6 
REMARK    5  A    between atoms: C_9  and  C_10 
REMARK    6  A    between atoms: N_15  and  C_14 
REMARK    7  A    between atoms: N_20  and  C_19 
REMARK       I    between atoms: C_22  and  N_20 
ROOT
ATOM      1  C   LIG d   1      -4.450  90.688 119.540  0.00  0.00     0.161 C 
ATOM      2  C   LIG d   1      -5.249  91.731 120.037  0.00  0.00     0.016 C 
ATOM      3  C   LIG d   1      -4.740  93.003 120.388  0.00  0.00     0.038 C 
ATOM      4  C   LIG d   1      -3.413  93.369 120.120  0.00  0.00     0.028 C 
ATOM      5  C   LIG d   1      -2.452  92.185 120.086  0.00  0.00    -0.047 C 
ATOM      6  C   LIG d   1      -3.020  91.106 119.137  0.00  0.00     0.091 C 
ENDROOT
BRANCH   1   7
ATOM      7  O   LIG d   1      -5.116  90.048 118.434  0.00  0.00    -0.368 OA
BRANCH   7   8
ATOM      8  C   LIG d   1      -5.682  90.930 117.433  0.00  0.00     0.119 C 
BRANCH   8   9
ATOM      9  C   LIG d   1      -7.168  90.554 117.273  0.00  0.00     0.028 C 
ATOM     10  C   LIG d   1      -7.629  90.598 115.806  0.00  0.00     0.006 C 
ENDBRANCH   8   9
BRANCH   8  11
ATOM     11  C   LIG d   1      -5.052  90.690 116.058  0.00  0.00     0.028 C 
ATOM     12  C   LIG d   1      -4.246  89.383 115.992  0.00  0.00     0.006 C 
ENDBRANCH   8  11
ENDBRANCH   7   8
ENDBRANCH   1   7
BRANCH   6  13
ATOM     13  N   LIG d   1      -2.184  89.877 119.110  0.00  0.00    -0.311 N 
ATOM     14  C   LIG d   1      -1.245  89.649 118.193  0.00  0.00     0.210 C 
ATOM     15  C   LIG d   1      -0.513  88.311 118.337  0.00  0.00     0.109 C 
ATOM     16  O   LIG d   1      -0.928  90.441 117.294  0.00  0.00    -0.276 OA
ATOM     17  H   LIG d   1      -2.353  89.195 119.823  0.00  0.00     0.149 HD
ENDBRANCH   6  13
BRANCH   5  18
ATOM     18  N   LIG d   1      -1.134  92.693 119.662  0.00  0.00     0.381 N 
ATOM     19  H   LIG d   1      -1.229  93.217 118.815  0.00  0.00    -0.090 HD
ATOM     20  H   LIG d   1      -0.527  91.912 119.483  0.00  0.00    -0.090 HD
ATOM     21  H   LIG d   1      -0.744  93.269 120.375  0.00  0.00    -0.090 HD
ENDBRANCH   5  18
BRANCH   3  22
ATOM     22  C   LIG d   1      -5.553  93.910 121.050  0.00  0.00     0.382 C 
ATOM     23  O   LIG d   1      -6.787  93.700 121.135  0.00  0.00    -0.241 OA
ATOM     24  O   LIG d   1      -5.075  94.957 121.525  0.00  0.00    -0.241 OA
ENDBRANCH   3  22
TORSDOF 7
ENDMDL
MODEL 7
REMARK VINA RESULT:      -4.5      3.727      6.097
REMARK  7 active torsions:
REMARK  status: ('A' for Active; 'I' for Inactive)
REMARK    1  A    between atoms: C_2  and  C_3 
REMARK    2  A    between atoms: C_3  and  O_6 
REMARK    3  A    between atoms: C_3  and  C_4 
REMARK    4  A    between atoms: C_7  and  O_6 
REMARK    5  A    between atoms: C_9  and  C_10 
REMARK    6  A    between atoms: N_15  and  C_14 
REMARK    7  A    between atoms: N_20  and  C_19 
REMARK       I    between atoms: C_22  and  N_20 
ROOT
ATOM      1  C   LIG d   1      -1.488  88.879 117.564  0.00  0.00     0.161 C 
ATOM      2  C   LIG d   1      -2.872  88.818 117.328  0.00  0.00     0.016 C 
ATOM      3  C   LIG d   1      -3.679  89.963 117.138  0.00  0.00     0.038 C 
ATOM      4  C   LIG d   1      -3.128  91.248 117.019  0.00  0.00     0.028 C 
ATOM      5  C   LIG d   1      -1.800  91.408 117.753  0.00  0.00    -0.047 C 
ATOM      6  C   LIG d   1      -0.851  90.264 117.327  0.00  0.00     0.091 C 
ENDROOT
BRANCH   1   7
ATOM      7  O   LIG d   1      -0.814  87.877 116.777  0.00  0.00    -0.368 OA
BRANCH   7   8
ATOM      8  C   LIG d   1      -0.520  86.628 117.451  0.00  0.00     0.119 C 
BRANCH   8   9
ATOM      9  C   LIG d   1       0.984  86.628 117.789  0.00  0.00     0.028 C 
ATOM     10  C   LIG d   1       1.248  86.846 119.289  0.00  0.00     0.006 C 
ENDBRANCH   8   9
BRANCH   8  11
ATOM     11  C   LIG d   1      -0.726  85.430 116.520  0.00  0.00     0.028 C 
ATOM     12  C   LIG d   1      -2.010  85.540 115.682  0.00  0.00     0.006 C 
ENDBRANCH   8  11
ENDBRANCH   7   8
ENDBRANCH   1   7
BRANCH   6  13
ATOM     13  N   LIG d   1       0.440  90.297 118.062  0.00  0.00    -0.311 N 
ATOM     14  C   LIG d   1       1.628  90.267 117.459  0.00  0.00     0.210 C 
ATOM     15  C   LIG d   1       2.833  90.289 118.404  0.00  0.00     0.109 C 
ATOM     16  O   LIG d   1       1.797  90.257 116.230  0.00  0.00    -0.276 OA
ATOM     17  H   LIG d   1       0.396  90.337 119.061  0.00  0.00     0.149 HD
ENDBRANCH   6  13
BRANCH   5  18
ATOM     18  N   LIG d   1      -1.272  92.747 117.432  0.00  0.00     0.381 N 
ATOM     19  H   LIG d   1      -2.014  93.334 117.106  0.00  0.00    -0.090 HD
ATOM     20  H   LIG d   1      -0.592  92.661 116.697  0.00  0.00    -0.090 HD
ATOM     21  H   LIG d   1      -0.850  93.149 118.239  0.00  0.00    -0.090 HD
ENDBRANCH   5  18
BRANCH   3  22
ATOM     22  C   LIG d   1      -5.059  89.833 117.104  0.00  0.00     0.382 C 
ATOM     23  O   LIG d   1      -5.612  89.278 116.124  0.00  0.00    -0.241 OA
ATOM     24  O   LIG d   1      -5.761  90.303 118.019  0.00  0.00    -0.241 OA
ENDBRANCH   3  22
TORSDOF 7
ENDMDL
MODEL 8
REMARK VINA RESULT:      -4.5      2.865      4.912
REMARK  7 active torsions:
REMARK  status: ('A' for Active; 'I' for Inactive)
REMARK    1  A    between atoms: C_2  and  C_3 
REMARK    2  A    between atoms: C_3  and  O_6 
REMARK    3  A    between atoms: C_3  and  C_4 
REMARK    4  A    between atoms: C_7  and  O_6 
REMARK    5  A    between atoms: C_9  and  C_10 
REMARK    6  A    between atoms: N_15  and  C_14 
REMARK    7  A    between atoms: N_20  and  C_19 
REMARK       I    between atoms: C_22  and  N_20 
ROOT
ATOM      1  C   LIG d   1      -2.926  89.748 117.469  0.00  0.00     0.161 C 
ATOM      2  C   LIG d   1      -2.667  88.480 116.923  0.00  0.00     0.016 C 
ATOM      3  C   LIG d   1      -1.497  87.736 117.203  0.00  0.00     0.038 C 
ATOM      4  C   LIG d   1      -0.571  88.148 118.172  0.00  0.00     0.028 C 
ATOM      5  C   LIG d   1      -0.539  89.659 118.376  0.00  0.00    -0.047 C 
ATOM      6  C   LIG d   1      -1.980  90.164 118.615  0.00  0.00     0.091 C 
ENDROOT
BRANCH   1   7
ATOM      7  O   LIG d   1      -4.299  89.823 117.901  0.00  0.00    -0.368 OA
BRANCH   7   8
ATOM      8  C   LIG d   1      -5.145  90.750 117.177  0.00  0.00     0.119 C 
BRANCH   8   9
ATOM      9  C   LIG d   1      -6.207  91.274 118.164  0.00  0.00     0.028 C 
ATOM     10  C   LIG d   1      -5.582  92.004 119.365  0.00  0.00     0.006 C 
ENDBRANCH   8   9
BRANCH   8  11
ATOM     11  C   LIG d   1      -5.934  90.039 116.073  0.00  0.00     0.028 C 
ATOM     12  C   LIG d   1      -7.450  90.261 116.187  0.00  0.00     0.006 C 
ENDBRANCH   8  11
ENDBRANCH   7   8
ENDBRANCH   1   7
BRANCH   6  13
ATOM     13  N   LIG d   1      -2.049  91.644 118.740  0.00  0.00    -0.311 N 
ATOM     14  C   LIG d   1      -1.985  92.285 119.906  0.00  0.00     0.210 C 
ATOM     15  C   LIG d   1      -2.096  93.810 119.812  0.00  0.00     0.109 C 
ATOM     16  O   LIG d   1      -1.815  91.737 121.006  0.00  0.00    -0.276 OA
ATOM     17  H   LIG d   1      -2.156  92.168 117.894  0.00  0.00     0.149 HD
ENDBRANCH   6  13
BRANCH   5  18
ATOM     18  N   LIG d   1       0.366  89.938 119.507  0.00  0.00     0.381 N 
ATOM     19  H   LIG d   1       0.264  90.890 119.796  0.00  0.00    -0.090 HD
ATOM     20  H   LIG d   1       1.315  89.799 119.206  0.00  0.00    -0.090 HD
ATOM     21  H   LIG d   1       0.159  89.328 120.267  0.00  0.00    -0.090 HD
ENDBRANCH   5  18
BRANCH   3  22
ATOM     22  C   LIG d   1      -1.225  86.586 116.479  0.00  0.00     0.382 C 
ATOM     23  O   LIG d   1      -0.036  86.249 116.260  0.00  0.00    -0.241 OA
ATOM     24  O   LIG d   1      -2.152  85.904 116.004  0.00  0.00    -0.241 OA
ENDBRANCH   3  22
TORSDOF 7
ENDMDL
MODEL 9
REMARK VINA RESULT:      -4.4      1.629      2.525
REMARK  7 active torsions:
REMARK  status: ('A' for Active; 'I' for Inactive)
REMARK    1  A    between atoms: C_2  and  C_3 
REMARK    2  A    between atoms: C_3  and  O_6 
REMARK    3  A    between atoms: C_3  and  C_4 
REMARK    4  A    between atoms: C_7  and  O_6 
REMARK    5  A    between atoms: C_9  and  C_10 
REMARK    6  A    between atoms: N_15  and  C_14 
REMARK    7  A    between atoms: N_20  and  C_19 
REMARK       I    between atoms: C_22  and  N_20 
ROOT
ATOM      1  C   LIG d   1      -3.457  91.296 118.663  0.00  0.00     0.161 C 
ATOM      2  C   LIG d   1      -4.575  90.871 117.925  0.00  0.00     0.016 C 
ATOM      3  C   LIG d   1      -4.514  89.873 116.925  0.00  0.00     0.038 C 
ATOM      4  C   LIG d   1      -3.351  89.121 116.699  0.00  0.00     0.028 C 
ATOM      5  C   LIG d   1      -2.070  89.860 117.068  0.00  0.00    -0.047 C 
ATOM      6  C   LIG d   1      -2.204  90.409 118.507  0.00  0.00     0.091 C 
ENDROOT
BRANCH   1   7
ATOM      7  O   LIG d   1      -3.810  91.424 120.054  0.00  0.00    -0.368 OA
BRANCH   7   8
ATOM      8  C   LIG d   1      -4.029  92.773 120.535  0.00  0.00     0.119 C 
BRANCH   8   9
ATOM      9  C   LIG d   1      -3.114  92.984 121.756  0.00  0.00     0.028 C 
ATOM     10  C   LIG d   1      -1.824  93.742 121.399  0.00  0.00     0.006 C 
ENDBRANCH   8   9
BRANCH   8  11
ATOM     11  C   LIG d   1      -5.456  92.953 121.061  0.00  0.00     0.028 C 
ATOM     12  C   LIG d   1      -6.380  93.652 120.051  0.00  0.00     0.006 C 
ENDBRANCH   8  11
ENDBRANCH   7   8
ENDBRANCH   1   7
BRANCH   6  13
ATOM     13  N   LIG d   1      -1.027  91.218 118.917  0.00  0.00    -0.311 N 
ATOM     14  C   LIG d   1       0.002  90.720 119.601  0.00  0.00     0.210 C 
ATOM     15  C   LIG d   1       1.103  91.731 119.939  0.00  0.00     0.109 C 
ATOM     16  O   LIG d   1       0.124  89.531 119.930  0.00  0.00    -0.276 OA
ATOM     17  H   LIG d   1      -1.028  92.186 118.663  0.00  0.00     0.149 HD
ENDBRANCH   6  13
BRANCH   5  18
ATOM     18  N   LIG d   1      -0.949  88.914 116.913  0.00  0.00     0.381 N 
ATOM     19  H   LIG d   1      -1.289  87.974 116.964  0.00  0.00    -0.090 HD
ATOM     20  H   LIG d   1      -0.297  89.055 117.664  0.00  0.00    -0.090 HD
ATOM     21  H   LIG d   1      -0.496  89.063 116.038  0.00  0.00    -0.090 HD
ENDBRANCH   5  18
BRANCH   3  22
ATOM     22  C   LIG d   1      -5.614  89.647 116.112  0.00  0.00     0.382 C 
ATOM     23  O   LIG d   1      -5.471  89.585 114.867  0.00  0.00    -0.241 OA
ATOM     24  O   LIG d   1      -6.754  89.548 116.604  0.00  0.00    -0.241 OA
ENDBRANCH   3  22
TORSDOF 7
ENDMDL
