MODEL 1
REMARK VINA RESULT:      -5.7      0.000      0.000
REMARK  7 active torsions:
REMARK  status: ('A' for Active; 'I' for Inactive)
REMARK    1  A    between atoms: C_2  and  C_3 
REMARK    2  A    between atoms: C_3  and  O_6 
REMARK    3  A    between atoms: C_3  and  C_4 
REMARK    4  A    between atoms: C_7  and  O_6 
REMARK    5  A    between atoms: C_9  and  C_10 
REMARK    6  A    between atoms: N_15  and  C_14 
REMARK    7  A    between atoms: N_20  and  C_19 
REMARK       I    between atoms: C_22  and  N_20 
ROOT
ATOM      1  C   LIG d   1       3.051  83.199 111.718  0.00  0.00     0.161 C 
ATOM      2  C   LIG d   1       3.404  84.548 111.888  0.00  0.00     0.016 C 
ATOM      3  C   LIG d   1       2.524  85.623 111.623  0.00  0.00     0.038 C 
ATOM      4  C   LIG d   1       1.172  85.414 111.311  0.00  0.00     0.028 C 
ATOM      5  C   LIG d   1       0.906  84.072 110.637  0.00  0.00    -0.047 C 
ATOM      6  C   LIG d   1       1.546  82.949 111.485  0.00  0.00     0.091 C 
ENDROOT
BRANCH   1   7
ATOM      7  O   LIG d   1       3.519  82.426 112.840  0.00  0.00    -0.368 OA
BRANCH   7   8
ATOM      8  C   LIG d   1       2.583  82.256 113.932  0.00  0.00     0.119 C 
BRANCH   8   9
ATOM      9  C   LIG d   1       3.126  83.050 115.136  0.00  0.00     0.028 C 
ATOM     10  C   LIG d   1       2.289  84.305 115.437  0.00  0.00     0.006 C 
ENDBRANCH   8   9
BRANCH   8  11
ATOM     11  C   LIG d   1       2.530  80.798 114.399  0.00  0.00     0.028 C 
ATOM     12  C   LIG d   1       3.022  80.616 115.843  0.00  0.00     0.006 C 
ENDBRANCH   8  11
ENDBRANCH   7   8
ENDBRANCH   1   7
BRANCH   6  13
ATOM     13  N   LIG d   1       1.405  81.611 110.854  0.00  0.00    -0.311 N 
ATOM     14  C   LIG d   1       0.386  80.789 111.099  0.00  0.00     0.210 C 
ATOM     15  C   LIG d   1       0.444  79.449 110.358  0.00  0.00     0.109 C 
ATOM     16  O   LIG d   1      -0.576  81.054 111.834  0.00  0.00    -0.276 OA
ATOM     17  H   LIG d   1       2.125  81.328 110.219  0.00  0.00     0.149 HD
ENDBRANCH   6  13
BRANCH   5  18
ATOM     18  N   LIG d   1      -0.555  83.927 110.494  0.00  0.00     0.381 N 
ATOM     19  H   LIG d   1      -0.921  83.404 111.264  0.00  0.00    -0.090 HD
ATOM     20  H   LIG d   1      -0.750  83.422 109.648  0.00  0.00    -0.090 HD
ATOM     21  H   LIG d   1      -0.985  84.825 110.460  0.00  0.00    -0.090 HD
ENDBRANCH   5  18
BRANCH   3  22
ATOM     22  C   LIG d   1       3.005  86.923 111.629  0.00  0.00     0.382 C 
ATOM     23  O   LIG d   1       2.213  87.885 111.486  0.00  0.00    -0.241 OA
ATOM     24  O   LIG d   1       4.227  87.144 111.731  0.00  0.00    -0.241 OA
ENDBRANCH   3  22
TORSDOF 7
ENDMDL
MODEL 2
REMARK VINA RESULT:      -5.4      4.227      6.363
REMARK  7 active torsions:
REMARK  status: ('A' for Active; 'I' for Inactive)
REMARK    1  A    between atoms: C_2  and  C_3 
REMARK    2  A    between atoms: C_3  and  O_6 
REMARK    3  A    between atoms: C_3  and  C_4 
REMARK    4  A    between atoms: C_7  and  O_6 
REMARK    5  A    between atoms: C_9  and  C_10 
REMARK    6  A    between atoms: N_15  and  C_14 
REMARK    7  A    between atoms: N_20  and  C_19 
REMARK       I    between atoms: C_22  and  N_20 
ROOT
ATOM      1  C   LIG d   1       3.394  86.983 115.184  0.00  0.00     0.161 C 
ATOM      2  C   LIG d   1       2.627  86.784 114.024  0.00  0.00     0.016 C 
ATOM      3  C   LIG d   1       3.063  87.151 112.730  0.00  0.00     0.038 C 
ATOM      4  C   LIG d   1       4.368  87.606 112.489  0.00  0.00     0.028 C 
ATOM      5  C   LIG d   1       5.001  88.296 113.693  0.00  0.00    -0.047 C 
ATOM      6  C   LIG d   1       4.864  87.376 114.928  0.00  0.00     0.091 C 
ENDROOT
BRANCH   1   7
ATOM      7  O   LIG d   1       3.327  85.812 116.021  0.00  0.00    -0.368 OA
BRANCH   7   8
ATOM      8  C   LIG d   1       3.997  84.630 115.517  0.00  0.00     0.119 C 
BRANCH   8   9
ATOM      9  C   LIG d   1       2.964  83.487 115.494  0.00  0.00     0.028 C 
ATOM     10  C   LIG d   1       2.562  83.087 114.065  0.00  0.00     0.006 C 
ENDBRANCH   8   9
BRANCH   8  11
ATOM     11  C   LIG d   1       5.097  84.162 116.474  0.00  0.00     0.028 C 
ATOM     12  C   LIG d   1       4.861  82.739 117.004  0.00  0.00     0.006 C 
ENDBRANCH   8  11
ENDBRANCH   7   8
ENDBRANCH   1   7
BRANCH   6  13
ATOM     13  N   LIG d   1       5.382  88.011 116.167  0.00  0.00    -0.311 N 
ATOM     14  C   LIG d   1       6.628  87.846 116.610  0.00  0.00     0.210 C 
ATOM     15  C   LIG d   1       6.951  88.574 117.919  0.00  0.00     0.109 C 
ATOM     16  O   LIG d   1       7.505  87.193 116.025  0.00  0.00    -0.276 OA
ATOM     17  H   LIG d   1       4.746  88.584 116.687  0.00  0.00     0.149 HD
ENDBRANCH   6  13
BRANCH   5  18
ATOM     18  N   LIG d   1       6.403  88.596 113.348  0.00  0.00     0.381 N 
ATOM     19  H   LIG d   1       6.804  89.191 114.046  0.00  0.00    -0.090 HD
ATOM     20  H   LIG d   1       6.425  89.082 112.469  0.00  0.00    -0.090 HD
ATOM     21  H   LIG d   1       6.926  87.751 113.282  0.00  0.00    -0.090 HD
ENDBRANCH   5  18
BRANCH   3  22
ATOM     22  C   LIG d   1       2.176  87.100 111.666  0.00  0.00     0.382 C 
ATOM     23  O   LIG d   1       2.441  86.397 110.661  0.00  0.00    -0.241 OA
ATOM     24  O   LIG d   1       1.134  87.783 111.679  0.00  0.00    -0.241 OA
ENDBRANCH   3  22
TORSDOF 7
ENDMDL
MODEL 3
REMARK VINA RESULT:      -5.3      2.513      4.331
REMARK  7 active torsions:
REMARK  status: ('A' for Active; 'I' for Inactive)
REMARK    1  A    between atoms: C_2  and  C_3 
REMARK    2  A    between atoms: C_3  and  O_6 
REMARK    3  A    between atoms: C_3  and  C_4 
REMARK    4  A    between atoms: C_7  and  O_6 
REMARK    5  A    between atoms: C_9  and  C_10 
REMARK    6  A    between atoms: N_15  and  C_14 
REMARK    7  A    between atoms: N_20  and  C_19 
REMARK       I    between atoms: C_22  and  N_20 
ROOT
ATOM      1  C   LIG d   1       3.013  83.873 112.999  0.00  0.00     0.161 C 
ATOM      2  C   LIG d   1       3.248  85.123 112.403  0.00  0.00     0.016 C 
ATOM      3  C   LIG d   1       3.429  86.315 113.141  0.00  0.00     0.038 C 
ATOM      4  C   LIG d   1       3.539  86.312 114.540  0.00  0.00     0.028 C 
ATOM      5  C   LIG d   1       2.805  85.150 115.202  0.00  0.00    -0.047 C 
ATOM      6  C   LIG d   1       3.239  83.831 114.525  0.00  0.00     0.091 C 
ENDROOT
BRANCH   1   7
ATOM      7  O   LIG d   1       3.808  82.863 112.346  0.00  0.00    -0.368 OA
BRANCH   7   8
ATOM      8  C   LIG d   1       3.393  82.491 111.009  0.00  0.00     0.119 C 
BRANCH   8   9
ATOM      9  C   LIG d   1       2.338  81.376 111.146  0.00  0.00     0.028 C 
ATOM     10  C   LIG d   1       1.007  81.741 110.467  0.00  0.00     0.006 C 
ENDBRANCH   8   9
BRANCH   8  11
ATOM     11  C   LIG d   1       4.547  81.863 110.222  0.00  0.00     0.028 C 
ATOM     12  C   LIG d   1       4.397  80.342 110.056  0.00  0.00     0.006 C 
ENDBRANCH   8  11
ENDBRANCH   7   8
ENDBRANCH   1   7
BRANCH   6  13
ATOM     13  N   LIG d   1       2.506  82.653 115.056  0.00  0.00    -0.311 N 
ATOM     14  C   LIG d   1       3.090  81.676 115.749  0.00  0.00     0.210 C 
ATOM     15  C   LIG d   1       2.155  80.545 116.186  0.00  0.00     0.109 C 
ATOM     16  O   LIG d   1       4.288  81.656 116.070  0.00  0.00    -0.276 OA
ATOM     17  H   LIG d   1       1.523  82.604 114.869  0.00  0.00     0.149 HD
ENDBRANCH   6  13
BRANCH   5  18
ATOM     18  N   LIG d   1       3.116  85.190 116.643  0.00  0.00     0.381 N 
ATOM     19  H   LIG d   1       2.284  85.382 117.164  0.00  0.00    -0.090 HD
ATOM     20  H   LIG d   1       3.772  85.932 116.814  0.00  0.00    -0.090 HD
ATOM     21  H   LIG d   1       3.505  84.320 116.933  0.00  0.00    -0.090 HD
ENDBRANCH   5  18
BRANCH   3  22
ATOM     22  C   LIG d   1       3.463  87.534 112.481  0.00  0.00     0.382 C 
ATOM     23  O   LIG d   1       4.328  88.389 112.787  0.00  0.00    -0.241 OA
ATOM     24  O   LIG d   1       2.612  87.806 111.614  0.00  0.00    -0.241 OA
ENDBRANCH   3  22
TORSDOF 7
ENDMDL
MODEL 4
REMARK VINA RESULT:      -5.3     26.133     27.861
REMARK  7 active torsions:
REMARK  status: ('A' for Active; 'I' for Inactive)
REMARK    1  A    between atoms: C_2  and  C_3 
REMARK    2  A    between atoms: C_3  and  O_6 
REMARK    3  A    between atoms: C_3  and  C_4 
REMARK    4  A    between atoms: C_7  and  O_6 
REMARK    5  A    between atoms: C_9  and  C_10 
REMARK    6  A    between atoms: N_15  and  C_14 
REMARK    7  A    between atoms: N_20  and  C_19 
REMARK       I    between atoms: C_22  and  N_20 
ROOT
ATOM      1  C   LIG d   1     -25.769  85.159 113.009  0.00  0.00     0.161 C 
ATOM      2  C   LIG d   1     -24.742  86.113 113.109  0.00  0.00     0.016 C 
ATOM      3  C   LIG d   1     -23.415  85.793 113.474  0.00  0.00     0.038 C 
ATOM      4  C   LIG d   1     -22.985  84.465 113.619  0.00  0.00     0.028 C 
ATOM      5  C   LIG d   1     -24.102  83.508 114.022  0.00  0.00    -0.047 C 
ATOM      6  C   LIG d   1     -25.294  83.692 113.055  0.00  0.00     0.091 C 
ENDROOT
BRANCH   1   7
ATOM      7  O   LIG d   1     -26.544  85.398 111.818  0.00  0.00    -0.368 OA
BRANCH   7   8
ATOM      8  C   LIG d   1     -26.972  86.765 111.599  0.00  0.00     0.119 C 
BRANCH   8   9
ATOM      9  C   LIG d   1     -28.512  86.771 111.585  0.00  0.00     0.028 C 
ATOM     10  C   LIG d   1     -29.092  85.996 110.390  0.00  0.00     0.006 C 
ENDBRANCH   8   9
BRANCH   8  11
ATOM     11  C   LIG d   1     -26.551  87.265 110.214  0.00  0.00     0.028 C 
ATOM     12  C   LIG d   1     -26.375  88.791 110.160  0.00  0.00     0.006 C 
ENDBRANCH   8  11
ENDBRANCH   7   8
ENDBRANCH   1   7
BRANCH   6  13
ATOM     13  N   LIG d   1     -26.462  82.852 113.429  0.00  0.00    -0.311 N 
ATOM     14  C   LIG d   1     -27.014  81.957 112.611  0.00  0.00     0.210 C 
ATOM     15  C   LIG d   1     -28.222  81.213 113.188  0.00  0.00     0.109 C 
ATOM     16  O   LIG d   1     -26.597  81.686 111.475  0.00  0.00    -0.276 OA
ATOM     17  H   LIG d   1     -26.844  82.985 114.345  0.00  0.00     0.149 HD
ENDBRANCH   6  13
BRANCH   5  18
ATOM     18  N   LIG d   1     -23.547  82.142 114.002  0.00  0.00     0.381 N 
ATOM     19  H   LIG d   1     -23.767  81.699 113.132  0.00  0.00    -0.090 HD
ATOM     20  H   LIG d   1     -23.968  81.609 114.743  0.00  0.00    -0.090 HD
ATOM     21  H   LIG d   1     -22.559  82.173 114.126  0.00  0.00    -0.090 HD
ENDBRANCH   5  18
BRANCH   3  22
ATOM     22  C   LIG d   1     -22.510  86.810 113.738  0.00  0.00     0.382 C 
ATOM     23  O   LIG d   1     -22.825  87.743 114.514  0.00  0.00    -0.241 OA
ATOM     24  O   LIG d   1     -21.399  86.829 113.174  0.00  0.00    -0.241 OA
ENDBRANCH   3  22
TORSDOF 7
ENDMDL
MODEL 5
REMARK VINA RESULT:      -5.2      1.296      2.037
REMARK  7 active torsions:
REMARK  status: ('A' for Active; 'I' for Inactive)
REMARK    1  A    between atoms: C_2  and  C_3 
REMARK    2  A    between atoms: C_3  and  O_6 
REMARK    3  A    between atoms: C_3  and  C_4 
REMARK    4  A    between atoms: C_7  and  O_6 
REMARK    5  A    between atoms: C_9  and  C_10 
REMARK    6  A    between atoms: N_15  and  C_14 
REMARK    7  A    between atoms: N_20  and  C_19 
REMARK       I    between atoms: C_22  and  N_20 
ROOT
ATOM      1  C   LIG d   1       2.740  83.311 112.763  0.00  0.00     0.161 C 
ATOM      2  C   LIG d   1       3.162  84.644 112.621  0.00  0.00     0.016 C 
ATOM      3  C   LIG d   1       2.431  85.619 111.903  0.00  0.00     0.038 C 
ATOM      4  C   LIG d   1       1.146  85.363 111.402  0.00  0.00     0.028 C 
ATOM      5  C   LIG d   1       0.902  83.891 111.085  0.00  0.00    -0.047 C 
ATOM      6  C   LIG d   1       1.288  83.042 112.318  0.00  0.00     0.091 C 
ENDROOT
BRANCH   1   7
ATOM      7  O   LIG d   1       2.936  82.879 114.124  0.00  0.00    -0.368 OA
BRANCH   7   8
ATOM      8  C   LIG d   1       3.295  83.911 115.075  0.00  0.00     0.119 C 
BRANCH   8   9
ATOM      9  C   LIG d   1       4.276  83.288 116.087  0.00  0.00     0.028 C 
ATOM     10  C   LIG d   1       5.337  84.290 116.570  0.00  0.00     0.006 C 
ENDBRANCH   8   9
BRANCH   8  11
ATOM     11  C   LIG d   1       2.084  84.352 115.903  0.00  0.00     0.028 C 
ATOM     12  C   LIG d   1       1.835  85.867 115.834  0.00  0.00     0.006 C 
ENDBRANCH   8  11
ENDBRANCH   7   8
ENDBRANCH   1   7
BRANCH   6  13
ATOM     13  N   LIG d   1       1.159  81.583 112.063  0.00  0.00    -0.311 N 
ATOM     14  C   LIG d   1       0.048  80.891 112.311  0.00  0.00     0.210 C 
ATOM     15  C   LIG d   1       0.135  79.394 111.996  0.00  0.00     0.109 C 
ATOM     16  O   LIG d   1      -1.011  81.380 112.732  0.00  0.00    -0.276 OA
ATOM     17  H   LIG d   1       1.961  81.112 111.693  0.00  0.00     0.149 HD
ENDBRANCH   6  13
BRANCH   5  18
ATOM     18  N   LIG d   1      -0.515  83.747 110.704  0.00  0.00     0.381 N 
ATOM     19  H   LIG d   1      -1.024  84.565 110.974  0.00  0.00    -0.090 HD
ATOM     20  H   LIG d   1      -0.904  82.959 111.191  0.00  0.00    -0.090 HD
ATOM     21  H   LIG d   1      -0.592  83.609 109.720  0.00  0.00    -0.090 HD
ENDBRANCH   5  18
BRANCH   3  22
ATOM     22  C   LIG d   1       3.004  86.855 111.646  0.00  0.00     0.382 C 
ATOM     23  O   LIG d   1       4.253  86.970 111.596  0.00  0.00    -0.241 OA
ATOM     24  O   LIG d   1       2.289  87.866 111.507  0.00  0.00    -0.241 OA
ENDBRANCH   3  22
TORSDOF 7
ENDMDL
MODEL 6
REMARK VINA RESULT:      -5.2      2.596      4.484
REMARK  7 active torsions:
REMARK  status: ('A' for Active; 'I' for Inactive)
REMARK    1  A    between atoms: C_2  and  C_3 
REMARK    2  A    between atoms: C_3  and  O_6 
REMARK    3  A    between atoms: C_3  and  C_4 
REMARK    4  A    between atoms: C_7  and  O_6 
REMARK    5  A    between atoms: C_9  and  C_10 
REMARK    6  A    between atoms: N_15  and  C_14 
REMARK    7  A    between atoms: N_20  and  C_19 
REMARK       I    between atoms: C_22  and  N_20 
ROOT
ATOM      1  C   LIG d   1       1.470  84.756 113.505  0.00  0.00     0.161 C 
ATOM      2  C   LIG d   1       1.843  86.086 113.756  0.00  0.00     0.016 C 
ATOM      3  C   LIG d   1       2.887  86.448 114.638  0.00  0.00     0.038 C 
ATOM      4  C   LIG d   1       3.734  85.491 115.217  0.00  0.00     0.028 C 
ATOM      5  C   LIG d   1       3.077  84.126 115.389  0.00  0.00    -0.047 C 
ATOM      6  C   LIG d   1       2.455  83.695 114.041  0.00  0.00     0.091 C 
ENDROOT
BRANCH   1   7
ATOM      7  O   LIG d   1       1.252  84.568 112.092  0.00  0.00    -0.368 OA
BRANCH   7   8
ATOM      8  C   LIG d   1       1.702  85.642 111.230  0.00  0.00     0.119 C 
BRANCH   8   9
ATOM      9  C   LIG d   1       0.651  85.812 110.116  0.00  0.00     0.028 C 
ATOM     10  C   LIG d   1      -0.747  86.132 110.672  0.00  0.00     0.006 C 
ENDBRANCH   8   9
BRANCH   8  11
ATOM     11  C   LIG d   1       3.001  85.270 110.508  0.00  0.00     0.028 C 
ATOM     12  C   LIG d   1       3.197  83.751 110.379  0.00  0.00     0.006 C 
ENDBRANCH   8  11
ENDBRANCH   7   8
ENDBRANCH   1   7
BRANCH   6  13
ATOM     13  N   LIG d   1       1.718  82.408 114.142  0.00  0.00    -0.311 N 
ATOM     14  C   LIG d   1       2.115  81.288 113.540  0.00  0.00     0.210 C 
ATOM     15  C   LIG d   1       1.200  80.079 113.758  0.00  0.00     0.109 C 
ATOM     16  O   LIG d   1       3.154  81.173 112.874  0.00  0.00    -0.276 OA
ATOM     17  H   LIG d   1       0.880  82.404 114.689  0.00  0.00     0.149 HD
ENDBRANCH   6  13
BRANCH   5  18
ATOM     18  N   LIG d   1       4.111  83.191 115.873  0.00  0.00     0.381 N 
ATOM     19  H   LIG d   1       4.240  83.310 116.858  0.00  0.00    -0.090 HD
ATOM     20  H   LIG d   1       4.979  83.401 115.413  0.00  0.00    -0.090 HD
ATOM     21  H   LIG d   1       3.841  82.253 115.677  0.00  0.00    -0.090 HD
ENDBRANCH   5  18
BRANCH   3  22
ATOM     22  C   LIG d   1       3.067  87.780 114.980  0.00  0.00     0.382 C 
ATOM     23  O   LIG d   1       2.335  88.308 115.852  0.00  0.00    -0.241 OA
ATOM     24  O   LIG d   1       3.923  88.472 114.398  0.00  0.00    -0.241 OA
ENDBRANCH   3  22
TORSDOF 7
ENDMDL
MODEL 7
REMARK VINA RESULT:      -5.1      5.549      7.517
REMARK  7 active torsions:
REMARK  status: ('A' for Active; 'I' for Inactive)
REMARK    1  A    between atoms: C_2  and  C_3 
REMARK    2  A    between atoms: C_3  and  O_6 
REMARK    3  A    between atoms: C_3  and  C_4 
REMARK    4  A    between atoms: C_7  and  O_6 
REMARK    5  A    between atoms: C_9  and  C_10 
REMARK    6  A    between atoms: N_15  and  C_14 
REMARK    7  A    between atoms: N_20  and  C_19 
REMARK       I    between atoms: C_22  and  N_20 
ROOT
ATOM      1  C   LIG d   1      -1.195  78.522 115.021  0.00  0.00     0.161 C 
ATOM      2  C   LIG d   1      -1.763  79.712 114.536  0.00  0.00     0.016 C 
ATOM      3  C   LIG d   1      -1.890  80.008 113.159  0.00  0.00     0.038 C 
ATOM      4  C   LIG d   1      -1.594  79.061 112.167  0.00  0.00     0.028 C 
ATOM      5  C   LIG d   1      -0.547  78.040 112.597  0.00  0.00    -0.047 C 
ATOM      6  C   LIG d   1      -0.968  77.431 113.954  0.00  0.00     0.091 C 
ENDROOT
BRANCH   1   7
ATOM      7  O   LIG d   1      -1.994  78.006 116.104  0.00  0.00    -0.368 OA
BRANCH   7   8
ATOM      8  C   LIG d   1      -3.430  78.112 115.943  0.00  0.00     0.119 C 
BRANCH   8   9
ATOM      9  C   LIG d   1      -4.011  78.598 117.285  0.00  0.00     0.028 C 
ATOM     10  C   LIG d   1      -4.965  79.792 117.113  0.00  0.00     0.006 C 
ENDBRANCH   8   9
BRANCH   8  11
ATOM     11  C   LIG d   1      -4.066  76.740 115.699  0.00  0.00     0.028 C 
ATOM     12  C   LIG d   1      -4.457  76.518 114.230  0.00  0.00     0.006 C 
ENDBRANCH   8  11
ENDBRANCH   7   8
ENDBRANCH   1   7
BRANCH   6  13
ATOM     13  N   LIG d   1       0.044  76.483 114.488  0.00  0.00    -0.311 N 
ATOM     14  C   LIG d   1      -0.245  75.241 114.873  0.00  0.00     0.210 C 
ATOM     15  C   LIG d   1       0.942  74.438 115.412  0.00  0.00     0.109 C 
ATOM     16  O   LIG d   1      -1.367  74.718 114.789  0.00  0.00    -0.276 OA
ATOM     17  H   LIG d   1       0.986  76.815 114.562  0.00  0.00     0.149 HD
ENDBRANCH   6  13
BRANCH   5  18
ATOM     18  N   LIG d   1      -0.436  77.036 111.522  0.00  0.00     0.381 N 
ATOM     19  H   LIG d   1      -1.218  76.413 111.559  0.00  0.00    -0.090 HD
ATOM     20  H   LIG d   1       0.402  76.499 111.664  0.00  0.00    -0.090 HD
ATOM     21  H   LIG d   1      -0.403  77.488 110.635  0.00  0.00    -0.090 HD
ENDBRANCH   5  18
BRANCH   3  22
ATOM     22  C   LIG d   1      -2.282  81.277 112.763  0.00  0.00     0.382 C 
ATOM     23  O   LIG d   1      -3.499  81.577 112.733  0.00  0.00    -0.241 OA
ATOM     24  O   LIG d   1      -1.435  82.112 112.392  0.00  0.00    -0.241 OA
ENDBRANCH   3  22
TORSDOF 7
ENDMDL
MODEL 8
REMARK VINA RESULT:      -5.0      2.843      3.901
REMARK  7 active torsions:
REMARK  status: ('A' for Active; 'I' for Inactive)
REMARK    1  A    between atoms: C_2  and  C_3 
REMARK    2  A    between atoms: C_3  and  O_6 
REMARK    3  A    between atoms: C_3  and  C_4 
REMARK    4  A    between atoms: C_7  and  O_6 
REMARK    5  A    between atoms: C_9  and  C_10 
REMARK    6  A    between atoms: N_15  and  C_14 
REMARK    7  A    between atoms: N_20  and  C_19 
REMARK       I    between atoms: C_22  and  N_20 
ROOT
ATOM      1  C   LIG d   1       2.400  85.479 114.152  0.00  0.00     0.161 C 
ATOM      2  C   LIG d   1       3.306  86.547 114.261  0.00  0.00     0.016 C 
ATOM      3  C   LIG d   1       3.637  87.400 113.182  0.00  0.00     0.038 C 
ATOM      4  C   LIG d   1       2.966  87.334 111.952  0.00  0.00     0.028 C 
ATOM      5  C   LIG d   1       2.406  85.950 111.640  0.00  0.00    -0.047 C 
ATOM      6  C   LIG d   1       1.575  85.461 112.848  0.00  0.00     0.091 C 
ENDROOT
BRANCH   1   7
ATOM      7  O   LIG d   1       1.527  85.460 115.298  0.00  0.00    -0.368 OA
BRANCH   7   8
ATOM      8  C   LIG d   1       2.122  85.854 116.559  0.00  0.00     0.119 C 
BRANCH   8   9
ATOM      9  C   LIG d   1       2.171  84.604 117.459  0.00  0.00     0.028 C 
ATOM     10  C   LIG d   1       0.896  84.439 118.304  0.00  0.00     0.006 C 
ENDBRANCH   8   9
BRANCH   8  11
ATOM     11  C   LIG d   1       1.235  86.856 117.305  0.00  0.00     0.028 C 
ATOM     12  C   LIG d   1       1.707  88.309 117.138  0.00  0.00     0.006 C 
ENDBRANCH   8  11
ENDBRANCH   7   8
ENDBRANCH   1   7
BRANCH   6  13
ATOM     13  N   LIG d   1       1.061  84.079 112.660  0.00  0.00    -0.311 N 
ATOM     14  C   LIG d   1      -0.164  83.807 112.213  0.00  0.00     0.210 C 
ATOM     15  C   LIG d   1      -0.499  82.315 112.113  0.00  0.00     0.109 C 
ATOM     16  O   LIG d   1      -0.993  84.659 111.860  0.00  0.00    -0.276 OA
ATOM     17  H   LIG d   1       1.679  83.327 112.893  0.00  0.00     0.149 HD
ENDBRANCH   6  13
BRANCH   5  18
ATOM     18  N   LIG d   1       1.616  86.058 110.400  0.00  0.00     0.381 N 
ATOM     19  H   LIG d   1       1.212  86.971 110.334  0.00  0.00    -0.090 HD
ATOM     20  H   LIG d   1       0.870  85.384 110.430  0.00  0.00    -0.090 HD
ATOM     21  H   LIG d   1       2.197  85.886 109.609  0.00  0.00    -0.090 HD
ENDBRANCH   5  18
BRANCH   3  22
ATOM     22  C   LIG d   1       4.678  88.305 113.317  0.00  0.00     0.382 C 
ATOM     23  O   LIG d   1       5.743  88.136 112.674  0.00  0.00    -0.241 OA
ATOM     24  O   LIG d   1       4.584  89.264 114.105  0.00  0.00    -0.241 OA
ENDBRANCH   3  22
TORSDOF 7
ENDMDL
MODEL 9
REMARK VINA RESULT:      -4.8      8.293     11.439
REMARK  7 active torsions:
REMARK  status: ('A' for Active; 'I' for Inactive)
REMARK    1  A    between atoms: C_2  and  C_3 
REMARK    2  A    between atoms: C_3  and  O_6 
REMARK    3  A    between atoms: C_3  and  C_4 
REMARK    4  A    between atoms: C_7  and  O_6 
REMARK    5  A    between atoms: C_9  and  C_10 
REMARK    6  A    between atoms: N_15  and  C_14 
REMARK    7  A    between atoms: N_20  and  C_19 
REMARK       I    between atoms: C_22  and  N_20 
ROOT
ATOM      1  C   LIG d   1      -3.133  75.250 116.115  0.00  0.00     0.161 C 
ATOM      2  C   LIG d   1      -4.048  74.203 115.918  0.00  0.00     0.016 C 
ATOM      3  C   LIG d   1      -5.450  74.376 115.964  0.00  0.00     0.038 C 
ATOM      4  C   LIG d   1      -6.038  75.646 116.061  0.00  0.00     0.028 C 
ATOM      5  C   LIG d   1      -5.155  76.669 116.767  0.00  0.00    -0.047 C 
ATOM      6  C   LIG d   1      -3.755  76.662 116.111  0.00  0.00     0.091 C 
ENDROOT
BRANCH   1   7
ATOM      7  O   LIG d   1      -2.076  75.166 115.138  0.00  0.00    -0.368 OA
BRANCH   7   8
ATOM      8  C   LIG d   1      -0.938  74.346 115.499  0.00  0.00     0.119 C 
BRANCH   8   9
ATOM      9  C   LIG d   1      -0.482  74.780 116.905  0.00  0.00     0.028 C 
ATOM     10  C   LIG d   1      -0.261  73.583 117.845  0.00  0.00     0.006 C 
ENDBRANCH   8   9
BRANCH   8  11
ATOM     11  C   LIG d   1       0.259  74.619 114.582  0.00  0.00     0.028 C 
ATOM     12  C   LIG d   1       1.136  73.377 114.362  0.00  0.00     0.006 C 
ENDBRANCH   8  11
ENDBRANCH   7   8
ENDBRANCH   1   7
BRANCH   6  13
ATOM     13  N   LIG d   1      -2.803  77.575 116.797  0.00  0.00    -0.311 N 
ATOM     14  C   LIG d   1      -2.394  78.731 116.278  0.00  0.00     0.210 C 
ATOM     15  C   LIG d   1      -1.396  79.510 117.140  0.00  0.00     0.109 C 
ATOM     16  O   LIG d   1      -2.788  79.201 115.200  0.00  0.00    -0.276 OA
ATOM     17  H   LIG d   1      -2.458  77.286 117.691  0.00  0.00     0.149 HD
ENDBRANCH   6  13
BRANCH   5  18
ATOM     18  N   LIG d   1      -5.829  77.978 116.677  0.00  0.00     0.381 N 
ATOM     19  H   LIG d   1      -5.827  78.423 117.573  0.00  0.00    -0.090 HD
ATOM     20  H   LIG d   1      -6.784  77.833 116.399  0.00  0.00    -0.090 HD
ATOM     21  H   LIG d   1      -5.366  78.555 116.010  0.00  0.00    -0.090 HD
ENDBRANCH   5  18
BRANCH   3  22
ATOM     22  C   LIG d   1      -6.281  73.265 115.953  0.00  0.00     0.382 C 
ATOM     23  O   LIG d   1      -7.292  73.231 116.694  0.00  0.00    -0.241 OA
ATOM     24  O   LIG d   1      -6.007  72.279 115.243  0.00  0.00    -0.241 OA
ENDBRANCH   3  22
TORSDOF 7
ENDMDL
