MODEL 1
REMARK VINA RESULT:      -6.0      0.000      0.000
REMARK  7 active torsions:
REMARK  status: ('A' for Active; 'I' for Inactive)
REMARK    1  A    between atoms: C_2  and  C_3 
REMARK    2  A    between atoms: C_3  and  O_6 
REMARK    3  A    between atoms: C_3  and  C_4 
REMARK    4  A    between atoms: C_7  and  O_6 
REMARK    5  A    between atoms: C_9  and  C_10 
REMARK    6  A    between atoms: N_15  and  C_14 
REMARK    7  A    between atoms: N_20  and  C_19 
REMARK       I    between atoms: C_22  and  N_20 
ROOT
ATOM      1  C   LIG d   1      -6.780  77.146 117.177  0.00  0.00     0.161 C 
ATOM      2  C   LIG d   1      -7.988  77.837 117.373  0.00  0.00     0.016 C 
ATOM      3  C   LIG d   1      -8.058  79.227 117.622  0.00  0.00     0.038 C 
ATOM      4  C   LIG d   1      -6.927  80.052 117.543  0.00  0.00     0.028 C 
ATOM      5  C   LIG d   1      -5.623  79.323 117.848  0.00  0.00    -0.047 C 
ATOM      6  C   LIG d   1      -5.545  78.048 116.977  0.00  0.00     0.091 C 
ENDROOT
BRANCH   1   7
ATOM      7  O   LIG d   1      -6.915  76.229 116.074  0.00  0.00    -0.368 OA
BRANCH   7   8
ATOM      8  C   LIG d   1      -7.369  74.893 116.407  0.00  0.00     0.119 C 
BRANCH   8   9
ATOM      9  C   LIG d   1      -6.431  73.896 115.699  0.00  0.00     0.028 C 
ATOM     10  C   LIG d   1      -5.331  74.600 114.886  0.00  0.00     0.006 C 
ENDBRANCH   8   9
BRANCH   8  11
ATOM     11  C   LIG d   1      -8.762  74.619 115.833  0.00  0.00     0.028 C 
ATOM     12  C   LIG d   1      -9.141  73.130 115.877  0.00  0.00     0.006 C 
ENDBRANCH   8  11
ENDBRANCH   7   8
ENDBRANCH   1   7
BRANCH   6  13
ATOM     13  N   LIG d   1      -4.339  77.232 117.273  0.00  0.00    -0.311 N 
ATOM     14  C   LIG d   1      -3.201  77.329 116.588  0.00  0.00     0.210 C 
ATOM     15  C   LIG d   1      -2.088  76.381 117.045  0.00  0.00     0.109 C 
ATOM     16  O   LIG d   1      -2.998  78.132 115.665  0.00  0.00    -0.276 OA
ATOM     17  H   LIG d   1      -4.406  76.576 118.027  0.00  0.00     0.149 HD
ENDBRANCH   6  13
BRANCH   5  18
ATOM     18  N   LIG d   1      -4.516  80.265 117.594  0.00  0.00     0.381 N 
ATOM     19  H   LIG d   1      -3.640  79.810 117.756  0.00  0.00    -0.090 HD
ATOM     20  H   LIG d   1      -4.593  81.037 118.233  0.00  0.00    -0.090 HD
ATOM     21  H   LIG d   1      -4.558  80.596 116.655  0.00  0.00    -0.090 HD
ENDBRANCH   5  18
BRANCH   3  22
ATOM     22  C   LIG d   1      -9.266  79.798 117.995  0.00  0.00     0.382 C 
ATOM     23  O   LIG d   1     -10.291  79.083 118.101  0.00  0.00    -0.241 OA
ATOM     24  O   LIG d   1      -9.352  81.026 118.183  0.00  0.00    -0.241 OA
ENDBRANCH   3  22
TORSDOF 7
ENDMDL
MODEL 2
REMARK VINA RESULT:      -5.9      8.992     11.416
REMARK  7 active torsions:
REMARK  status: ('A' for Active; 'I' for Inactive)
REMARK    1  A    between atoms: C_2  and  C_3 
REMARK    2  A    between atoms: C_3  and  O_6 
REMARK    3  A    between atoms: C_3  and  C_4 
REMARK    4  A    between atoms: C_7  and  O_6 
REMARK    5  A    between atoms: C_9  and  C_10 
REMARK    6  A    between atoms: N_15  and  C_14 
REMARK    7  A    between atoms: N_20  and  C_19 
REMARK       I    between atoms: C_22  and  N_20 
ROOT
ATOM      1  C   LIG d   1       0.065  83.061 110.969  0.00  0.00     0.161 C 
ATOM      2  C   LIG d   1      -1.201  82.876 111.550  0.00  0.00     0.016 C 
ATOM      3  C   LIG d   1      -1.393  82.307 112.830  0.00  0.00     0.038 C 
ATOM      4  C   LIG d   1      -0.317  82.020 113.683  0.00  0.00     0.028 C 
ATOM      5  C   LIG d   1       0.981  81.721 112.941  0.00  0.00    -0.047 C 
ATOM      6  C   LIG d   1       1.254  82.857 111.930  0.00  0.00     0.091 C 
ENDROOT
BRANCH   1   7
ATOM      7  O   LIG d   1       0.134  84.363 110.354  0.00  0.00    -0.368 OA
BRANCH   7   8
ATOM      8  C   LIG d   1       0.533  85.455 111.219  0.00  0.00     0.119 C 
BRANCH   8   9
ATOM      9  C   LIG d   1      -0.623  86.474 111.241  0.00  0.00     0.028 C 
ATOM     10  C   LIG d   1      -1.586  86.295 110.055  0.00  0.00     0.006 C 
ENDBRANCH   8   9
BRANCH   8  11
ATOM     11  C   LIG d   1       1.731  86.215 110.642  0.00  0.00     0.028 C 
ATOM     12  C   LIG d   1       2.148  87.415 111.506  0.00  0.00     0.006 C 
ENDBRANCH   8  11
ENDBRANCH   7   8
ENDBRANCH   1   7
BRANCH   6  13
ATOM     13  N   LIG d   1       2.462  82.601 111.102  0.00  0.00    -0.311 N 
ATOM     14  C   LIG d   1       3.666  83.091 111.391  0.00  0.00     0.210 C 
ATOM     15  C   LIG d   1       4.771  82.723 110.396  0.00  0.00     0.109 C 
ATOM     16  O   LIG d   1       3.931  83.770 112.395  0.00  0.00    -0.276 OA
ATOM     17  H   LIG d   1       2.344  82.034 110.286  0.00  0.00     0.149 HD
ENDBRANCH   6  13
BRANCH   5  18
ATOM     18  N   LIG d   1       2.048  81.576 113.950  0.00  0.00     0.381 N 
ATOM     19  H   LIG d   1       2.344  80.621 113.995  0.00  0.00    -0.090 HD
ATOM     20  H   LIG d   1       1.682  81.835 114.849  0.00  0.00    -0.090 HD
ATOM     21  H   LIG d   1       2.820  82.160 113.716  0.00  0.00    -0.090 HD
ENDBRANCH   5  18
BRANCH   3  22
ATOM     22  C   LIG d   1      -2.673  81.981 113.252  0.00  0.00     0.382 C 
ATOM     23  O   LIG d   1      -3.189  82.591 114.219  0.00  0.00    -0.241 OA
ATOM     24  O   LIG d   1      -3.301  81.054 112.706  0.00  0.00    -0.241 OA
ENDBRANCH   3  22
TORSDOF 7
ENDMDL
MODEL 3
REMARK VINA RESULT:      -5.8      8.307     11.019
REMARK  7 active torsions:
REMARK  status: ('A' for Active; 'I' for Inactive)
REMARK    1  A    between atoms: C_2  and  C_3 
REMARK    2  A    between atoms: C_3  and  O_6 
REMARK    3  A    between atoms: C_3  and  C_4 
REMARK    4  A    between atoms: C_7  and  O_6 
REMARK    5  A    between atoms: C_9  and  C_10 
REMARK    6  A    between atoms: N_15  and  C_14 
REMARK    7  A    between atoms: N_20  and  C_19 
REMARK       I    between atoms: C_22  and  N_20 
ROOT
ATOM      1  C   LIG d   1      -0.687  84.387 113.384  0.00  0.00     0.161 C 
ATOM      2  C   LIG d   1      -0.014  85.509 112.874  0.00  0.00     0.016 C 
ATOM      3  C   LIG d   1       0.532  85.564 111.571  0.00  0.00     0.038 C 
ATOM      4  C   LIG d   1       0.306  84.549 110.629  0.00  0.00     0.028 C 
ATOM      5  C   LIG d   1       0.064  83.182 111.259  0.00  0.00    -0.047 C 
ATOM      6  C   LIG d   1      -1.040  83.312 112.333  0.00  0.00     0.091 C 
ENDROOT
BRANCH   1   7
ATOM      7  O   LIG d   1      -1.873  84.806 114.088  0.00  0.00    -0.368 OA
BRANCH   7   8
ATOM      8  C   LIG d   1      -1.865  84.608 115.523  0.00  0.00     0.119 C 
BRANCH   8   9
ATOM      9  C   LIG d   1      -1.728  85.995 116.181  0.00  0.00     0.028 C 
ATOM     10  C   LIG d   1      -0.278  86.311 116.586  0.00  0.00     0.006 C 
ENDBRANCH   8   9
BRANCH   8  11
ATOM     11  C   LIG d   1      -0.629  83.823 115.971  0.00  0.00     0.028 C 
ATOM     12  C   LIG d   1      -0.983  82.507 116.680  0.00  0.00     0.006 C 
ENDBRANCH   8  11
ENDBRANCH   7   8
ENDBRANCH   1   7
BRANCH   6  13
ATOM     13  N   LIG d   1      -1.279  82.037 113.058  0.00  0.00    -0.311 N 
ATOM     14  C   LIG d   1      -2.473  81.450 113.133  0.00  0.00     0.210 C 
ATOM     15  C   LIG d   1      -2.504  80.152 113.946  0.00  0.00     0.109 C 
ATOM     16  O   LIG d   1      -3.501  81.864 112.577  0.00  0.00    -0.276 OA
ATOM     17  H   LIG d   1      -0.493  81.615 113.512  0.00  0.00     0.149 HD
ENDBRANCH   6  13
BRANCH   5  18
ATOM     18  N   LIG d   1      -0.292  82.248 110.174  0.00  0.00     0.381 N 
ATOM     19  H   LIG d   1      -0.905  81.539 110.525  0.00  0.00    -0.090 HD
ATOM     20  H   LIG d   1       0.545  81.804 109.840  0.00  0.00    -0.090 HD
ATOM     21  H   LIG d   1      -0.735  82.742 109.431  0.00  0.00    -0.090 HD
ENDBRANCH   5  18
BRANCH   3  22
ATOM     22  C   LIG d   1       1.346  86.628 111.211  0.00  0.00     0.382 C 
ATOM     23  O   LIG d   1       1.118  87.774 111.666  0.00  0.00    -0.241 OA
ATOM     24  O   LIG d   1       2.279  86.463 110.403  0.00  0.00    -0.241 OA
ENDBRANCH   3  22
TORSDOF 7
ENDMDL
MODEL 4
REMARK VINA RESULT:      -5.7      8.543     11.148
REMARK  7 active torsions:
REMARK  status: ('A' for Active; 'I' for Inactive)
REMARK    1  A    between atoms: C_2  and  C_3 
REMARK    2  A    between atoms: C_3  and  O_6 
REMARK    3  A    between atoms: C_3  and  C_4 
REMARK    4  A    between atoms: C_7  and  O_6 
REMARK    5  A    between atoms: C_9  and  C_10 
REMARK    6  A    between atoms: N_15  and  C_14 
REMARK    7  A    between atoms: N_20  and  C_19 
REMARK       I    between atoms: C_22  and  N_20 
ROOT
ATOM      1  C   LIG d   1       0.036  83.429 112.589  0.00  0.00     0.161 C 
ATOM      2  C   LIG d   1      -1.181  82.916 113.068  0.00  0.00     0.016 C 
ATOM      3  C   LIG d   1      -1.647  81.614 112.773  0.00  0.00     0.038 C 
ATOM      4  C   LIG d   1      -0.851  80.677 112.098  0.00  0.00     0.028 C 
ATOM      5  C   LIG d   1       0.172  81.313 111.162  0.00  0.00    -0.047 C 
ATOM      6  C   LIG d   1       0.969  82.383 111.944  0.00  0.00     0.091 C 
ENDROOT
BRANCH   1   7
ATOM      7  O   LIG d   1       0.722  84.127 113.647  0.00  0.00    -0.368 OA
BRANCH   7   8
ATOM      8  C   LIG d   1       0.829  85.564 113.498  0.00  0.00     0.119 C 
BRANCH   8   9
ATOM      9  C   LIG d   1      -0.035  85.969 112.288  0.00  0.00     0.028 C 
ATOM     10  C   LIG d   1       0.794  86.616 111.165  0.00  0.00     0.006 C 
ENDBRANCH   8   9
BRANCH   8  11
ATOM     11  C   LIG d   1       2.257  85.982 113.134  0.00  0.00     0.028 C 
ATOM     12  C   LIG d   1       3.325  85.137 113.847  0.00  0.00     0.006 C 
ENDBRANCH   8  11
ENDBRANCH   7   8
ENDBRANCH   1   7
BRANCH   6  13
ATOM     13  N   LIG d   1       1.934  83.113 111.081  0.00  0.00    -0.311 N 
ATOM     14  C   LIG d   1       3.223  82.791 110.987  0.00  0.00     0.210 C 
ATOM     15  C   LIG d   1       4.047  83.686 110.056  0.00  0.00     0.109 C 
ATOM     16  O   LIG d   1       3.755  81.829 111.562  0.00  0.00    -0.276 OA
ATOM     17  H   LIG d   1       1.580  83.888 110.555  0.00  0.00     0.149 HD
ENDBRANCH   6  13
BRANCH   5  18
ATOM     18  N   LIG d   1       1.023  80.232 110.631  0.00  0.00     0.381 N 
ATOM     19  H   LIG d   1       0.572  79.349 110.766  0.00  0.00    -0.090 HD
ATOM     20  H   LIG d   1       1.891  80.223 111.136  0.00  0.00    -0.090 HD
ATOM     21  H   LIG d   1       1.196  80.380 109.661  0.00  0.00    -0.090 HD
ENDBRANCH   5  18
BRANCH   3  22
ATOM     22  C   LIG d   1      -2.939  81.252 113.120  0.00  0.00     0.382 C 
ATOM     23  O   LIG d   1      -3.909  81.654 112.433  0.00  0.00    -0.241 OA
ATOM     24  O   LIG d   1      -3.151  80.565 114.138  0.00  0.00    -0.241 OA
ENDBRANCH   3  22
TORSDOF 7
ENDMDL
MODEL 5
REMARK VINA RESULT:      -5.5      9.055     11.813
REMARK  7 active torsions:
REMARK  status: ('A' for Active; 'I' for Inactive)
REMARK    1  A    between atoms: C_2  and  C_3 
REMARK    2  A    between atoms: C_3  and  O_6 
REMARK    3  A    between atoms: C_3  and  C_4 
REMARK    4  A    between atoms: C_7  and  O_6 
REMARK    5  A    between atoms: C_9  and  C_10 
REMARK    6  A    between atoms: N_15  and  C_14 
REMARK    7  A    between atoms: N_20  and  C_19 
REMARK       I    between atoms: C_22  and  N_20 
ROOT
ATOM      1  C   LIG d   1       1.062  84.407 113.694  0.00  0.00     0.161 C 
ATOM      2  C   LIG d   1       1.723  85.616 113.420  0.00  0.00     0.016 C 
ATOM      3  C   LIG d   1       1.731  86.227 112.145  0.00  0.00     0.038 C 
ATOM      4  C   LIG d   1       0.947  85.744 111.087  0.00  0.00     0.028 C 
ATOM      5  C   LIG d   1       0.665  84.248 111.175  0.00  0.00    -0.047 C 
ATOM      6  C   LIG d   1       0.110  83.924 112.581  0.00  0.00     0.091 C 
ENDROOT
BRANCH   1   7
ATOM      7  O   LIG d   1       0.357  84.509 114.947  0.00  0.00    -0.368 OA
BRANCH   7   8
ATOM      8  C   LIG d   1      -0.543  85.636 115.082  0.00  0.00     0.119 C 
BRANCH   8   9
ATOM      9  C   LIG d   1      -0.120  86.418 116.341  0.00  0.00     0.028 C 
ATOM     10  C   LIG d   1       0.689  85.555 117.324  0.00  0.00     0.006 C 
ENDBRANCH   8   9
BRANCH   8  11
ATOM     11  C   LIG d   1      -1.978  85.174 115.355  0.00  0.00     0.028 C 
ATOM     12  C   LIG d   1      -2.070  83.672 115.671  0.00  0.00     0.006 C 
ENDBRANCH   8  11
ENDBRANCH   7   8
ENDBRANCH   1   7
BRANCH   6  13
ATOM     13  N   LIG d   1      -0.114  82.468 112.780  0.00  0.00    -0.311 N 
ATOM     14  C   LIG d   1      -1.285  81.871 112.570  0.00  0.00     0.210 C 
ATOM     15  C   LIG d   1      -1.304  80.366 112.855  0.00  0.00     0.109 C 
ATOM     16  O   LIG d   1      -2.303  82.439 112.144  0.00  0.00    -0.276 OA
ATOM     17  H   LIG d   1       0.667  81.926 113.095  0.00  0.00     0.149 HD
ENDBRANCH   6  13
BRANCH   5  18
ATOM     18  N   LIG d   1      -0.273  83.906 110.089  0.00  0.00     0.381 N 
ATOM     19  H   LIG d   1      -1.177  83.711 110.472  0.00  0.00    -0.090 HD
ATOM     20  H   LIG d   1       0.057  83.080 109.622  0.00  0.00    -0.090 HD
ATOM     21  H   LIG d   1      -0.334  84.661 109.442  0.00  0.00    -0.090 HD
ENDBRANCH   5  18
BRANCH   3  22
ATOM     22  C   LIG d   1       2.562  87.311 111.908  0.00  0.00     0.382 C 
ATOM     23  O   LIG d   1       2.114  88.479 112.010  0.00  0.00    -0.241 OA
ATOM     24  O   LIG d   1       3.742  87.137 111.550  0.00  0.00    -0.241 OA
ENDBRANCH   3  22
TORSDOF 7
ENDMDL
MODEL 6
REMARK VINA RESULT:      -5.4     11.875     14.050
REMARK  7 active torsions:
REMARK  status: ('A' for Active; 'I' for Inactive)
REMARK    1  A    between atoms: C_2  and  C_3 
REMARK    2  A    between atoms: C_3  and  O_6 
REMARK    3  A    between atoms: C_3  and  C_4 
REMARK    4  A    between atoms: C_7  and  O_6 
REMARK    5  A    between atoms: C_9  and  C_10 
REMARK    6  A    between atoms: N_15  and  C_14 
REMARK    7  A    between atoms: N_20  and  C_19 
REMARK       I    between atoms: C_22  and  N_20 
ROOT
ATOM      1  C   LIG d   1       4.349  85.436 112.834  0.00  0.00     0.161 C 
ATOM      2  C   LIG d   1       4.325  86.699 113.447  0.00  0.00     0.016 C 
ATOM      3  C   LIG d   1       3.469  87.747 113.037  0.00  0.00     0.038 C 
ATOM      4  C   LIG d   1       2.465  87.552 112.077  0.00  0.00     0.028 C 
ATOM      5  C   LIG d   1       2.788  86.444 111.080  0.00  0.00    -0.047 C 
ATOM      6  C   LIG d   1       3.184  85.168 111.858  0.00  0.00     0.091 C 
ENDROOT
BRANCH   1   7
ATOM      7  O   LIG d   1       4.406  84.405 113.840  0.00  0.00    -0.368 OA
BRANCH   7   8
ATOM      8  C   LIG d   1       3.837  84.741 115.129  0.00  0.00     0.119 C 
BRANCH   8   9
ATOM      9  C   LIG d   1       4.779  84.181 116.212  0.00  0.00     0.028 C 
ATOM     10  C   LIG d   1       5.356  85.284 117.116  0.00  0.00     0.006 C 
ENDBRANCH   8   9
BRANCH   8  11
ATOM     11  C   LIG d   1       2.498  84.030 115.349  0.00  0.00     0.028 C 
ATOM     12  C   LIG d   1       1.289  84.940 115.082  0.00  0.00     0.006 C 
ENDBRANCH   8  11
ENDBRANCH   7   8
ENDBRANCH   1   7
BRANCH   6  13
ATOM     13  N   LIG d   1       3.596  84.060 110.958  0.00  0.00    -0.311 N 
ATOM     14  C   LIG d   1       3.199  82.799 111.118  0.00  0.00     0.210 C 
ATOM     15  C   LIG d   1       3.757  81.810 110.090  0.00  0.00     0.109 C 
ATOM     16  O   LIG d   1       2.411  82.411 111.994  0.00  0.00    -0.276 OA
ATOM     17  H   LIG d   1       4.210  84.291 110.201  0.00  0.00     0.149 HD
ENDBRANCH   6  13
BRANCH   5  18
ATOM     18  N   LIG d   1       1.601  86.254 110.225  0.00  0.00     0.381 N 
ATOM     19  H   LIG d   1       1.847  85.714 109.419  0.00  0.00    -0.090 HD
ATOM     20  H   LIG d   1       1.277  87.153 109.915  0.00  0.00    -0.090 HD
ATOM     21  H   LIG d   1       0.882  85.792 110.736  0.00  0.00    -0.090 HD
ENDBRANCH   5  18
BRANCH   3  22
ATOM     22  C   LIG d   1       3.640  89.019 113.561  0.00  0.00     0.382 C 
ATOM     23  O   LIG d   1       4.400  89.837 112.989  0.00  0.00    -0.241 OA
ATOM     24  O   LIG d   1       3.078  89.345 114.624  0.00  0.00    -0.241 OA
ENDBRANCH   3  22
TORSDOF 7
ENDMDL
MODEL 7
REMARK VINA RESULT:      -5.3      9.089     11.634
REMARK  7 active torsions:
REMARK  status: ('A' for Active; 'I' for Inactive)
REMARK    1  A    between atoms: C_2  and  C_3 
REMARK    2  A    between atoms: C_3  and  O_6 
REMARK    3  A    between atoms: C_3  and  C_4 
REMARK    4  A    between atoms: C_7  and  O_6 
REMARK    5  A    between atoms: C_9  and  C_10 
REMARK    6  A    between atoms: N_15  and  C_14 
REMARK    7  A    between atoms: N_20  and  C_19 
REMARK       I    between atoms: C_22  and  N_20 
ROOT
ATOM      1  C   LIG d   1       1.099  83.735 112.728  0.00  0.00     0.161 C 
ATOM      2  C   LIG d   1       0.042  82.916 112.297  0.00  0.00     0.016 C 
ATOM      3  C   LIG d   1      -1.177  82.783 113.002  0.00  0.00     0.038 C 
ATOM      4  C   LIG d   1      -1.481  83.583 114.113  0.00  0.00     0.028 C 
ATOM      5  C   LIG d   1      -0.248  84.055 114.876  0.00  0.00    -0.047 C 
ATOM      6  C   LIG d   1       0.742  84.699 113.878  0.00  0.00     0.091 C 
ENDROOT
BRANCH   1   7
ATOM      7  O   LIG d   1       1.637  84.467 111.609  0.00  0.00    -0.368 OA
BRANCH   7   8
ATOM      8  C   LIG d   1       1.072  85.781 111.376  0.00  0.00     0.119 C 
BRANCH   8   9
ATOM      9  C   LIG d   1       0.281  85.717 110.055  0.00  0.00     0.028 C 
ATOM     10  C   LIG d   1      -1.210  86.040 110.248  0.00  0.00     0.006 C 
ENDBRANCH   8   9
BRANCH   8  11
ATOM     11  C   LIG d   1       2.168  86.825 111.142  0.00  0.00     0.028 C 
ATOM     12  C   LIG d   1       3.564  86.323 111.543  0.00  0.00     0.006 C 
ENDBRANCH   8  11
ENDBRANCH   7   8
ENDBRANCH   1   7
BRANCH   6  13
ATOM     13  N   LIG d   1       2.013  85.113 114.528  0.00  0.00    -0.311 N 
ATOM     14  C   LIG d   1       2.245  86.350 114.964  0.00  0.00     0.210 C 
ATOM     15  C   LIG d   1       3.628  86.568 115.586  0.00  0.00     0.109 C 
ATOM     16  O   LIG d   1       1.424  87.279 114.925  0.00  0.00    -0.276 OA
ATOM     17  H   LIG d   1       2.723  84.414 114.629  0.00  0.00     0.149 HD
ENDBRANCH   6  13
BRANCH   5  18
ATOM     18  N   LIG d   1      -0.702  84.989 115.924  0.00  0.00     0.381 N 
ATOM     19  H   LIG d   1      -1.171  84.483 116.648  0.00  0.00    -0.090 HD
ATOM     20  H   LIG d   1      -1.353  85.639 115.520  0.00  0.00    -0.090 HD
ATOM     21  H   LIG d   1       0.077  85.480 116.303  0.00  0.00    -0.090 HD
ENDBRANCH   5  18
BRANCH   3  22
ATOM     22  C   LIG d   1      -2.091  81.813 112.618  0.00  0.00     0.382 C 
ATOM     23  O   LIG d   1      -1.711  80.827 111.941  0.00  0.00    -0.241 OA
ATOM     24  O   LIG d   1      -3.297  81.935 112.902  0.00  0.00    -0.241 OA
ENDBRANCH   3  22
TORSDOF 7
ENDMDL
MODEL 8
REMARK VINA RESULT:      -5.3     11.028     13.637
REMARK  7 active torsions:
REMARK  status: ('A' for Active; 'I' for Inactive)
REMARK    1  A    between atoms: C_2  and  C_3 
REMARK    2  A    between atoms: C_3  and  O_6 
REMARK    3  A    between atoms: C_3  and  C_4 
REMARK    4  A    between atoms: C_7  and  O_6 
REMARK    5  A    between atoms: C_9  and  C_10 
REMARK    6  A    between atoms: N_15  and  C_14 
REMARK    7  A    between atoms: N_20  and  C_19 
REMARK       I    between atoms: C_22  and  N_20 
ROOT
ATOM      1  C   LIG d   1       1.863  86.711 112.407  0.00  0.00     0.161 C 
ATOM      2  C   LIG d   1       2.959  87.571 112.229  0.00  0.00     0.016 C 
ATOM      3  C   LIG d   1       3.817  87.966 113.281  0.00  0.00     0.038 C 
ATOM      4  C   LIG d   1       3.726  87.403 114.563  0.00  0.00     0.028 C 
ATOM      5  C   LIG d   1       2.324  86.916 114.912  0.00  0.00    -0.047 C 
ATOM      6  C   LIG d   1       1.814  86.000 113.775  0.00  0.00     0.091 C 
ENDROOT
BRANCH   1   7
ATOM      7  O   LIG d   1       1.821  85.745 111.338  0.00  0.00    -0.368 OA
BRANCH   7   8
ATOM      8  C   LIG d   1       2.625  84.554 111.525  0.00  0.00     0.119 C 
BRANCH   8   9
ATOM      9  C   LIG d   1       3.670  84.519 110.393  0.00  0.00     0.028 C 
ATOM     10  C   LIG d   1       4.214  83.102 110.140  0.00  0.00     0.006 C 
ENDBRANCH   8   9
BRANCH   8  11
ATOM     11  C   LIG d   1       1.789  83.283 111.344  0.00  0.00     0.028 C 
ATOM     12  C   LIG d   1       0.354  83.576 110.880  0.00  0.00     0.006 C 
ENDBRANCH   8  11
ENDBRANCH   7   8
ENDBRANCH   1   7
BRANCH   6  13
ATOM     13  N   LIG d   1       0.416  85.547 113.997  0.00  0.00    -0.311 N 
ATOM     14  C   LIG d   1       0.104  84.377 114.552  0.00  0.00     0.210 C 
ATOM     15  C   LIG d   1      -1.398  84.097 114.670  0.00  0.00     0.109 C 
ATOM     16  O   LIG d   1       0.928  83.559 114.989  0.00  0.00    -0.276 OA
ATOM     17  H   LIG d   1      -0.316  86.163 113.701  0.00  0.00     0.149 HD
ENDBRANCH   6  13
BRANCH   5  18
ATOM     18  N   LIG d   1       2.402  86.230 116.215  0.00  0.00     0.381 N 
ATOM     19  H   LIG d   1       2.716  85.289 116.085  0.00  0.00    -0.090 HD
ATOM     20  H   LIG d   1       1.484  86.202 116.624  0.00  0.00    -0.090 HD
ATOM     21  H   LIG d   1       3.028  86.716 116.819  0.00  0.00    -0.090 HD
ENDBRANCH   5  18
BRANCH   3  22
ATOM     22  C   LIG d   1       4.755  88.964 113.065  0.00  0.00     0.382 C 
ATOM     23  O   LIG d   1       4.393  90.164 113.011  0.00  0.00    -0.241 OA
ATOM     24  O   LIG d   1       5.953  88.676 112.878  0.00  0.00    -0.241 OA
ENDBRANCH   3  22
TORSDOF 7
ENDMDL
MODEL 9
REMARK VINA RESULT:      -5.2     10.618     13.336
REMARK  7 active torsions:
REMARK  status: ('A' for Active; 'I' for Inactive)
REMARK    1  A    between atoms: C_2  and  C_3 
REMARK    2  A    between atoms: C_3  and  O_6 
REMARK    3  A    between atoms: C_3  and  C_4 
REMARK    4  A    between atoms: C_7  and  O_6 
REMARK    5  A    between atoms: C_9  and  C_10 
REMARK    6  A    between atoms: N_15  and  C_14 
REMARK    7  A    between atoms: N_20  and  C_19 
REMARK       I    between atoms: C_22  and  N_20 
ROOT
ATOM      1  C   LIG d   1       2.299  85.699 114.049  0.00  0.00     0.161 C 
ATOM      2  C   LIG d   1       3.137  86.821 114.157  0.00  0.00     0.016 C 
ATOM      3  C   LIG d   1       3.325  87.755 113.112  0.00  0.00     0.038 C 
ATOM      4  C   LIG d   1       2.567  87.712 111.933  0.00  0.00     0.028 C 
ATOM      5  C   LIG d   1       2.079  86.311 111.578  0.00  0.00    -0.047 C 
ATOM      6  C   LIG d   1       1.379  85.696 112.811  0.00  0.00     0.091 C 
ENDROOT
BRANCH   1   7
ATOM      7  O   LIG d   1       1.520  85.552 115.253  0.00  0.00    -0.368 OA
BRANCH   7   8
ATOM      8  C   LIG d   1       0.320  86.359 115.337  0.00  0.00     0.119 C 
BRANCH   8   9
ATOM      9  C   LIG d   1       0.469  87.284 116.561  0.00  0.00     0.028 C 
ATOM     10  C   LIG d   1       1.498  86.755 117.574  0.00  0.00     0.006 C 
ENDBRANCH   8   9
BRANCH   8  11
ATOM     11  C   LIG d   1      -0.912  85.497 115.628  0.00  0.00     0.028 C 
ATOM     12  C   LIG d   1      -0.553  84.045 115.984  0.00  0.00     0.006 C 
ENDBRANCH   8  11
ENDBRANCH   7   8
ENDBRANCH   1   7
BRANCH   6  13
ATOM     13  N   LIG d   1       0.946  84.294 112.575  0.00  0.00    -0.311 N 
ATOM     14  C   LIG d   1      -0.293  83.959 112.217  0.00  0.00     0.210 C 
ATOM     15  C   LIG d   1      -0.533  82.456 112.046  0.00  0.00     0.109 C 
ATOM     16  O   LIG d   1      -1.207  84.767 111.992  0.00  0.00    -0.276 OA
ATOM     17  H   LIG d   1       1.632  83.576 112.704  0.00  0.00     0.149 HD
ENDBRANCH   6  13
BRANCH   5  18
ATOM     18  N   LIG d   1       1.190  86.432 110.408  0.00  0.00     0.381 N 
ATOM     19  H   LIG d   1       1.736  86.515 109.574  0.00  0.00    -0.090 HD
ATOM     20  H   LIG d   1       0.636  87.265 110.505  0.00  0.00    -0.090 HD
ATOM     21  H   LIG d   1       0.596  85.635 110.347  0.00  0.00    -0.090 HD
ENDBRANCH   5  18
BRANCH   3  22
ATOM     22  C   LIG d   1       4.311  88.724 113.226  0.00  0.00     0.382 C 
ATOM     23  O   LIG d   1       4.057  89.812 113.796  0.00  0.00    -0.241 OA
ATOM     24  O   LIG d   1       5.437  88.540 112.727  0.00  0.00    -0.241 OA
ENDBRANCH   3  22
TORSDOF 7
ENDMDL
