MODEL 1
REMARK VINA RESULT:      -5.7      0.000      0.000
REMARK  7 active torsions:
REMARK  status: ('A' for Active; 'I' for Inactive)
REMARK    1  A    between atoms: C_2  and  C_3 
REMARK    2  A    between atoms: C_3  and  O_6 
REMARK    3  A    between atoms: C_3  and  C_4 
REMARK    4  A    between atoms: C_7  and  O_6 
REMARK    5  A    between atoms: C_9  and  C_10 
REMARK    6  A    between atoms: N_15  and  C_14 
REMARK    7  A    between atoms: N_20  and  C_19 
REMARK       I    between atoms: C_22  and  N_20 
ROOT
ATOM      1  C   LIG d   1       0.012  83.235 112.339  0.00  0.00     0.161 C 
ATOM      2  C   LIG d   1      -1.176  82.712 112.876  0.00  0.00     0.016 C 
ATOM      3  C   LIG d   1      -1.595  81.376 112.684  0.00  0.00     0.038 C 
ATOM      4  C   LIG d   1      -0.773  80.423 112.065  0.00  0.00     0.028 C 
ATOM      5  C   LIG d   1       0.210  81.027 111.067  0.00  0.00    -0.047 C 
ATOM      6  C   LIG d   1       0.976  82.181 111.754  0.00  0.00     0.091 C 
ENDROOT
BRANCH   1   7
ATOM      7  O   LIG d   1       0.686  84.035 113.331  0.00  0.00    -0.368 OA
BRANCH   7   8
ATOM      8  C   LIG d   1       0.284  85.424 113.410  0.00  0.00     0.119 C 
BRANCH   8   9
ATOM      9  C   LIG d   1       1.329  86.253 112.638  0.00  0.00     0.028 C 
ATOM     10  C   LIG d   1       0.787  86.780 111.298  0.00  0.00     0.006 C 
ENDBRANCH   8   9
BRANCH   8  11
ATOM     11  C   LIG d   1       0.341  85.940 114.851  0.00  0.00     0.028 C 
ATOM     12  C   LIG d   1       1.582  86.803 115.126  0.00  0.00     0.006 C 
ENDBRANCH   8  11
ENDBRANCH   7   8
ENDBRANCH   1   7
BRANCH   6  13
ATOM     13  N   LIG d   1       1.898  82.882 110.823  0.00  0.00    -0.311 N 
ATOM     14  C   LIG d   1       3.131  83.258 111.158  0.00  0.00     0.210 C 
ATOM     15  C   LIG d   1       3.907  83.985 110.055  0.00  0.00     0.109 C 
ATOM     16  O   LIG d   1       3.668  83.030 112.252  0.00  0.00    -0.276 OA
ATOM     17  H   LIG d   1       1.555  83.080 109.904  0.00  0.00     0.149 HD
ENDBRANCH   6  13
BRANCH   5  18
ATOM     18  N   LIG d   1       1.095  79.943 110.600  0.00  0.00     0.381 N 
ATOM     19  H   LIG d   1       1.040  79.167 111.229  0.00  0.00    -0.090 HD
ATOM     20  H   LIG d   1       2.042  80.277 110.593  0.00  0.00    -0.090 HD
ATOM     21  H   LIG d   1       0.829  79.657 109.684  0.00  0.00    -0.090 HD
ENDBRANCH   5  18
BRANCH   3  22
ATOM     22  C   LIG d   1      -2.867  80.990 113.080  0.00  0.00     0.382 C 
ATOM     23  O   LIG d   1      -3.850  81.208 112.331  0.00  0.00    -0.241 OA
ATOM     24  O   LIG d   1      -3.050  80.469 114.196  0.00  0.00    -0.241 OA
ENDBRANCH   3  22
TORSDOF 7
ENDMDL
MODEL 2
REMARK VINA RESULT:      -5.7      2.427      5.258
REMARK  7 active torsions:
REMARK  status: ('A' for Active; 'I' for Inactive)
REMARK    1  A    between atoms: C_2  and  C_3 
REMARK    2  A    between atoms: C_3  and  O_6 
REMARK    3  A    between atoms: C_3  and  C_4 
REMARK    4  A    between atoms: C_7  and  O_6 
REMARK    5  A    between atoms: C_9  and  C_10 
REMARK    6  A    between atoms: N_15  and  C_14 
REMARK    7  A    between atoms: N_20  and  C_19 
REMARK       I    between atoms: C_22  and  N_20 
ROOT
ATOM      1  C   LIG d   1      -0.515  84.111 113.405  0.00  0.00     0.161 C 
ATOM      2  C   LIG d   1       0.083  85.284 112.918  0.00  0.00     0.016 C 
ATOM      3  C   LIG d   1       0.533  85.433 111.586  0.00  0.00     0.038 C 
ATOM      4  C   LIG d   1       0.276  84.465 110.604  0.00  0.00     0.028 C 
ATOM      5  C   LIG d   1       0.124  83.056 111.167  0.00  0.00    -0.047 C 
ATOM      6  C   LIG d   1      -0.905  83.085 112.321  0.00  0.00     0.091 C 
ENDROOT
BRANCH   1   7
ATOM      7  O   LIG d   1      -1.661  84.446 114.213  0.00  0.00    -0.368 OA
BRANCH   7   8
ATOM      8  C   LIG d   1      -1.523  84.226 115.638  0.00  0.00     0.119 C 
BRANCH   8   9
ATOM      9  C   LIG d   1      -0.045  83.884 115.913  0.00  0.00     0.028 C 
ATOM     10  C   LIG d   1       0.654  84.949 116.774  0.00  0.00     0.006 C 
ENDBRANCH   8   9
BRANCH   8  11
ATOM     11  C   LIG d   1      -2.315  82.996 116.092  0.00  0.00     0.028 C 
ATOM     12  C   LIG d   1      -1.434  81.939 116.776  0.00  0.00     0.006 C 
ENDBRANCH   8  11
ENDBRANCH   7   8
ENDBRANCH   1   7
BRANCH   6  13
ATOM     13  N   LIG d   1      -1.051  81.763 112.983  0.00  0.00    -0.311 N 
ATOM     14  C   LIG d   1      -2.200  81.091 113.034  0.00  0.00     0.210 C 
ATOM     15  C   LIG d   1      -2.135  79.756 113.783  0.00  0.00     0.109 C 
ATOM     16  O   LIG d   1      -3.258  81.458 112.502  0.00  0.00    -0.276 OA
ATOM     17  H   LIG d   1      -0.234  81.376 113.414  0.00  0.00     0.149 HD
ENDBRANCH   6  13
BRANCH   5  18
ATOM     18  N   LIG d   1      -0.277  82.173 110.056  0.00  0.00     0.381 N 
ATOM     19  H   LIG d   1      -1.073  82.557 109.588  0.00  0.00    -0.090 HD
ATOM     20  H   LIG d   1      -0.534  81.276 110.431  0.00  0.00    -0.090 HD
ATOM     21  H   LIG d   1       0.477  82.069 109.414  0.00  0.00    -0.090 HD
ENDBRANCH   5  18
BRANCH   3  22
ATOM     22  C   LIG d   1       1.284  86.544 111.234  0.00  0.00     0.382 C 
ATOM     23  O   LIG d   1       2.325  86.406 110.548  0.00  0.00    -0.241 OA
ATOM     24  O   LIG d   1       0.958  87.679 111.632  0.00  0.00    -0.241 OA
ENDBRANCH   3  22
TORSDOF 7
ENDMDL
MODEL 3
REMARK VINA RESULT:      -5.6      2.531      4.636
REMARK  7 active torsions:
REMARK  status: ('A' for Active; 'I' for Inactive)
REMARK    1  A    between atoms: C_2  and  C_3 
REMARK    2  A    between atoms: C_3  and  O_6 
REMARK    3  A    between atoms: C_3  and  C_4 
REMARK    4  A    between atoms: C_7  and  O_6 
REMARK    5  A    between atoms: C_9  and  C_10 
REMARK    6  A    between atoms: N_15  and  C_14 
REMARK    7  A    between atoms: N_20  and  C_19 
REMARK       I    between atoms: C_22  and  N_20 
ROOT
ATOM      1  C   LIG d   1       2.320  83.461 113.387  0.00  0.00     0.161 C 
ATOM      2  C   LIG d   1       1.251  82.792 112.768  0.00  0.00     0.016 C 
ATOM      3  C   LIG d   1      -0.073  83.289 112.753  0.00  0.00     0.038 C 
ATOM      4  C   LIG d   1      -0.390  84.570 113.229  0.00  0.00     0.028 C 
ATOM      5  C   LIG d   1       0.561  85.065 114.314  0.00  0.00    -0.047 C 
ATOM      6  C   LIG d   1       2.015  84.912 113.815  0.00  0.00     0.091 C 
ENDROOT
BRANCH   1   7
ATOM      7  O   LIG d   1       3.480  83.423 112.533  0.00  0.00    -0.368 OA
BRANCH   7   8
ATOM      8  C   LIG d   1       3.221  83.328 111.110  0.00  0.00     0.119 C 
BRANCH   8   9
ATOM      9  C   LIG d   1       4.322  82.440 110.498  0.00  0.00     0.028 C 
ATOM     10  C   LIG d   1       3.795  81.057 110.081  0.00  0.00     0.006 C 
ENDBRANCH   8   9
BRANCH   8  11
ATOM     11  C   LIG d   1       3.370  84.689 110.425  0.00  0.00     0.028 C 
ATOM     12  C   LIG d   1       2.018  85.321 110.056  0.00  0.00     0.006 C 
ENDBRANCH   8  11
ENDBRANCH   7   8
ENDBRANCH   1   7
BRANCH   6  13
ATOM     13  N   LIG d   1       3.013  85.295 114.848  0.00  0.00    -0.311 N 
ATOM     14  C   LIG d   1       3.506  86.526 114.970  0.00  0.00     0.210 C 
ATOM     15  C   LIG d   1       4.538  86.702 116.089  0.00  0.00     0.109 C 
ATOM     16  O   LIG d   1       3.164  87.497 114.278  0.00  0.00    -0.276 OA
ATOM     17  H   LIG d   1       3.322  84.576 115.472  0.00  0.00     0.149 HD
ENDBRANCH   6  13
BRANCH   5  18
ATOM     18  N   LIG d   1       0.199  86.462 114.620  0.00  0.00     0.381 N 
ATOM     19  H   LIG d   1      -0.039  86.546 115.588  0.00  0.00    -0.090 HD
ATOM     20  H   LIG d   1      -0.606  86.716 114.074  0.00  0.00    -0.090 HD
ATOM     21  H   LIG d   1       0.960  87.067 114.403  0.00  0.00    -0.090 HD
ENDBRANCH   5  18
BRANCH   3  22
ATOM     22  C   LIG d   1      -1.104  82.483 112.293  0.00  0.00     0.382 C 
ATOM     23  O   LIG d   1      -1.535  82.624 111.123  0.00  0.00    -0.241 OA
ATOM     24  O   LIG d   1      -1.638  81.649 113.048  0.00  0.00    -0.241 OA
ENDBRANCH   3  22
TORSDOF 7
ENDMDL
MODEL 4
REMARK VINA RESULT:      -5.5      2.255      5.294
REMARK  7 active torsions:
REMARK  status: ('A' for Active; 'I' for Inactive)
REMARK    1  A    between atoms: C_2  and  C_3 
REMARK    2  A    between atoms: C_3  and  O_6 
REMARK    3  A    between atoms: C_3  and  C_4 
REMARK    4  A    between atoms: C_7  and  O_6 
REMARK    5  A    between atoms: C_9  and  C_10 
REMARK    6  A    between atoms: N_15  and  C_14 
REMARK    7  A    between atoms: N_20  and  C_19 
REMARK       I    between atoms: C_22  and  N_20 
ROOT
ATOM      1  C   LIG d   1       1.529  84.052 113.356  0.00  0.00     0.161 C 
ATOM      2  C   LIG d   1       2.037  85.356 113.224  0.00  0.00     0.016 C 
ATOM      3  C   LIG d   1       1.641  86.245 112.199  0.00  0.00     0.038 C 
ATOM      4  C   LIG d   1       0.592  85.942 111.318  0.00  0.00     0.028 C 
ATOM      5  C   LIG d   1       0.400  84.445 111.097  0.00  0.00    -0.047 C 
ATOM      6  C   LIG d   1       0.303  83.744 112.471  0.00  0.00     0.091 C 
ENDROOT
BRANCH   1   7
ATOM      7  O   LIG d   1       1.230  83.782 114.739  0.00  0.00    -0.368 OA
BRANCH   7   8
ATOM      8  C   LIG d   1       0.084  84.476 115.291  0.00  0.00     0.119 C 
BRANCH   8   9
ATOM      9  C   LIG d   1       0.613  85.506 116.309  0.00  0.00     0.028 C 
ATOM     10  C   LIG d   1      -0.028  86.892 116.129  0.00  0.00     0.006 C 
ENDBRANCH   8   9
BRANCH   8  11
ATOM     11  C   LIG d   1      -0.806  83.528 116.099  0.00  0.00     0.028 C 
ATOM     12  C   LIG d   1      -2.195  83.334 115.471  0.00  0.00     0.006 C 
ENDBRANCH   8  11
ENDBRANCH   7   8
ENDBRANCH   1   7
BRANCH   6  13
ATOM     13  N   LIG d   1       0.198  82.266 112.347  0.00  0.00    -0.311 N 
ATOM     14  C   LIG d   1      -0.961  81.620 112.236  0.00  0.00     0.210 C 
ATOM     15  C   LIG d   1      -0.845  80.096 112.140  0.00  0.00     0.109 C 
ATOM     16  O   LIG d   1      -2.073  82.167 112.175  0.00  0.00    -0.276 OA
ATOM     17  H   LIG d   1       1.054  81.746 112.356  0.00  0.00     0.149 HD
ENDBRANCH   6  13
BRANCH   5  18
ATOM     18  N   LIG d   1      -0.809  84.268 110.271  0.00  0.00     0.381 N 
ATOM     19  H   LIG d   1      -1.085  83.306 110.276  0.00  0.00    -0.090 HD
ATOM     20  H   LIG d   1      -0.597  84.531 109.325  0.00  0.00    -0.090 HD
ATOM     21  H   LIG d   1      -1.549  84.835 110.623  0.00  0.00    -0.090 HD
ENDBRANCH   5  18
BRANCH   3  22
ATOM     22  C   LIG d   1       2.326  87.438 112.022  0.00  0.00     0.382 C 
ATOM     23  O   LIG d   1       1.696  88.522 111.986  0.00  0.00    -0.241 OA
ATOM     24  O   LIG d   1       3.560  87.439 111.853  0.00  0.00    -0.241 OA
ENDBRANCH   3  22
TORSDOF 7
ENDMDL
MODEL 5
REMARK VINA RESULT:      -5.2      3.303      6.998
REMARK  7 active torsions:
REMARK  status: ('A' for Active; 'I' for Inactive)
REMARK    1  A    between atoms: C_2  and  C_3 
REMARK    2  A    between atoms: C_3  and  O_6 
REMARK    3  A    between atoms: C_3  and  C_4 
REMARK    4  A    between atoms: C_7  and  O_6 
REMARK    5  A    between atoms: C_9  and  C_10 
REMARK    6  A    between atoms: N_15  and  C_14 
REMARK    7  A    between atoms: N_20  and  C_19 
REMARK       I    between atoms: C_22  and  N_20 
ROOT
ATOM      1  C   LIG d   1       1.538  86.833 112.788  0.00  0.00     0.161 C 
ATOM      2  C   LIG d   1       2.617  87.703 112.559  0.00  0.00     0.016 C 
ATOM      3  C   LIG d   1       3.581  88.023 113.542  0.00  0.00     0.038 C 
ATOM      4  C   LIG d   1       3.618  87.373 114.784  0.00  0.00     0.028 C 
ATOM      5  C   LIG d   1       2.255  86.862 115.241  0.00  0.00    -0.047 C 
ATOM      6  C   LIG d   1       1.625  86.028 114.102  0.00  0.00     0.091 C 
ENDROOT
BRANCH   1   7
ATOM      7  O   LIG d   1       1.380  85.943 111.665  0.00  0.00    -0.368 OA
BRANCH   7   8
ATOM      8  C   LIG d   1       2.161  84.723 111.704  0.00  0.00     0.119 C 
BRANCH   8   9
ATOM      9  C   LIG d   1       3.161  84.776 110.533  0.00  0.00     0.028 C 
ATOM     10  C   LIG d   1       3.929  83.455 110.357  0.00  0.00     0.006 C 
ENDBRANCH   8   9
BRANCH   8  11
ATOM     11  C   LIG d   1       1.287  83.494 111.437  0.00  0.00     0.028 C 
ATOM     12  C   LIG d   1      -0.194  83.848 111.234  0.00  0.00     0.006 C 
ENDBRANCH   8  11
ENDBRANCH   7   8
ENDBRANCH   1   7
BRANCH   6  13
ATOM     13  N   LIG d   1       0.253  85.561 114.434  0.00  0.00    -0.311 N 
ATOM     14  C   LIG d   1      -0.008  84.356 114.939  0.00  0.00     0.210 C 
ATOM     15  C   LIG d   1      -1.492  84.069 115.190  0.00  0.00     0.109 C 
ATOM     16  O   LIG d   1       0.850  83.511 115.233  0.00  0.00    -0.276 OA
ATOM     17  H   LIG d   1      -0.500  86.196 114.257  0.00  0.00     0.149 HD
ENDBRANCH   6  13
BRANCH   5  18
ATOM     18  N   LIG d   1       2.462  86.088 116.479  0.00  0.00     0.381 N 
ATOM     19  H   LIG d   1       1.937  86.497 117.226  0.00  0.00    -0.090 HD
ATOM     20  H   LIG d   1       3.436  86.119 116.724  0.00  0.00    -0.090 HD
ATOM     21  H   LIG d   1       2.177  85.143 116.342  0.00  0.00    -0.090 HD
ENDBRANCH   5  18
BRANCH   3  22
ATOM     22  C   LIG d   1       4.500  89.033 113.300  0.00  0.00     0.382 C 
ATOM     23  O   LIG d   1       5.684  88.746 113.003  0.00  0.00    -0.241 OA
ATOM     24  O   LIG d   1       4.170  90.229 113.418  0.00  0.00    -0.241 OA
ENDBRANCH   3  22
TORSDOF 7
ENDMDL
MODEL 6
REMARK VINA RESULT:      -5.2     10.212     11.586
REMARK  7 active torsions:
REMARK  status: ('A' for Active; 'I' for Inactive)
REMARK    1  A    between atoms: C_2  and  C_3 
REMARK    2  A    between atoms: C_3  and  O_6 
REMARK    3  A    between atoms: C_3  and  C_4 
REMARK    4  A    between atoms: C_7  and  O_6 
REMARK    5  A    between atoms: C_9  and  C_10 
REMARK    6  A    between atoms: N_15  and  C_14 
REMARK    7  A    between atoms: N_20  and  C_19 
REMARK       I    between atoms: C_22  and  N_20 
ROOT
ATOM      1  C   LIG d   1      10.304  78.970 115.292  0.00  0.00     0.161 C 
ATOM      2  C   LIG d   1      10.018  77.709 114.742  0.00  0.00     0.016 C 
ATOM      3  C   LIG d   1       8.958  76.888 115.188  0.00  0.00     0.038 C 
ATOM      4  C   LIG d   1       8.011  77.340 116.119  0.00  0.00     0.028 C 
ATOM      5  C   LIG d   1       8.553  78.405 117.066  0.00  0.00    -0.047 C 
ATOM      6  C   LIG d   1       9.215  79.527 116.233  0.00  0.00     0.091 C 
ENDROOT
BRANCH   1   7
ATOM      7  O   LIG d   1      10.584  79.911 114.237  0.00  0.00    -0.368 OA
BRANCH   7   8
ATOM      8  C   LIG d   1      11.804  79.686 113.489  0.00  0.00     0.119 C 
BRANCH   8   9
ATOM      9  C   LIG d   1      12.938  80.432 114.218  0.00  0.00     0.028 C 
ATOM     10  C   LIG d   1      14.286  80.307 113.488  0.00  0.00     0.006 C 
ENDBRANCH   8   9
BRANCH   8  11
ATOM     11  C   LIG d   1      11.730  80.322 112.097  0.00  0.00     0.028 C 
ATOM     12  C   LIG d   1      10.881  81.603 112.072  0.00  0.00     0.006 C 
ENDBRANCH   8  11
ENDBRANCH   7   8
ENDBRANCH   1   7
BRANCH   6  13
ATOM     13  N   LIG d   1       9.846  80.569 117.084  0.00  0.00    -0.311 N 
ATOM     14  C   LIG d   1       9.543  81.863 117.004  0.00  0.00     0.210 C 
ATOM     15  C   LIG d   1      10.325  82.771 117.959  0.00  0.00     0.109 C 
ATOM     16  O   LIG d   1       8.678  82.342 116.255  0.00  0.00    -0.276 OA
ATOM     17  H   LIG d   1      10.536  80.264 117.742  0.00  0.00     0.149 HD
ENDBRANCH   6  13
BRANCH   5  18
ATOM     18  N   LIG d   1       7.428  78.884 117.890  0.00  0.00     0.381 N 
ATOM     19  H   LIG d   1       7.542  78.573 118.834  0.00  0.00    -0.090 HD
ATOM     20  H   LIG d   1       6.574  78.495 117.531  0.00  0.00    -0.090 HD
ATOM     21  H   LIG d   1       7.385  79.879 117.863  0.00  0.00    -0.090 HD
ENDBRANCH   5  18
BRANCH   3  22
ATOM     22  C   LIG d   1       8.860  75.583 114.730  0.00  0.00     0.382 C 
ATOM     23  O   LIG d   1       9.816  74.787 114.893  0.00  0.00    -0.241 OA
ATOM     24  O   LIG d   1       7.845  75.203 114.115  0.00  0.00    -0.241 OA
ENDBRANCH   3  22
TORSDOF 7
ENDMDL
MODEL 7
REMARK VINA RESULT:      -4.8      2.463      5.499
REMARK  7 active torsions:
REMARK  status: ('A' for Active; 'I' for Inactive)
REMARK    1  A    between atoms: C_2  and  C_3 
REMARK    2  A    between atoms: C_3  and  O_6 
REMARK    3  A    between atoms: C_3  and  C_4 
REMARK    4  A    between atoms: C_7  and  O_6 
REMARK    5  A    between atoms: C_9  and  C_10 
REMARK    6  A    between atoms: N_15  and  C_14 
REMARK    7  A    between atoms: N_20  and  C_19 
REMARK       I    between atoms: C_22  and  N_20 
ROOT
ATOM      1  C   LIG d   1      -0.353  83.817 114.229  0.00  0.00     0.161 C 
ATOM      2  C   LIG d   1      -0.316  84.863 115.166  0.00  0.00     0.016 C 
ATOM      3  C   LIG d   1       0.430  86.050 114.979  0.00  0.00     0.038 C 
ATOM      4  C   LIG d   1       1.074  86.337 113.766  0.00  0.00     0.028 C 
ATOM      5  C   LIG d   1       1.480  85.091 112.986  0.00  0.00    -0.047 C 
ATOM      6  C   LIG d   1       0.253  84.161 112.852  0.00  0.00     0.091 C 
ENDROOT
BRANCH   1   7
ATOM      7  O   LIG d   1      -1.706  83.345 114.077  0.00  0.00    -0.368 OA
BRANCH   7   8
ATOM      8  C   LIG d   1      -1.995  82.044 114.645  0.00  0.00     0.119 C 
BRANCH   8   9
ATOM      9  C   LIG d   1      -2.724  81.220 113.567  0.00  0.00     0.028 C 
ATOM     10  C   LIG d   1      -2.170  79.790 113.445  0.00  0.00     0.006 C 
ENDBRANCH   8   9
BRANCH   8  11
ATOM     11  C   LIG d   1      -2.983  82.152 115.810  0.00  0.00     0.028 C 
ATOM     12  C   LIG d   1      -2.286  82.204 117.179  0.00  0.00     0.006 C 
ENDBRANCH   8  11
ENDBRANCH   7   8
ENDBRANCH   1   7
BRANCH   6  13
ATOM     13  N   LIG d   1       0.585  82.880 112.175  0.00  0.00    -0.311 N 
ATOM     14  C   LIG d   1      -0.158  82.351 111.204  0.00  0.00     0.210 C 
ATOM     15  C   LIG d   1       0.352  81.014 110.656  0.00  0.00     0.109 C 
ATOM     16  O   LIG d   1      -1.172  82.877 110.722  0.00  0.00    -0.276 OA
ATOM     17  H   LIG d   1       1.409  82.401 112.482  0.00  0.00     0.149 HD
ENDBRANCH   6  13
BRANCH   5  18
ATOM     18  N   LIG d   1       2.014  85.535 111.685  0.00  0.00     0.381 N 
ATOM     19  H   LIG d   1       2.400  86.454 111.772  0.00  0.00    -0.090 HD
ATOM     20  H   LIG d   1       1.261  85.572 111.020  0.00  0.00    -0.090 HD
ATOM     21  H   LIG d   1       2.715  84.901 111.369  0.00  0.00    -0.090 HD
ENDBRANCH   5  18
BRANCH   3  22
ATOM     22  C   LIG d   1       0.570  86.946 116.028  0.00  0.00     0.382 C 
ATOM     23  O   LIG d   1      -0.398  87.666 116.371  0.00  0.00    -0.241 OA
ATOM     24  O   LIG d   1       1.666  87.076 116.606  0.00  0.00    -0.241 OA
ENDBRANCH   3  22
TORSDOF 7
ENDMDL
MODEL 8
REMARK VINA RESULT:      -4.8      5.012      8.453
REMARK  7 active torsions:
REMARK  status: ('A' for Active; 'I' for Inactive)
REMARK    1  A    between atoms: C_2  and  C_3 
REMARK    2  A    between atoms: C_3  and  O_6 
REMARK    3  A    between atoms: C_3  and  C_4 
REMARK    4  A    between atoms: C_7  and  O_6 
REMARK    5  A    between atoms: C_9  and  C_10 
REMARK    6  A    between atoms: N_15  and  C_14 
REMARK    7  A    between atoms: N_20  and  C_19 
REMARK       I    between atoms: C_22  and  N_20 
ROOT
ATOM      1  C   LIG d   1      -2.817  78.031 115.058  0.00  0.00     0.161 C 
ATOM      2  C   LIG d   1      -3.072  79.166 114.270  0.00  0.00     0.016 C 
ATOM      3  C   LIG d   1      -2.212  80.287 114.220  0.00  0.00     0.038 C 
ATOM      4  C   LIG d   1      -0.954  80.286 114.842  0.00  0.00     0.028 C 
ATOM      5  C   LIG d   1      -0.881  79.367 116.057  0.00  0.00    -0.047 C 
ATOM      6  C   LIG d   1      -1.396  77.965 115.657  0.00  0.00     0.091 C 
ENDROOT
BRANCH   1   7
ATOM      7  O   LIG d   1      -3.097  76.838 114.301  0.00  0.00    -0.368 OA
BRANCH   7   8
ATOM      8  C   LIG d   1      -4.137  75.978 114.828  0.00  0.00     0.119 C 
BRANCH   8   9
ATOM      9  C   LIG d   1      -5.107  75.662 113.673  0.00  0.00     0.028 C 
ATOM     10  C   LIG d   1      -5.236  74.152 113.410  0.00  0.00     0.006 C 
ENDBRANCH   8   9
BRANCH   8  11
ATOM     11  C   LIG d   1      -4.981  76.704 115.879  0.00  0.00     0.028 C 
ATOM     12  C   LIG d   1      -6.472  76.338 115.803  0.00  0.00     0.006 C 
ENDBRANCH   8  11
ENDBRANCH   7   8
ENDBRANCH   1   7
BRANCH   6  13
ATOM     13  N   LIG d   1      -1.437  77.027 116.809  0.00  0.00    -0.311 N 
ATOM     14  C   LIG d   1      -0.463  76.161 117.083  0.00  0.00     0.210 C 
ATOM     15  C   LIG d   1      -0.714  75.271 118.305  0.00  0.00     0.109 C 
ATOM     16  O   LIG d   1       0.600  76.067 116.451  0.00  0.00    -0.276 OA
ATOM     17  H   LIG d   1      -2.249  77.057 117.393  0.00  0.00     0.149 HD
ENDBRANCH   6  13
BRANCH   5  18
ATOM     18  N   LIG d   1       0.519  79.356 116.523  0.00  0.00     0.381 N 
ATOM     19  H   LIG d   1       1.106  79.797 115.844  0.00  0.00    -0.090 HD
ATOM     20  H   LIG d   1       0.819  78.403 116.629  0.00  0.00    -0.090 HD
ATOM     21  H   LIG d   1       0.591  79.833 117.395  0.00  0.00    -0.090 HD
ENDBRANCH   5  18
BRANCH   3  22
ATOM     22  C   LIG d   1      -2.625  81.442 113.574  0.00  0.00     0.382 C 
ATOM     23  O   LIG d   1      -3.103  82.395 114.236  0.00  0.00    -0.241 OA
ATOM     24  O   LIG d   1      -2.568  81.526 112.332  0.00  0.00    -0.241 OA
ENDBRANCH   3  22
TORSDOF 7
ENDMDL
MODEL 9
REMARK VINA RESULT:      -4.7      5.783      7.973
REMARK  7 active torsions:
REMARK  status: ('A' for Active; 'I' for Inactive)
REMARK    1  A    between atoms: C_2  and  C_3 
REMARK    2  A    between atoms: C_3  and  O_6 
REMARK    3  A    between atoms: C_3  and  C_4 
REMARK    4  A    between atoms: C_7  and  O_6 
REMARK    5  A    between atoms: C_9  and  C_10 
REMARK    6  A    between atoms: N_15  and  C_14 
REMARK    7  A    between atoms: N_20  and  C_19 
REMARK       I    between atoms: C_22  and  N_20 
ROOT
ATOM      1  C   LIG d   1       3.832  88.084 115.940  0.00  0.00     0.161 C 
ATOM      2  C   LIG d   1       2.851  87.713 115.006  0.00  0.00     0.016 C 
ATOM      3  C   LIG d   1       3.018  87.845 113.608  0.00  0.00     0.038 C 
ATOM      4  C   LIG d   1       4.245  88.218 113.040  0.00  0.00     0.028 C 
ATOM      5  C   LIG d   1       5.100  89.083 113.960  0.00  0.00    -0.047 C 
ATOM      6  C   LIG d   1       5.218  88.388 115.336  0.00  0.00     0.091 C 
ENDROOT
BRANCH   1   7
ATOM      7  O   LIG d   1       3.941  87.071 116.961  0.00  0.00    -0.368 OA
BRANCH   7   8
ATOM      8  C   LIG d   1       4.831  85.966 116.669  0.00  0.00     0.119 C 
BRANCH   8   9
ATOM      9  C   LIG d   1       3.960  84.711 116.466  0.00  0.00     0.028 C 
ATOM     10  C   LIG d   1       3.883  84.283 114.991  0.00  0.00     0.006 C 
ENDBRANCH   8   9
BRANCH   8  11
ATOM     11  C   LIG d   1       5.732  85.645 117.865  0.00  0.00     0.028 C 
ATOM     12  C   LIG d   1       5.991  84.139 118.029  0.00  0.00     0.006 C 
ENDBRANCH   8  11
ENDBRANCH   7   8
ENDBRANCH   1   7
BRANCH   6  13
ATOM     13  N   LIG d   1       5.969  89.208 116.323  0.00  0.00    -0.311 N 
ATOM     14  C   LIG d   1       7.195  88.905 116.746  0.00  0.00     0.210 C 
ATOM     15  C   LIG d   1       7.779  89.872 117.780  0.00  0.00     0.109 C 
ATOM     16  O   LIG d   1       7.866  87.944 116.340  0.00  0.00    -0.276 OA
ATOM     17  H   LIG d   1       5.511  90.023 116.681  0.00  0.00     0.149 HD
ENDBRANCH   6  13
BRANCH   5  18
ATOM     18  N   LIG d   1       6.404  89.283 113.300  0.00  0.00     0.381 N 
ATOM     19  H   LIG d   1       6.414  90.167 112.831  0.00  0.00    -0.090 HD
ATOM     20  H   LIG d   1       6.535  88.561 112.613  0.00  0.00    -0.090 HD
ATOM     21  H   LIG d   1       7.137  89.248 113.974  0.00  0.00    -0.090 HD
ENDBRANCH   5  18
BRANCH   3  22
ATOM     22  C   LIG d   1       1.937  87.641 112.764  0.00  0.00     0.382 C 
ATOM     23  O   LIG d   1       1.817  88.329 111.722  0.00  0.00    -0.241 OA
ATOM     24  O   LIG d   1       1.057  86.808 113.055  0.00  0.00    -0.241 OA
ENDBRANCH   3  22
TORSDOF 7
ENDMDL
