MODEL 1
REMARK VINA RESULT:      -5.7      0.000      0.000
REMARK  7 active torsions:
REMARK  status: ('A' for Active; 'I' for Inactive)
REMARK    1  A    between atoms: C_2  and  C_3 
REMARK    2  A    between atoms: C_3  and  O_6 
REMARK    3  A    between atoms: C_3  and  C_4 
REMARK    4  A    between atoms: C_7  and  O_6 
REMARK    5  A    between atoms: C_9  and  C_10 
REMARK    6  A    between atoms: N_15  and  C_14 
REMARK    7  A    between atoms: N_20  and  C_19 
REMARK       I    between atoms: C_22  and  N_20 
ROOT
ATOM      1  C   LIG d   1       2.278  83.711 113.424  0.00  0.00     0.161 C 
ATOM      2  C   LIG d   1       1.295  82.811 112.980  0.00  0.00     0.016 C 
ATOM      3  C   LIG d   1      -0.093  83.058 113.089  0.00  0.00     0.038 C 
ATOM      4  C   LIG d   1      -0.594  84.297 113.517  0.00  0.00     0.028 C 
ATOM      5  C   LIG d   1       0.354  85.045 114.448  0.00  0.00    -0.047 C 
ATOM      6  C   LIG d   1       1.752  85.114 113.791  0.00  0.00     0.091 C 
ENDROOT
BRANCH   1   7
ATOM      7  O   LIG d   1       3.329  83.811 112.443  0.00  0.00    -0.368 OA
BRANCH   7   8
ATOM      8  C   LIG d   1       2.912  83.768 111.056  0.00  0.00     0.119 C 
BRANCH   8   9
ATOM      9  C   LIG d   1       3.977  82.973 110.277  0.00  0.00     0.028 C 
ATOM     10  C   LIG d   1       3.799  81.452 110.426  0.00  0.00     0.006 C 
ENDBRANCH   8   9
BRANCH   8  11
ATOM     11  C   LIG d   1       2.912  85.166 110.431  0.00  0.00     0.028 C 
ATOM     12  C   LIG d   1       1.503  85.651 110.055  0.00  0.00     0.006 C 
ENDBRANCH   8  11
ENDBRANCH   7   8
ENDBRANCH   1   7
BRANCH   6  13
ATOM     13  N   LIG d   1       2.761  85.757 114.673  0.00  0.00    -0.311 N 
ATOM     14  C   LIG d   1       3.056  87.055 114.626  0.00  0.00     0.210 C 
ATOM     15  C   LIG d   1       4.140  87.508 115.608  0.00  0.00     0.109 C 
ATOM     16  O   LIG d   1       2.499  87.880 113.886  0.00  0.00    -0.276 OA
ATOM     17  H   LIG d   1       3.239  85.166 115.325  0.00  0.00     0.149 HD
ENDBRANCH   6  13
BRANCH   5  18
ATOM     18  N   LIG d   1      -0.230  86.375 114.705  0.00  0.00     0.381 N 
ATOM     19  H   LIG d   1       0.338  87.082 114.283  0.00  0.00    -0.090 HD
ATOM     20  H   LIG d   1      -0.250  86.536 115.696  0.00  0.00    -0.090 HD
ATOM     21  H   LIG d   1      -1.155  86.418 114.335  0.00  0.00    -0.090 HD
ENDBRANCH   5  18
BRANCH   3  22
ATOM     22  C   LIG d   1      -0.996  82.045 112.807  0.00  0.00     0.382 C 
ATOM     23  O   LIG d   1      -0.848  80.911 113.324  0.00  0.00    -0.241 OA
ATOM     24  O   LIG d   1      -1.931  82.237 112.007  0.00  0.00    -0.241 OA
ENDBRANCH   3  22
TORSDOF 7
ENDMDL
MODEL 2
REMARK VINA RESULT:      -5.5      2.346      4.374
REMARK  7 active torsions:
REMARK  status: ('A' for Active; 'I' for Inactive)
REMARK    1  A    between atoms: C_2  and  C_3 
REMARK    2  A    between atoms: C_3  and  O_6 
REMARK    3  A    between atoms: C_3  and  C_4 
REMARK    4  A    between atoms: C_7  and  O_6 
REMARK    5  A    between atoms: C_9  and  C_10 
REMARK    6  A    between atoms: N_15  and  C_14 
REMARK    7  A    between atoms: N_20  and  C_19 
REMARK       I    between atoms: C_22  and  N_20 
ROOT
ATOM      1  C   LIG d   1      -0.296  83.795 112.968  0.00  0.00     0.161 C 
ATOM      2  C   LIG d   1      -1.309  82.847 113.184  0.00  0.00     0.016 C 
ATOM      3  C   LIG d   1      -1.436  81.657 112.431  0.00  0.00     0.038 C 
ATOM      4  C   LIG d   1      -0.461  81.259 111.504  0.00  0.00     0.028 C 
ATOM      5  C   LIG d   1       0.309  82.426 110.896  0.00  0.00    -0.047 C 
ATOM      6  C   LIG d   1       0.841  83.325 112.036  0.00  0.00     0.091 C 
ENDROOT
BRANCH   1   7
ATOM      7  O   LIG d   1       0.241  84.233 114.232  0.00  0.00    -0.368 OA
BRANCH   7   8
ATOM      8  C   LIG d   1       0.104  85.645 114.527  0.00  0.00     0.119 C 
BRANCH   8   9
ATOM      9  C   LIG d   1       1.478  86.154 115.002  0.00  0.00     0.028 C 
ATOM     10  C   LIG d   1       2.409  85.011 115.439  0.00  0.00     0.006 C 
ENDBRANCH   8   9
BRANCH   8  11
ATOM     11  C   LIG d   1      -0.845  85.877 115.707  0.00  0.00     0.028 C 
ATOM     12  C   LIG d   1      -2.310  86.033 115.272  0.00  0.00     0.006 C 
ENDBRANCH   8  11
ENDBRANCH   7   8
ENDBRANCH   1   7
BRANCH   6  13
ATOM     13  N   LIG d   1       1.535  84.536 111.526  0.00  0.00    -0.311 N 
ATOM     14  C   LIG d   1       2.832  84.771 111.714  0.00  0.00     0.210 C 
ATOM     15  C   LIG d   1       3.342  86.089 111.123  0.00  0.00     0.109 C 
ATOM     16  O   LIG d   1       3.616  83.999 112.286  0.00  0.00    -0.276 OA
ATOM     17  H   LIG d   1       0.981  85.201 111.024  0.00  0.00     0.149 HD
ENDBRANCH   6  13
BRANCH   5  18
ATOM     18  N   LIG d   1       1.382  81.863 110.055  0.00  0.00     0.381 N 
ATOM     19  H   LIG d   1       1.161  81.997 109.089  0.00  0.00    -0.090 HD
ATOM     20  H   LIG d   1       1.447  80.875 110.230  0.00  0.00    -0.090 HD
ATOM     21  H   LIG d   1       2.250  82.303 110.269  0.00  0.00    -0.090 HD
ENDBRANCH   5  18
BRANCH   3  22
ATOM     22  C   LIG d   1      -2.569  80.870 112.574  0.00  0.00     0.382 C 
ATOM     23  O   LIG d   1      -2.460  79.622 112.650  0.00  0.00    -0.241 OA
ATOM     24  O   LIG d   1      -3.701  81.389 112.584  0.00  0.00    -0.241 OA
ENDBRANCH   3  22
TORSDOF 7
ENDMDL
MODEL 3
REMARK VINA RESULT:      -5.2      2.589      4.963
REMARK  7 active torsions:
REMARK  status: ('A' for Active; 'I' for Inactive)
REMARK    1  A    between atoms: C_2  and  C_3 
REMARK    2  A    between atoms: C_3  and  O_6 
REMARK    3  A    between atoms: C_3  and  C_4 
REMARK    4  A    between atoms: C_7  and  O_6 
REMARK    5  A    between atoms: C_9  and  C_10 
REMARK    6  A    between atoms: N_15  and  C_14 
REMARK    7  A    between atoms: N_20  and  C_19 
REMARK       I    between atoms: C_22  and  N_20 
ROOT
ATOM      1  C   LIG d   1      -0.238  83.464 112.078  0.00  0.00     0.161 C 
ATOM      2  C   LIG d   1      -1.358  82.731 112.505  0.00  0.00     0.016 C 
ATOM      3  C   LIG d   1      -1.519  81.346 112.267  0.00  0.00     0.038 C 
ATOM      4  C   LIG d   1      -0.494  80.565 111.713  0.00  0.00     0.028 C 
ATOM      5  C   LIG d   1       0.449  81.354 110.811  0.00  0.00    -0.047 C 
ATOM      6  C   LIG d   1       0.941  82.607 111.571  0.00  0.00     0.091 C 
ENDROOT
BRANCH   1   7
ATOM      7  O   LIG d   1       0.199  84.345 113.132  0.00  0.00    -0.368 OA
BRANCH   7   8
ATOM      8  C   LIG d   1      -0.562  84.293 114.363  0.00  0.00     0.119 C 
BRANCH   8   9
ATOM      9  C   LIG d   1      -1.201  85.680 114.571  0.00  0.00     0.028 C 
ATOM     10  C   LIG d   1      -1.391  86.023 116.058  0.00  0.00     0.006 C 
ENDBRANCH   8   9
BRANCH   8  11
ATOM     11  C   LIG d   1       0.351  84.083 115.575  0.00  0.00     0.028 C 
ATOM     12  C   LIG d   1       1.842  84.207 115.225  0.00  0.00     0.006 C 
ENDBRANCH   8  11
ENDBRANCH   7   8
ENDBRANCH   1   7
BRANCH   6  13
ATOM     13  N   LIG d   1       1.801  83.479 110.730  0.00  0.00    -0.311 N 
ATOM     14  C   LIG d   1       3.038  83.838 111.072  0.00  0.00     0.210 C 
ATOM     15  C   LIG d   1       3.744  84.758 110.072  0.00  0.00     0.109 C 
ATOM     16  O   LIG d   1       3.628  83.456 112.094  0.00  0.00    -0.276 OA
ATOM     17  H   LIG d   1       1.412  83.810 109.869  0.00  0.00     0.149 HD
ENDBRANCH   6  13
BRANCH   5  18
ATOM     18  N   LIG d   1       1.546  80.452 110.413  0.00  0.00     0.381 N 
ATOM     19  H   LIG d   1       1.445  80.199 109.451  0.00  0.00    -0.090 HD
ATOM     20  H   LIG d   1       1.494  79.614 110.967  0.00  0.00    -0.090 HD
ATOM     21  H   LIG d   1       2.424  80.899 110.556  0.00  0.00    -0.090 HD
ENDBRANCH   5  18
BRANCH   3  22
ATOM     22  C   LIG d   1      -2.733  80.737 112.547  0.00  0.00     0.382 C 
ATOM     23  O   LIG d   1      -3.766  81.435 112.689  0.00  0.00    -0.241 OA
ATOM     24  O   LIG d   1      -2.799  79.503 112.703  0.00  0.00    -0.241 OA
ENDBRANCH   3  22
TORSDOF 7
ENDMDL
MODEL 4
REMARK VINA RESULT:      -5.0     24.561     27.411
REMARK  7 active torsions:
REMARK  status: ('A' for Active; 'I' for Inactive)
REMARK    1  A    between atoms: C_2  and  C_3 
REMARK    2  A    between atoms: C_3  and  O_6 
REMARK    3  A    between atoms: C_3  and  C_4 
REMARK    4  A    between atoms: C_7  and  O_6 
REMARK    5  A    between atoms: C_9  and  C_10 
REMARK    6  A    between atoms: N_15  and  C_14 
REMARK    7  A    between atoms: N_20  and  C_19 
REMARK       I    between atoms: C_22  and  N_20 
ROOT
ATOM      1  C   LIG d   1     -25.582  85.545 113.732  0.00  0.00     0.161 C 
ATOM      2  C   LIG d   1     -24.507  86.435 113.888  0.00  0.00     0.016 C 
ATOM      3  C   LIG d   1     -23.152  86.036 113.834  0.00  0.00     0.038 C 
ATOM      4  C   LIG d   1     -22.776  84.736 113.466  0.00  0.00     0.028 C 
ATOM      5  C   LIG d   1     -23.832  83.685 113.794  0.00  0.00    -0.047 C 
ATOM      6  C   LIG d   1     -25.191  84.143 113.219  0.00  0.00     0.091 C 
ENDROOT
BRANCH   1   7
ATOM      7  O   LIG d   1     -26.581  86.131 112.874  0.00  0.00    -0.368 OA
BRANCH   7   8
ATOM      8  C   LIG d   1     -26.556  87.575 112.760  0.00  0.00     0.119 C 
BRANCH   8   9
ATOM      9  C   LIG d   1     -27.775  88.121 113.529  0.00  0.00     0.028 C 
ATOM     10  C   LIG d   1     -27.392  88.706 114.899  0.00  0.00     0.006 C 
ENDBRANCH   8   9
BRANCH   8  11
ATOM     11  C   LIG d   1     -26.757  88.024 111.310  0.00  0.00     0.028 C 
ATOM     12  C   LIG d   1     -26.998  89.536 111.182  0.00  0.00     0.006 C 
ENDBRANCH   8  11
ENDBRANCH   7   8
ENDBRANCH   1   7
BRANCH   6  13
ATOM     13  N   LIG d   1     -26.297  83.212 113.568  0.00  0.00    -0.311 N 
ATOM     14  C   LIG d   1     -26.699  82.222 112.773  0.00  0.00     0.210 C 
ATOM     15  C   LIG d   1     -27.868  81.393 113.315  0.00  0.00     0.109 C 
ATOM     16  O   LIG d   1     -26.178  81.931 111.686  0.00  0.00    -0.276 OA
ATOM     17  H   LIG d   1     -26.754  83.357 114.446  0.00  0.00     0.149 HD
ENDBRANCH   6  13
BRANCH   5  18
ATOM     18  N   LIG d   1     -23.370  82.400 113.234  0.00  0.00     0.381 N 
ATOM     19  H   LIG d   1     -23.953  81.658 113.565  0.00  0.00    -0.090 HD
ATOM     20  H   LIG d   1     -22.431  82.228 113.548  0.00  0.00    -0.090 HD
ATOM     21  H   LIG d   1     -23.395  82.434 112.239  0.00  0.00    -0.090 HD
ENDBRANCH   5  18
BRANCH   3  22
ATOM     22  C   LIG d   1     -22.157  86.934 114.189  0.00  0.00     0.382 C 
ATOM     23  O   LIG d   1     -22.374  87.792 115.078  0.00  0.00    -0.241 OA
ATOM     24  O   LIG d   1     -21.059  86.925 113.601  0.00  0.00    -0.241 OA
ENDBRANCH   3  22
TORSDOF 7
ENDMDL
MODEL 5
REMARK VINA RESULT:      -4.9     10.282     12.436
REMARK  7 active torsions:
REMARK  status: ('A' for Active; 'I' for Inactive)
REMARK    1  A    between atoms: C_2  and  C_3 
REMARK    2  A    between atoms: C_3  and  O_6 
REMARK    3  A    between atoms: C_3  and  C_4 
REMARK    4  A    between atoms: C_7  and  O_6 
REMARK    5  A    between atoms: C_9  and  C_10 
REMARK    6  A    between atoms: N_15  and  C_14 
REMARK    7  A    between atoms: N_20  and  C_19 
REMARK       I    between atoms: C_22  and  N_20 
ROOT
ATOM      1  C   LIG d   1      11.349  79.341 114.099  0.00  0.00     0.161 C 
ATOM      2  C   LIG d   1      10.080  79.670 114.602  0.00  0.00     0.016 C 
ATOM      3  C   LIG d   1       9.184  78.716 115.136  0.00  0.00     0.038 C 
ATOM      4  C   LIG d   1       9.559  77.380 115.343  0.00  0.00     0.028 C 
ATOM      5  C   LIG d   1      10.646  76.902 114.387  0.00  0.00    -0.047 C 
ATOM      6  C   LIG d   1      11.820  77.907 114.418  0.00  0.00     0.091 C 
ENDROOT
BRANCH   1   7
ATOM      7  O   LIG d   1      12.321  80.302 114.559  0.00  0.00    -0.368 OA
BRANCH   7   8
ATOM      8  C   LIG d   1      12.930  80.026 115.844  0.00  0.00     0.119 C 
BRANCH   8   9
ATOM      9  C   LIG d   1      12.483  81.137 116.815  0.00  0.00     0.028 C 
ATOM     10  C   LIG d   1      11.498  80.624 117.879  0.00  0.00     0.006 C 
ENDBRANCH   8   9
BRANCH   8  11
ATOM     11  C   LIG d   1      14.456  80.139 115.773  0.00  0.00     0.028 C 
ATOM     12  C   LIG d   1      14.970  80.380 114.345  0.00  0.00     0.006 C 
ENDBRANCH   8  11
ENDBRANCH   7   8
ENDBRANCH   1   7
BRANCH   6  13
ATOM     13  N   LIG d   1      12.891  77.559 113.448  0.00  0.00    -0.311 N 
ATOM     14  C   LIG d   1      14.004  76.911 113.786  0.00  0.00     0.210 C 
ATOM     15  C   LIG d   1      14.987  76.670 112.635  0.00  0.00     0.109 C 
ATOM     16  O   LIG d   1      14.257  76.484 114.923  0.00  0.00    -0.276 OA
ATOM     17  H   LIG d   1      12.753  77.840 112.496  0.00  0.00     0.149 HD
ENDBRANCH   6  13
BRANCH   5  18
ATOM     18  N   LIG d   1      11.039  75.542 114.802  0.00  0.00     0.381 N 
ATOM     19  H   LIG d   1      11.839  75.245 114.280  0.00  0.00    -0.090 HD
ATOM     20  H   LIG d   1      10.282  74.911 114.605  0.00  0.00    -0.090 HD
ATOM     21  H   LIG d   1      11.246  75.529 115.777  0.00  0.00    -0.090 HD
ENDBRANCH   5  18
BRANCH   3  22
ATOM     22  C   LIG d   1       7.881  79.087 115.433  0.00  0.00     0.382 C 
ATOM     23  O   LIG d   1       7.656  79.892 116.369  0.00  0.00    -0.241 OA
ATOM     24  O   LIG d   1       6.925  78.593 114.806  0.00  0.00    -0.241 OA
ENDBRANCH   3  22
TORSDOF 7
ENDMDL
MODEL 6
REMARK VINA RESULT:      -4.9      2.777      5.943
REMARK  7 active torsions:
REMARK  status: ('A' for Active; 'I' for Inactive)
REMARK    1  A    between atoms: C_2  and  C_3 
REMARK    2  A    between atoms: C_3  and  O_6 
REMARK    3  A    between atoms: C_3  and  C_4 
REMARK    4  A    between atoms: C_7  and  O_6 
REMARK    5  A    between atoms: C_9  and  C_10 
REMARK    6  A    between atoms: N_15  and  C_14 
REMARK    7  A    between atoms: N_20  and  C_19 
REMARK       I    between atoms: C_22  and  N_20 
ROOT
ATOM      1  C   LIG d   1       1.196  83.299 113.375  0.00  0.00     0.161 C 
ATOM      2  C   LIG d   1       1.888  84.504 113.166  0.00  0.00     0.016 C 
ATOM      3  C   LIG d   1       1.683  85.334 112.041  0.00  0.00     0.038 C 
ATOM      4  C   LIG d   1       0.656  85.090 111.117  0.00  0.00     0.028 C 
ATOM      5  C   LIG d   1       0.270  83.619 111.015  0.00  0.00    -0.047 C 
ATOM      6  C   LIG d   1      -0.006  83.073 112.435  0.00  0.00     0.091 C 
ENDROOT
BRANCH   1   7
ATOM      7  O   LIG d   1       0.780  83.207 114.752  0.00  0.00    -0.368 OA
BRANCH   7   8
ATOM      8  C   LIG d   1       0.992  84.389 115.562  0.00  0.00     0.119 C 
BRANCH   8   9
ATOM      9  C   LIG d   1       1.717  83.946 116.848  0.00  0.00     0.028 C 
ATOM     10  C   LIG d   1       1.113  84.583 118.111  0.00  0.00     0.006 C 
ENDBRANCH   8   9
BRANCH   8  11
ATOM     11  C   LIG d   1      -0.337  84.988 116.032  0.00  0.00     0.028 C 
ATOM     12  C   LIG d   1      -1.100  85.702 114.905  0.00  0.00     0.006 C 
ENDBRANCH   8  11
ENDBRANCH   7   8
ENDBRANCH   1   7
BRANCH   6  13
ATOM     13  N   LIG d   1      -0.310  81.618 112.435  0.00  0.00    -0.311 N 
ATOM     14  C   LIG d   1      -1.540  81.126 112.304  0.00  0.00     0.210 C 
ATOM     15  C   LIG d   1      -1.633  79.598 112.350  0.00  0.00     0.109 C 
ATOM     16  O   LIG d   1      -2.559  81.809 112.121  0.00  0.00    -0.276 OA
ATOM     17  H   LIG d   1       0.463  80.991 112.546  0.00  0.00     0.149 HD
ENDBRANCH   6  13
BRANCH   5  18
ATOM     18  N   LIG d   1      -0.901  83.526 110.123  0.00  0.00     0.381 N 
ATOM     19  H   LIG d   1      -1.581  84.212 110.383  0.00  0.00    -0.090 HD
ATOM     20  H   LIG d   1      -1.316  82.616 110.225  0.00  0.00    -0.090 HD
ATOM     21  H   LIG d   1      -0.621  83.667 109.177  0.00  0.00    -0.090 HD
ENDBRANCH   5  18
BRANCH   3  22
ATOM     22  C   LIG d   1       2.538  86.401 111.809  0.00  0.00     0.382 C 
ATOM     23  O   LIG d   1       2.505  87.405 112.561  0.00  0.00    -0.241 OA
ATOM     24  O   LIG d   1       3.309  86.392 110.831  0.00  0.00    -0.241 OA
ENDBRANCH   3  22
TORSDOF 7
ENDMDL
MODEL 7
REMARK VINA RESULT:      -4.7     24.163     26.504
REMARK  7 active torsions:
REMARK  status: ('A' for Active; 'I' for Inactive)
REMARK    1  A    between atoms: C_2  and  C_3 
REMARK    2  A    between atoms: C_3  and  O_6 
REMARK    3  A    between atoms: C_3  and  C_4 
REMARK    4  A    between atoms: C_7  and  O_6 
REMARK    5  A    between atoms: C_9  and  C_10 
REMARK    6  A    between atoms: N_15  and  C_14 
REMARK    7  A    between atoms: N_20  and  C_19 
REMARK       I    between atoms: C_22  and  N_20 
ROOT
ATOM      1  C   LIG d   1     -23.569  83.429 114.003  0.00  0.00     0.161 C 
ATOM      2  C   LIG d   1     -22.709  84.523 114.197  0.00  0.00     0.016 C 
ATOM      3  C   LIG d   1     -23.146  85.868 114.191  0.00  0.00     0.038 C 
ATOM      4  C   LIG d   1     -24.507  86.204 114.142  0.00  0.00     0.028 C 
ATOM      5  C   LIG d   1     -25.365  85.157 113.439  0.00  0.00    -0.047 C 
ATOM      6  C   LIG d   1     -25.072  83.771 114.059  0.00  0.00     0.091 C 
ENDROOT
BRANCH   1   7
ATOM      7  O   LIG d   1     -23.256  82.389 114.950  0.00  0.00    -0.368 OA
BRANCH   7   8
ATOM      8  C   LIG d   1     -24.024  82.394 116.179  0.00  0.00     0.119 C 
BRANCH   8   9
ATOM      9  C   LIG d   1     -23.079  82.838 117.313  0.00  0.00     0.028 C 
ATOM     10  C   LIG d   1     -21.624  82.403 117.069  0.00  0.00     0.006 C 
ENDBRANCH   8   9
BRANCH   8  11
ATOM     11  C   LIG d   1     -24.477  80.981 116.559  0.00  0.00     0.028 C 
ATOM     12  C   LIG d   1     -24.306  79.972 115.413  0.00  0.00     0.006 C 
ENDBRANCH   8  11
ENDBRANCH   7   8
ENDBRANCH   1   7
BRANCH   6  13
ATOM     13  N   LIG d   1     -25.808  82.677 113.372  0.00  0.00    -0.311 N 
ATOM     14  C   LIG d   1     -26.956  82.172 113.820  0.00  0.00     0.210 C 
ATOM     15  C   LIG d   1     -27.537  81.036 112.973  0.00  0.00     0.109 C 
ATOM     16  O   LIG d   1     -27.565  82.579 114.821  0.00  0.00    -0.276 OA
ATOM     17  H   LIG d   1     -25.400  82.309 112.535  0.00  0.00     0.149 HD
ENDBRANCH   6  13
BRANCH   5  18
ATOM     18  N   LIG d   1     -26.774  85.567 113.581  0.00  0.00     0.381 N 
ATOM     19  H   LIG d   1     -26.934  86.412 113.069  0.00  0.00    -0.090 HD
ATOM     20  H   LIG d   1     -26.965  85.746 114.551  0.00  0.00    -0.090 HD
ATOM     21  H   LIG d   1     -27.375  84.847 113.243  0.00  0.00    -0.090 HD
ENDBRANCH   5  18
BRANCH   3  22
ATOM     22  C   LIG d   1     -22.214  86.894 114.196  0.00  0.00     0.382 C 
ATOM     23  O   LIG d   1     -21.187  86.811 113.479  0.00  0.00    -0.241 OA
ATOM     24  O   LIG d   1     -22.364  87.881 114.941  0.00  0.00    -0.241 OA
ENDBRANCH   3  22
TORSDOF 7
ENDMDL
MODEL 8
REMARK VINA RESULT:      -4.6     11.128     13.335
REMARK  7 active torsions:
REMARK  status: ('A' for Active; 'I' for Inactive)
REMARK    1  A    between atoms: C_2  and  C_3 
REMARK    2  A    between atoms: C_3  and  O_6 
REMARK    3  A    between atoms: C_3  and  C_4 
REMARK    4  A    between atoms: C_7  and  O_6 
REMARK    5  A    between atoms: C_9  and  C_10 
REMARK    6  A    between atoms: N_15  and  C_14 
REMARK    7  A    between atoms: N_20  and  C_19 
REMARK       I    between atoms: C_22  and  N_20 
ROOT
ATOM      1  C   LIG d   1      12.209  78.196 114.165  0.00  0.00     0.161 C 
ATOM      2  C   LIG d   1      10.975  78.806 114.441  0.00  0.00     0.016 C 
ATOM      3  C   LIG d   1       9.876  78.119 115.008  0.00  0.00     0.038 C 
ATOM      4  C   LIG d   1       9.989  76.803 115.479  0.00  0.00     0.028 C 
ATOM      5  C   LIG d   1      11.062  75.992 114.762  0.00  0.00    -0.047 C 
ATOM      6  C   LIG d   1      12.386  76.790 114.775  0.00  0.00     0.091 C 
ENDROOT
BRANCH   1   7
ATOM      7  O   LIG d   1      13.285  79.061 114.578  0.00  0.00    -0.368 OA
BRANCH   7   8
ATOM      8  C   LIG d   1      13.962  79.786 113.523  0.00  0.00     0.119 C 
BRANCH   8   9
ATOM      9  C   LIG d   1      13.760  78.996 112.215  0.00  0.00     0.028 C 
ATOM     10  C   LIG d   1      15.067  78.369 111.701  0.00  0.00     0.006 C 
ENDBRANCH   8   9
BRANCH   8  11
ATOM     11  C   LIG d   1      15.476  79.816 113.749  0.00  0.00     0.028 C 
ATOM     12  C   LIG d   1      15.874  79.398 115.173  0.00  0.00     0.006 C 
ENDBRANCH   8  11
ENDBRANCH   7   8
ENDBRANCH   1   7
BRANCH   6  13
ATOM     13  N   LIG d   1      13.468  76.105 114.020  0.00  0.00    -0.311 N 
ATOM     14  C   LIG d   1      14.653  75.804 114.548  0.00  0.00     0.210 C 
ATOM     15  C   LIG d   1      15.632  75.116 113.591  0.00  0.00     0.109 C 
ATOM     16  O   LIG d   1      14.975  76.012 115.727  0.00  0.00    -0.276 OA
ATOM     17  H   LIG d   1      13.280  75.871 113.065  0.00  0.00     0.149 HD
ENDBRANCH   6  13
BRANCH   5  18
ATOM     18  N   LIG d   1      11.166  74.688 115.444  0.00  0.00     0.381 N 
ATOM     19  H   LIG d   1      11.945  74.696 116.072  0.00  0.00    -0.090 HD
ATOM     20  H   LIG d   1      11.323  73.973 114.756  0.00  0.00    -0.090 HD
ATOM     21  H   LIG d   1      10.327  74.498 115.946  0.00  0.00    -0.090 HD
ENDBRANCH   5  18
BRANCH   3  22
ATOM     22  C   LIG d   1       8.637  78.738 115.070  0.00  0.00     0.382 C 
ATOM     23  O   LIG d   1       7.593  78.072 114.872  0.00  0.00    -0.241 OA
ATOM     24  O   LIG d   1       8.552  79.963 115.279  0.00  0.00    -0.241 OA
ENDBRANCH   3  22
TORSDOF 7
ENDMDL
MODEL 9
REMARK VINA RESULT:      -4.6      2.056      2.946
REMARK  7 active torsions:
REMARK  status: ('A' for Active; 'I' for Inactive)
REMARK    1  A    between atoms: C_2  and  C_3 
REMARK    2  A    between atoms: C_3  and  O_6 
REMARK    3  A    between atoms: C_3  and  C_4 
REMARK    4  A    between atoms: C_7  and  O_6 
REMARK    5  A    between atoms: C_9  and  C_10 
REMARK    6  A    between atoms: N_15  and  C_14 
REMARK    7  A    between atoms: N_20  and  C_19 
REMARK       I    between atoms: C_22  and  N_20 
ROOT
ATOM      1  C   LIG d   1       1.754  84.711 114.049  0.00  0.00     0.161 C 
ATOM      2  C   LIG d   1       1.227  84.082 112.909  0.00  0.00     0.016 C 
ATOM      3  C   LIG d   1      -0.142  84.124 112.559  0.00  0.00     0.038 C 
ATOM      4  C   LIG d   1      -1.059  84.931 113.249  0.00  0.00     0.028 C 
ATOM      5  C   LIG d   1      -0.672  85.182 114.702  0.00  0.00    -0.047 C 
ATOM      6  C   LIG d   1       0.788  85.688 114.753  0.00  0.00     0.091 C 
ENDROOT
BRANCH   1   7
ATOM      7  O   LIG d   1       2.986  85.379 113.714  0.00  0.00    -0.368 OA
BRANCH   7   8
ATOM      8  C   LIG d   1       2.865  86.749 113.259  0.00  0.00     0.119 C 
BRANCH   8   9
ATOM      9  C   LIG d   1       3.306  86.787 111.783  0.00  0.00     0.028 C 
ATOM     10  C   LIG d   1       2.120  86.664 110.812  0.00  0.00     0.006 C 
ENDBRANCH   8   9
BRANCH   8  11
ATOM     11  C   LIG d   1       3.840  87.670 113.998  0.00  0.00     0.028 C 
ATOM     12  C   LIG d   1       4.053  89.012 113.279  0.00  0.00     0.006 C 
ENDBRANCH   8  11
ENDBRANCH   7   8
ENDBRANCH   1   7
BRANCH   6  13
ATOM     13  N   LIG d   1       1.275  85.877 116.144  0.00  0.00    -0.311 N 
ATOM     14  C   LIG d   1       1.308  87.061 116.754  0.00  0.00     0.210 C 
ATOM     15  C   LIG d   1       1.864  87.037 118.181  0.00  0.00     0.109 C 
ATOM     16  O   LIG d   1       0.899  88.123 116.261  0.00  0.00    -0.276 OA
ATOM     17  H   LIG d   1       1.596  85.063 116.630  0.00  0.00     0.149 HD
ENDBRANCH   6  13
BRANCH   5  18
ATOM     18  N   LIG d   1      -1.638  86.146 115.261  0.00  0.00     0.381 N 
ATOM     19  H   LIG d   1      -1.283  86.523 116.117  0.00  0.00    -0.090 HD
ATOM     20  H   LIG d   1      -2.498  85.666 115.460  0.00  0.00    -0.090 HD
ATOM     21  H   LIG d   1      -1.802  86.881 114.609  0.00  0.00    -0.090 HD
ENDBRANCH   5  18
BRANCH   3  22
ATOM     22  C   LIG d   1      -0.614  83.322 111.531  0.00  0.00     0.382 C 
ATOM     23  O   LIG d   1      -1.661  82.649 111.691  0.00  0.00    -0.241 OA
ATOM     24  O   LIG d   1       0.019  83.227 110.462  0.00  0.00    -0.241 OA
ENDBRANCH   3  22
TORSDOF 7
ENDMDL
