MODEL 1
REMARK VINA RESULT:      -5.3      0.000      0.000
REMARK  7 active torsions:
REMARK  status: ('A' for Active; 'I' for Inactive)
REMARK    1  A    between atoms: C_2  and  C_3 
REMARK    2  A    between atoms: C_3  and  O_6 
REMARK    3  A    between atoms: C_3  and  C_4 
REMARK    4  A    between atoms: C_7  and  O_6 
REMARK    5  A    between atoms: C_9  and  C_10 
REMARK    6  A    between atoms: N_15  and  C_14 
REMARK    7  A    between atoms: N_20  and  C_19 
REMARK       I    between atoms: C_22  and  N_20 
ROOT
ATOM      1  C   LIG d   1       3.287  84.895 112.772  0.00  0.00     0.161 C 
ATOM      2  C   LIG d   1       4.076  86.050 112.909  0.00  0.00     0.016 C 
ATOM      3  C   LIG d   1       3.652  87.335 112.499  0.00  0.00     0.038 C 
ATOM      4  C   LIG d   1       2.341  87.579 112.061  0.00  0.00     0.028 C 
ATOM      5  C   LIG d   1       1.676  86.359 111.433  0.00  0.00    -0.047 C 
ATOM      6  C   LIG d   1       1.813  85.160 112.399  0.00  0.00     0.091 C 
ENDROOT
BRANCH   1   7
ATOM      7  O   LIG d   1       3.365  84.105 113.975  0.00  0.00    -0.368 OA
BRANCH   7   8
ATOM      8  C   LIG d   1       2.279  84.272 114.919  0.00  0.00     0.119 C 
BRANCH   8   9
ATOM      9  C   LIG d   1       2.783  85.192 116.048  0.00  0.00     0.028 C 
ATOM     10  C   LIG d   1       2.077  86.558 116.051  0.00  0.00     0.006 C 
ENDBRANCH   8   9
BRANCH   8  11
ATOM     11  C   LIG d   1       1.927  82.947 115.602  0.00  0.00     0.028 C 
ATOM     12  C   LIG d   1       2.096  81.734 114.674  0.00  0.00     0.006 C 
ENDBRANCH   8  11
ENDBRANCH   7   8
ENDBRANCH   1   7
BRANCH   6  13
ATOM     13  N   LIG d   1       1.262  83.904 111.825  0.00  0.00    -0.311 N 
ATOM     14  C   LIG d   1       0.025  83.472 112.061  0.00  0.00     0.210 C 
ATOM     15  C   LIG d   1      -0.335  82.144 111.387  0.00  0.00     0.109 C 
ATOM     16  O   LIG d   1      -0.820  84.079 112.736  0.00  0.00    -0.276 OA
ATOM     17  H   LIG d   1       1.870  83.365 111.240  0.00  0.00     0.149 HD
ENDBRANCH   6  13
BRANCH   5  18
ATOM     18  N   LIG d   1       0.273  86.714 111.148  0.00  0.00     0.381 N 
ATOM     19  H   LIG d   1       0.211  87.683 110.905  0.00  0.00    -0.090 HD
ATOM     20  H   LIG d   1      -0.276  86.562 111.976  0.00  0.00    -0.090 HD
ATOM     21  H   LIG d   1      -0.076  86.154 110.402  0.00  0.00    -0.090 HD
ENDBRANCH   5  18
BRANCH   3  22
ATOM     22  C   LIG d   1       4.556  88.386 112.489  0.00  0.00     0.382 C 
ATOM     23  O   LIG d   1       4.190  89.532 112.845  0.00  0.00    -0.241 OA
ATOM     24  O   LIG d   1       5.722  88.212 112.086  0.00  0.00    -0.241 OA
ENDBRANCH   3  22
TORSDOF 7
ENDMDL
MODEL 2
REMARK VINA RESULT:      -5.3      1.006      1.721
REMARK  7 active torsions:
REMARK  status: ('A' for Active; 'I' for Inactive)
REMARK    1  A    between atoms: C_2  and  C_3 
REMARK    2  A    between atoms: C_3  and  O_6 
REMARK    3  A    between atoms: C_3  and  C_4 
REMARK    4  A    between atoms: C_7  and  O_6 
REMARK    5  A    between atoms: C_9  and  C_10 
REMARK    6  A    between atoms: N_15  and  C_14 
REMARK    7  A    between atoms: N_20  and  C_19 
REMARK       I    between atoms: C_22  and  N_20 
ROOT
ATOM      1  C   LIG d   1       3.231  84.916 112.853  0.00  0.00     0.161 C 
ATOM      2  C   LIG d   1       4.020  86.073 112.968  0.00  0.00     0.016 C 
ATOM      3  C   LIG d   1       3.614  87.341 112.491  0.00  0.00     0.038 C 
ATOM      4  C   LIG d   1       2.321  87.569 112.000  0.00  0.00     0.028 C 
ATOM      5  C   LIG d   1       1.671  86.326 111.401  0.00  0.00    -0.047 C 
ATOM      6  C   LIG d   1       1.772  85.168 112.420  0.00  0.00     0.091 C 
ENDROOT
BRANCH   1   7
ATOM      7  O   LIG d   1       3.266  84.176 114.090  0.00  0.00    -0.368 OA
BRANCH   7   8
ATOM      8  C   LIG d   1       3.417  84.962 115.298  0.00  0.00     0.119 C 
BRANCH   8   9
ATOM      9  C   LIG d   1       4.350  84.181 116.244  0.00  0.00     0.028 C 
ATOM     10  C   LIG d   1       5.556  85.019 116.703  0.00  0.00     0.006 C 
ENDBRANCH   8   9
BRANCH   8  11
ATOM     11  C   LIG d   1       2.089  85.087 116.050  0.00  0.00     0.028 C 
ATOM     12  C   LIG d   1       1.480  86.495 115.953  0.00  0.00     0.006 C 
ENDBRANCH   8  11
ENDBRANCH   7   8
ENDBRANCH   1   7
BRANCH   6  13
ATOM     13  N   LIG d   1       1.235  83.891 111.882  0.00  0.00    -0.311 N 
ATOM     14  C   LIG d   1      -0.003  83.459 112.115  0.00  0.00     0.210 C 
ATOM     15  C   LIG d   1      -0.346  82.107 111.482  0.00  0.00     0.109 C 
ATOM     16  O   LIG d   1      -0.860  84.083 112.759  0.00  0.00    -0.276 OA
ATOM     17  H   LIG d   1       1.854  83.336 111.322  0.00  0.00     0.149 HD
ENDBRANCH   6  13
BRANCH   5  18
ATOM     18  N   LIG d   1       0.280  86.672 111.055  0.00  0.00     0.381 N 
ATOM     19  H   LIG d   1      -0.135  85.926 110.533  0.00  0.00    -0.090 HD
ATOM     20  H   LIG d   1       0.284  87.496 110.479  0.00  0.00    -0.090 HD
ATOM     21  H   LIG d   1      -0.246  86.840 111.884  0.00  0.00    -0.090 HD
ENDBRANCH   5  18
BRANCH   3  22
ATOM     22  C   LIG d   1       4.523  88.388 112.467  0.00  0.00     0.382 C 
ATOM     23  O   LIG d   1       5.710  88.180 112.120  0.00  0.00    -0.241 OA
ATOM     24  O   LIG d   1       4.181  89.530 112.830  0.00  0.00    -0.241 OA
ENDBRANCH   3  22
TORSDOF 7
ENDMDL
MODEL 3
REMARK VINA RESULT:      -5.0      1.618      4.804
REMARK  7 active torsions:
REMARK  status: ('A' for Active; 'I' for Inactive)
REMARK    1  A    between atoms: C_2  and  C_3 
REMARK    2  A    between atoms: C_3  and  O_6 
REMARK    3  A    between atoms: C_3  and  C_4 
REMARK    4  A    between atoms: C_7  and  O_6 
REMARK    5  A    between atoms: C_9  and  C_10 
REMARK    6  A    between atoms: N_15  and  C_14 
REMARK    7  A    between atoms: N_20  and  C_19 
REMARK       I    between atoms: C_22  and  N_20 
ROOT
ATOM      1  C   LIG d   1       1.947  84.680 113.557  0.00  0.00     0.161 C 
ATOM      2  C   LIG d   1       1.114  83.619 113.166  0.00  0.00     0.016 C 
ATOM      3  C   LIG d   1       0.390  83.606 111.951  0.00  0.00     0.038 C 
ATOM      4  C   LIG d   1       0.569  84.592 110.970  0.00  0.00     0.028 C 
ATOM      5  C   LIG d   1       1.014  85.936 111.537  0.00  0.00    -0.047 C 
ATOM      6  C   LIG d   1       2.241  85.714 112.450  0.00  0.00     0.091 C 
ENDROOT
BRANCH   1   7
ATOM      7  O   LIG d   1       3.178  84.161 114.098  0.00  0.00    -0.368 OA
BRANCH   7   8
ATOM      8  C   LIG d   1       3.433  84.453 115.494  0.00  0.00     0.119 C 
BRANCH   8   9
ATOM      9  C   LIG d   1       4.762  85.230 115.569  0.00  0.00     0.028 C 
ATOM     10  C   LIG d   1       4.616  86.575 116.300  0.00  0.00     0.006 C 
ENDBRANCH   8   9
BRANCH   8  11
ATOM     11  C   LIG d   1       3.668  83.171 116.298  0.00  0.00     0.028 C 
ATOM     12  C   LIG d   1       2.424  82.270 116.358  0.00  0.00     0.006 C 
ENDBRANCH   8  11
ENDBRANCH   7   8
ENDBRANCH   1   7
BRANCH   6  13
ATOM     13  N   LIG d   1       2.689  86.967 113.112  0.00  0.00    -0.311 N 
ATOM     14  C   LIG d   1       3.652  87.749 112.626  0.00  0.00     0.210 C 
ATOM     15  C   LIG d   1       3.973  88.983 113.476  0.00  0.00     0.109 C 
ATOM     16  O   LIG d   1       4.248  87.555 111.556  0.00  0.00    -0.276 OA
ATOM     17  H   LIG d   1       2.237  87.216 113.970  0.00  0.00     0.149 HD
ENDBRANCH   6  13
BRANCH   5  18
ATOM     18  N   LIG d   1       1.296  86.829 110.397  0.00  0.00     0.381 N 
ATOM     19  H   LIG d   1       1.267  86.308 109.543  0.00  0.00    -0.090 HD
ATOM     20  H   LIG d   1       2.219  87.210 110.503  0.00  0.00    -0.090 HD
ATOM     21  H   LIG d   1       0.625  87.565 110.367  0.00  0.00    -0.090 HD
ENDBRANCH   5  18
BRANCH   3  22
ATOM     22  C   LIG d   1      -0.556  82.617 111.726  0.00  0.00     0.382 C 
ATOM     23  O   LIG d   1      -0.383  81.782 110.806  0.00  0.00    -0.241 OA
ATOM     24  O   LIG d   1      -1.601  82.576 112.403  0.00  0.00    -0.241 OA
ENDBRANCH   3  22
TORSDOF 7
ENDMDL
MODEL 4
REMARK VINA RESULT:      -5.0      2.237      4.249
REMARK  7 active torsions:
REMARK  status: ('A' for Active; 'I' for Inactive)
REMARK    1  A    between atoms: C_2  and  C_3 
REMARK    2  A    between atoms: C_3  and  O_6 
REMARK    3  A    between atoms: C_3  and  C_4 
REMARK    4  A    between atoms: C_7  and  O_6 
REMARK    5  A    between atoms: C_9  and  C_10 
REMARK    6  A    between atoms: N_15  and  C_14 
REMARK    7  A    between atoms: N_20  and  C_19 
REMARK       I    between atoms: C_22  and  N_20 
ROOT
ATOM      1  C   LIG d   1       1.906  85.427 113.526  0.00  0.00     0.161 C 
ATOM      2  C   LIG d   1       2.272  86.645 112.929  0.00  0.00     0.016 C 
ATOM      3  C   LIG d   1       3.354  87.438 113.377  0.00  0.00     0.038 C 
ATOM      4  C   LIG d   1       4.243  86.988 114.365  0.00  0.00     0.028 C 
ATOM      5  C   LIG d   1       3.615  85.996 115.339  0.00  0.00    -0.047 C 
ATOM      6  C   LIG d   1       2.932  84.867 114.534  0.00  0.00     0.091 C 
ENDROOT
BRANCH   1   7
ATOM      7  O   LIG d   1       1.620  84.450 112.507  0.00  0.00    -0.368 OA
BRANCH   7   8
ATOM      8  C   LIG d   1       1.470  84.960 111.159  0.00  0.00     0.119 C 
BRANCH   8   9
ATOM      9  C   LIG d   1       0.025  84.668 110.712  0.00  0.00     0.028 C 
ATOM     10  C   LIG d   1      -0.791  85.953 110.488  0.00  0.00     0.006 C 
ENDBRANCH   8   9
BRANCH   8  11
ATOM     11  C   LIG d   1       2.361  84.199 110.173  0.00  0.00     0.028 C 
ATOM     12  C   LIG d   1       3.832  84.147 110.616  0.00  0.00     0.006 C 
ENDBRANCH   8  11
ENDBRANCH   7   8
ENDBRANCH   1   7
BRANCH   6  13
ATOM     13  N   LIG d   1       2.221  83.898 115.408  0.00  0.00    -0.311 N 
ATOM     14  C   LIG d   1       2.799  82.814 115.923  0.00  0.00     0.210 C 
ATOM     15  C   LIG d   1       1.881  81.938 116.781  0.00  0.00     0.109 C 
ATOM     16  O   LIG d   1       3.993  82.513 115.777  0.00  0.00    -0.276 OA
ATOM     17  H   LIG d   1       1.257  84.083 115.604  0.00  0.00     0.149 HD
ENDBRANCH   6  13
BRANCH   5  18
ATOM     18  N   LIG d   1       4.686  85.506 116.227  0.00  0.00     0.381 N 
ATOM     19  H   LIG d   1       5.247  86.275 116.537  0.00  0.00    -0.090 HD
ATOM     20  H   LIG d   1       5.273  84.875 115.711  0.00  0.00    -0.090 HD
ATOM     21  H   LIG d   1       4.290  85.038 117.012  0.00  0.00    -0.090 HD
ENDBRANCH   5  18
BRANCH   3  22
ATOM     22  C   LIG d   1       3.531  88.713 112.863  0.00  0.00     0.382 C 
ATOM     23  O   LIG d   1       4.660  89.071 112.449  0.00  0.00    -0.241 OA
ATOM     24  O   LIG d   1       2.586  89.525 112.848  0.00  0.00    -0.241 OA
ENDBRANCH   3  22
TORSDOF 7
ENDMDL
MODEL 5
REMARK VINA RESULT:      -4.9      2.268      4.148
REMARK  7 active torsions:
REMARK  status: ('A' for Active; 'I' for Inactive)
REMARK    1  A    between atoms: C_2  and  C_3 
REMARK    2  A    between atoms: C_3  and  O_6 
REMARK    3  A    between atoms: C_3  and  C_4 
REMARK    4  A    between atoms: C_7  and  O_6 
REMARK    5  A    between atoms: C_9  and  C_10 
REMARK    6  A    between atoms: N_15  and  C_14 
REMARK    7  A    between atoms: N_20  and  C_19 
REMARK       I    between atoms: C_22  and  N_20 
ROOT
ATOM      1  C   LIG d   1       1.021  84.188 113.256  0.00  0.00     0.161 C 
ATOM      2  C   LIG d   1       1.266  85.402 112.593  0.00  0.00     0.016 C 
ATOM      3  C   LIG d   1       2.353  86.252 112.902  0.00  0.00     0.038 C 
ATOM      4  C   LIG d   1       3.361  85.870 113.799  0.00  0.00     0.028 C 
ATOM      5  C   LIG d   1       2.887  84.881 114.858  0.00  0.00    -0.047 C 
ATOM      6  C   LIG d   1       2.173  83.701 114.160  0.00  0.00     0.091 C 
ENDROOT
BRANCH   1   7
ATOM      7  O   LIG d   1       0.672  83.170 112.297  0.00  0.00    -0.368 OA
BRANCH   7   8
ATOM      8  C   LIG d   1       1.763  82.347 111.816  0.00  0.00     0.119 C 
BRANCH   8   9
ATOM      9  C   LIG d   1       2.069  82.783 110.370  0.00  0.00     0.028 C 
ATOM     10  C   LIG d   1       3.438  83.473 110.243  0.00  0.00     0.006 C 
ENDBRANCH   8   9
BRANCH   8  11
ATOM     11  C   LIG d   1       1.348  80.876 111.716  0.00  0.00     0.028 C 
ATOM     12  C   LIG d   1       0.092  80.553 112.541  0.00  0.00     0.006 C 
ENDBRANCH   8  11
ENDBRANCH   7   8
ENDBRANCH   1   7
BRANCH   6  13
ATOM     13  N   LIG d   1       1.604  82.729 115.129  0.00  0.00    -0.311 N 
ATOM     14  C   LIG d   1       2.240  81.627 115.521  0.00  0.00     0.210 C 
ATOM     15  C   LIG d   1       1.466  80.751 116.512  0.00  0.00     0.109 C 
ATOM     16  O   LIG d   1       3.385  81.307 115.168  0.00  0.00    -0.276 OA
ATOM     17  H   LIG d   1       0.691  82.926 115.491  0.00  0.00     0.149 HD
ENDBRANCH   6  13
BRANCH   5  18
ATOM     18  N   LIG d   1       4.068  84.463 115.638  0.00  0.00     0.381 N 
ATOM     19  H   LIG d   1       4.557  83.739 115.150  0.00  0.00    -0.090 HD
ATOM     20  H   LIG d   1       3.760  84.095 116.521  0.00  0.00    -0.090 HD
ATOM     21  H   LIG d   1       4.672  85.241 115.786  0.00  0.00    -0.090 HD
ENDBRANCH   5  18
BRANCH   3  22
ATOM     22  C   LIG d   1       2.416  87.518 112.340  0.00  0.00     0.382 C 
ATOM     23  O   LIG d   1       2.333  87.657 111.096  0.00  0.00    -0.241 OA
ATOM     24  O   LIG d   1       2.600  88.520 113.058  0.00  0.00    -0.241 OA
ENDBRANCH   3  22
TORSDOF 7
ENDMDL
MODEL 6
REMARK VINA RESULT:      -4.8      2.201      5.053
REMARK  7 active torsions:
REMARK  status: ('A' for Active; 'I' for Inactive)
REMARK    1  A    between atoms: C_2  and  C_3 
REMARK    2  A    between atoms: C_3  and  O_6 
REMARK    3  A    between atoms: C_3  and  C_4 
REMARK    4  A    between atoms: C_7  and  O_6 
REMARK    5  A    between atoms: C_9  and  C_10 
REMARK    6  A    between atoms: N_15  and  C_14 
REMARK    7  A    between atoms: N_20  and  C_19 
REMARK       I    between atoms: C_22  and  N_20 
ROOT
ATOM      1  C   LIG d   1       2.151  85.965 113.711  0.00  0.00     0.161 C 
ATOM      2  C   LIG d   1       0.960  85.296 113.382  0.00  0.00     0.016 C 
ATOM      3  C   LIG d   1       0.840  84.420 112.279  0.00  0.00     0.038 C 
ATOM      4  C   LIG d   1       1.951  84.033 111.514  0.00  0.00     0.028 C 
ATOM      5  C   LIG d   1       3.067  85.072 111.499  0.00  0.00    -0.047 C 
ATOM      6  C   LIG d   1       3.401  85.470 112.955  0.00  0.00     0.091 C 
ENDROOT
BRANCH   1   7
ATOM      7  O   LIG d   1       2.368  85.902 115.135  0.00  0.00    -0.368 OA
BRANCH   7   8
ATOM      8  C   LIG d   1       2.111  87.122 115.873  0.00  0.00     0.119 C 
BRANCH   8   9
ATOM      9  C   LIG d   1       3.437  87.554 116.530  0.00  0.00     0.028 C 
ATOM     10  C   LIG d   1       3.877  88.961 116.095  0.00  0.00     0.006 C 
ENDBRANCH   8   9
BRANCH   8  11
ATOM     11  C   LIG d   1       1.144  86.877 117.035  0.00  0.00     0.028 C 
ATOM     12  C   LIG d   1       0.339  88.130 117.414  0.00  0.00     0.006 C 
ENDBRANCH   8  11
ENDBRANCH   7   8
ENDBRANCH   1   7
BRANCH   6  13
ATOM     13  N   LIG d   1       4.426  86.544 113.028  0.00  0.00    -0.311 N 
ATOM     14  C   LIG d   1       4.247  87.763 112.520  0.00  0.00     0.210 C 
ATOM     15  C   LIG d   1       5.438  88.713 112.687  0.00  0.00     0.109 C 
ATOM     16  O   LIG d   1       3.205  88.157 111.977  0.00  0.00    -0.276 OA
ATOM     17  H   LIG d   1       5.290  86.320 113.480  0.00  0.00     0.149 HD
ENDBRANCH   6  13
BRANCH   5  18
ATOM     18  N   LIG d   1       4.214  84.484 110.783  0.00  0.00     0.381 N 
ATOM     19  H   LIG d   1       3.981  84.355 109.818  0.00  0.00    -0.090 HD
ATOM     20  H   LIG d   1       4.419  83.584 111.180  0.00  0.00    -0.090 HD
ATOM     21  H   LIG d   1       5.008  85.079 110.863  0.00  0.00    -0.090 HD
ENDBRANCH   5  18
BRANCH   3  22
ATOM     22  C   LIG d   1      -0.411  83.951 111.906  0.00  0.00     0.382 C 
ATOM     23  O   LIG d   1      -0.834  84.150 110.742  0.00  0.00    -0.241 OA
ATOM     24  O   LIG d   1      -1.140  83.371 112.733  0.00  0.00    -0.241 OA
ENDBRANCH   3  22
TORSDOF 7
ENDMDL
MODEL 7
REMARK VINA RESULT:      -4.8     25.352     27.944
REMARK  7 active torsions:
REMARK  status: ('A' for Active; 'I' for Inactive)
REMARK    1  A    between atoms: C_2  and  C_3 
REMARK    2  A    between atoms: C_3  and  O_6 
REMARK    3  A    between atoms: C_3  and  C_4 
REMARK    4  A    between atoms: C_7  and  O_6 
REMARK    5  A    between atoms: C_9  and  C_10 
REMARK    6  A    between atoms: N_15  and  C_14 
REMARK    7  A    between atoms: N_20  and  C_19 
REMARK       I    between atoms: C_22  and  N_20 
ROOT
ATOM      1  C   LIG d   1     -25.513  85.204 113.077  0.00  0.00     0.161 C 
ATOM      2  C   LIG d   1     -24.465  86.114 113.292  0.00  0.00     0.016 C 
ATOM      3  C   LIG d   1     -23.118  85.722 113.467  0.00  0.00     0.038 C 
ATOM      4  C   LIG d   1     -22.702  84.395 113.285  0.00  0.00     0.028 C 
ATOM      5  C   LIG d   1     -23.799  83.373 113.565  0.00  0.00    -0.047 C 
ATOM      6  C   LIG d   1     -25.063  83.761 112.764  0.00  0.00     0.091 C 
ENDROOT
BRANCH   1   7
ATOM      7  O   LIG d   1     -26.380  85.694 112.035  0.00  0.00    -0.368 OA
BRANCH   7   8
ATOM      8  C   LIG d   1     -27.685  86.161 112.458  0.00  0.00     0.119 C 
BRANCH   8   9
ATOM      9  C   LIG d   1     -28.738  85.247 111.802  0.00  0.00     0.028 C 
ATOM     10  C   LIG d   1     -28.357  84.848 110.366  0.00  0.00     0.006 C 
ENDBRANCH   8   9
BRANCH   8  11
ATOM     11  C   LIG d   1     -27.976  87.565 111.921  0.00  0.00     0.028 C 
ATOM     12  C   LIG d   1     -26.765  88.196 111.215  0.00  0.00     0.006 C 
ENDBRANCH   8  11
ENDBRANCH   7   8
ENDBRANCH   1   7
BRANCH   6  13
ATOM     13  N   LIG d   1     -26.211  82.861 113.046  0.00  0.00    -0.311 N 
ATOM     14  C   LIG d   1     -26.762  82.066 112.130  0.00  0.00     0.210 C 
ATOM     15  C   LIG d   1     -27.949  81.233 112.625  0.00  0.00     0.109 C 
ATOM     16  O   LIG d   1     -26.360  81.948 110.963  0.00  0.00    -0.276 OA
ATOM     17  H   LIG d   1     -26.581  82.870 113.977  0.00  0.00     0.149 HD
ENDBRANCH   6  13
BRANCH   5  18
ATOM     18  N   LIG d   1     -23.272  82.043 113.204  0.00  0.00     0.381 N 
ATOM     19  H   LIG d   1     -22.409  82.144 112.708  0.00  0.00    -0.090 HD
ATOM     20  H   LIG d   1     -23.931  81.585 112.601  0.00  0.00    -0.090 HD
ATOM     21  H   LIG d   1     -23.129  81.499 114.026  0.00  0.00    -0.090 HD
ENDBRANCH   5  18
BRANCH   3  22
ATOM     22  C   LIG d   1     -22.177  86.659 113.866  0.00  0.00     0.382 C 
ATOM     23  O   LIG d   1     -22.516  87.613 114.607  0.00  0.00    -0.241 OA
ATOM     24  O   LIG d   1     -21.002  86.586 113.459  0.00  0.00    -0.241 OA
ENDBRANCH   3  22
TORSDOF 7
ENDMDL
MODEL 8
REMARK VINA RESULT:      -4.6      2.638      4.680
REMARK  7 active torsions:
REMARK  status: ('A' for Active; 'I' for Inactive)
REMARK    1  A    between atoms: C_2  and  C_3 
REMARK    2  A    between atoms: C_3  and  O_6 
REMARK    3  A    between atoms: C_3  and  C_4 
REMARK    4  A    between atoms: C_7  and  O_6 
REMARK    5  A    between atoms: C_9  and  C_10 
REMARK    6  A    between atoms: N_15  and  C_14 
REMARK    7  A    between atoms: N_20  and  C_19 
REMARK       I    between atoms: C_22  and  N_20 
ROOT
ATOM      1  C   LIG d   1       1.619  83.447 112.891  0.00  0.00     0.161 C 
ATOM      2  C   LIG d   1       1.646  84.554 112.027  0.00  0.00     0.016 C 
ATOM      3  C   LIG d   1       1.830  85.884 112.471  0.00  0.00     0.038 C 
ATOM      4  C   LIG d   1       2.154  86.182 113.803  0.00  0.00     0.028 C 
ATOM      5  C   LIG d   1       1.638  85.148 114.798  0.00  0.00    -0.047 C 
ATOM      6  C   LIG d   1       2.081  83.741 114.334  0.00  0.00     0.091 C 
ENDROOT
BRANCH   1   7
ATOM      7  O   LIG d   1       2.392  82.369 112.328  0.00  0.00    -0.368 OA
BRANCH   7   8
ATOM      8  C   LIG d   1       1.980  81.905 111.019  0.00  0.00     0.119 C 
BRANCH   8   9
ATOM      9  C   LIG d   1       1.373  80.500 111.196  0.00  0.00     0.028 C 
ATOM     10  C   LIG d   1       2.047  79.451 110.294  0.00  0.00     0.006 C 
ENDBRANCH   8   9
BRANCH   8  11
ATOM     11  C   LIG d   1       3.183  81.713 110.091  0.00  0.00     0.028 C 
ATOM     12  C   LIG d   1       4.315  82.715 110.369  0.00  0.00     0.006 C 
ENDBRANCH   8  11
ENDBRANCH   7   8
ENDBRANCH   1   7
BRANCH   6  13
ATOM     13  N   LIG d   1       1.547  82.663 115.206  0.00  0.00    -0.311 N 
ATOM     14  C   LIG d   1       2.313  81.734 115.776  0.00  0.00     0.210 C 
ATOM     15  C   LIG d   1       1.558  80.702 116.620  0.00  0.00     0.109 C 
ATOM     16  O   LIG d   1       3.549  81.686 115.688  0.00  0.00    -0.276 OA
ATOM     17  H   LIG d   1       0.557  82.646 115.356  0.00  0.00     0.149 HD
ENDBRANCH   6  13
BRANCH   5  18
ATOM     18  N   LIG d   1       2.163  85.509 116.128  0.00  0.00     0.381 N 
ATOM     19  H   LIG d   1       3.134  85.738 116.059  0.00  0.00    -0.090 HD
ATOM     20  H   LIG d   1       2.068  84.719 116.741  0.00  0.00    -0.090 HD
ATOM     21  H   LIG d   1       1.657  86.285 116.495  0.00  0.00    -0.090 HD
ENDBRANCH   5  18
BRANCH   3  22
ATOM     22  C   LIG d   1       1.652  86.935 111.585  0.00  0.00     0.382 C 
ATOM     23  O   LIG d   1       2.402  87.939 111.644  0.00  0.00    -0.241 OA
ATOM     24  O   LIG d   1       0.723  86.912 110.756  0.00  0.00    -0.241 OA
ENDBRANCH   3  22
TORSDOF 7
ENDMDL
MODEL 9
REMARK VINA RESULT:      -4.6     31.049     33.300
REMARK  7 active torsions:
REMARK  status: ('A' for Active; 'I' for Inactive)
REMARK    1  A    between atoms: C_2  and  C_3 
REMARK    2  A    between atoms: C_3  and  O_6 
REMARK    3  A    between atoms: C_3  and  C_4 
REMARK    4  A    between atoms: C_7  and  O_6 
REMARK    5  A    between atoms: C_9  and  C_10 
REMARK    6  A    between atoms: N_15  and  C_14 
REMARK    7  A    between atoms: N_20  and  C_19 
REMARK       I    between atoms: C_22  and  N_20 
ROOT
ATOM      1  C   LIG d   1     -13.100  55.463 114.770  0.00  0.00     0.161 C 
ATOM      2  C   LIG d   1     -12.208  56.254 114.028  0.00  0.00     0.016 C 
ATOM      3  C   LIG d   1     -12.619  57.341 113.221  0.00  0.00     0.038 C 
ATOM      4  C   LIG d   1     -13.942  57.806 113.221  0.00  0.00     0.028 C 
ATOM      5  C   LIG d   1     -14.964  56.726 113.562  0.00  0.00    -0.047 C 
ATOM      6  C   LIG d   1     -14.534  56.024 114.870  0.00  0.00     0.091 C 
ENDROOT
BRANCH   1   7
ATOM      7  O   LIG d   1     -12.562  55.224 116.086  0.00  0.00    -0.368 OA
BRANCH   7   8
ATOM      8  C   LIG d   1     -11.190  55.636 116.298  0.00  0.00     0.119 C 
BRANCH   8   9
ATOM      9  C   LIG d   1     -10.368  54.368 116.602  0.00  0.00     0.028 C 
ATOM     10  C   LIG d   1      -9.321  54.073 115.514  0.00  0.00     0.006 C 
ENDBRANCH   8   9
BRANCH   8  11
ATOM     11  C   LIG d   1     -11.057  56.514 117.546  0.00  0.00     0.028 C 
ATOM     12  C   LIG d   1     -12.384  56.675 118.305  0.00  0.00     0.006 C 
ENDBRANCH   8  11
ENDBRANCH   7   8
ENDBRANCH   1   7
BRANCH   6  13
ATOM     13  N   LIG d   1     -15.434  54.898 115.231  0.00  0.00    -0.311 N 
ATOM     14  C   LIG d   1     -15.842  54.655 116.476  0.00  0.00     0.210 C 
ATOM     15  C   LIG d   1     -16.750  53.431 116.631  0.00  0.00     0.109 C 
ATOM     16  O   LIG d   1     -15.563  55.355 117.461  0.00  0.00    -0.276 OA
ATOM     17  H   LIG d   1     -15.734  54.298 114.488  0.00  0.00     0.149 HD
ENDBRANCH   6  13
BRANCH   5  18
ATOM     18  N   LIG d   1     -16.284  57.377 113.662  0.00  0.00     0.381 N 
ATOM     19  H   LIG d   1     -16.393  57.784 114.570  0.00  0.00    -0.090 HD
ATOM     20  H   LIG d   1     -16.999  56.683 113.539  0.00  0.00    -0.090 HD
ATOM     21  H   LIG d   1     -16.370  58.082 112.962  0.00  0.00    -0.090 HD
ENDBRANCH   5  18
BRANCH   3  22
ATOM     22  C   LIG d   1     -11.707  57.948 112.371  0.00  0.00     0.382 C 
ATOM     23  O   LIG d   1     -11.544  59.192 112.412  0.00  0.00    -0.241 OA
ATOM     24  O   LIG d   1     -11.077  57.275 111.534  0.00  0.00    -0.241 OA
ENDBRANCH   3  22
TORSDOF 7
ENDMDL
