MODEL 1
REMARK VINA RESULT:      -5.4      0.000      0.000
REMARK  7 active torsions:
REMARK  status: ('A' for Active; 'I' for Inactive)
REMARK    1  A    between atoms: C_2  and  C_3 
REMARK    2  A    between atoms: C_3  and  O_6 
REMARK    3  A    between atoms: C_3  and  C_4 
REMARK    4  A    between atoms: C_7  and  O_6 
REMARK    5  A    between atoms: C_9  and  C_10 
REMARK    6  A    between atoms: N_15  and  C_14 
REMARK    7  A    between atoms: N_20  and  C_19 
REMARK       I    between atoms: C_22  and  N_20 
ROOT
ATOM      1  C   LIG d   1       4.598  85.208 113.036  0.00  0.00     0.161 C 
ATOM      2  C   LIG d   1       4.829  86.505 113.524  0.00  0.00     0.016 C 
ATOM      3  C   LIG d   1       3.855  87.530 113.501  0.00  0.00     0.038 C 
ATOM      4  C   LIG d   1       2.527  87.282 113.124  0.00  0.00     0.028 C 
ATOM      5  C   LIG d   1       2.380  86.117 112.151  0.00  0.00    -0.047 C 
ATOM      6  C   LIG d   1       3.121  84.888 112.725  0.00  0.00     0.091 C 
ENDROOT
BRANCH   1   7
ATOM      7  O   LIG d   1       5.138  84.237 113.956  0.00  0.00    -0.368 OA
BRANCH   7   8
ATOM      8  C   LIG d   1       5.207  84.644 115.344  0.00  0.00     0.119 C 
BRANCH   8   9
ATOM      9  C   LIG d   1       6.576  84.195 115.891  0.00  0.00     0.028 C 
ATOM     10  C   LIG d   1       6.483  83.642 117.323  0.00  0.00     0.006 C 
ENDBRANCH   8   9
BRANCH   8  11
ATOM     11  C   LIG d   1       4.168  83.906 116.194  0.00  0.00     0.028 C 
ATOM     12  C   LIG d   1       2.893  84.731 116.427  0.00  0.00     0.006 C 
ENDBRANCH   8  11
ENDBRANCH   7   8
ENDBRANCH   1   7
BRANCH   6  13
ATOM     13  N   LIG d   1       3.099  83.728 111.796  0.00  0.00    -0.311 N 
ATOM     14  C   LIG d   1       2.166  82.778 111.832  0.00  0.00     0.210 C 
ATOM     15  C   LIG d   1       2.341  81.661 110.798  0.00  0.00     0.109 C 
ATOM     16  O   LIG d   1       1.193  82.770 112.601  0.00  0.00    -0.276 OA
ATOM     17  H   LIG d   1       3.834  83.672 111.118  0.00  0.00     0.149 HD
ENDBRANCH   6  13
BRANCH   5  18
ATOM     18  N   LIG d   1       0.938  85.882 111.952  0.00  0.00     0.381 N 
ATOM     19  H   LIG d   1       0.591  86.491 111.238  0.00  0.00    -0.090 HD
ATOM     20  H   LIG d   1       0.453  86.090 112.807  0.00  0.00    -0.090 HD
ATOM     21  H   LIG d   1       0.780  84.932 111.694  0.00  0.00    -0.090 HD
ENDBRANCH   5  18
BRANCH   3  22
ATOM     22  C   LIG d   1       4.218  88.830 113.819  0.00  0.00     0.382 C 
ATOM     23  O   LIG d   1       3.739  89.382 114.839  0.00  0.00    -0.241 OA
ATOM     24  O   LIG d   1       4.984  89.472 113.076  0.00  0.00    -0.241 OA
ENDBRANCH   3  22
TORSDOF 7
ENDMDL
MODEL 2
REMARK VINA RESULT:      -5.3      2.433      4.561
REMARK  7 active torsions:
REMARK  status: ('A' for Active; 'I' for Inactive)
REMARK    1  A    between atoms: C_2  and  C_3 
REMARK    2  A    between atoms: C_3  and  O_6 
REMARK    3  A    between atoms: C_3  and  C_4 
REMARK    4  A    between atoms: C_7  and  O_6 
REMARK    5  A    between atoms: C_9  and  C_10 
REMARK    6  A    between atoms: N_15  and  C_14 
REMARK    7  A    between atoms: N_20  and  C_19 
REMARK       I    between atoms: C_22  and  N_20 
ROOT
ATOM      1  C   LIG d   1       2.426  86.330 114.243  0.00  0.00     0.161 C 
ATOM      2  C   LIG d   1       3.034  87.543 113.879  0.00  0.00     0.016 C 
ATOM      3  C   LIG d   1       4.163  88.077 114.542  0.00  0.00     0.038 C 
ATOM      4  C   LIG d   1       4.857  87.355 115.524  0.00  0.00     0.028 C 
ATOM      5  C   LIG d   1       3.983  86.352 116.269  0.00  0.00    -0.047 C 
ATOM      6  C   LIG d   1       3.237  85.474 115.240  0.00  0.00     0.091 C 
ENDROOT
BRANCH   1   7
ATOM      7  O   LIG d   1       2.117  85.564 113.062  0.00  0.00    -0.368 OA
BRANCH   7   8
ATOM      8  C   LIG d   1       2.446  86.186 111.795  0.00  0.00     0.119 C 
BRANCH   8   9
ATOM      9  C   LIG d   1       1.148  86.270 110.969  0.00  0.00     0.028 C 
ATOM     10  C   LIG d   1       0.322  84.975 111.041  0.00  0.00     0.006 C 
ENDBRANCH   8   9
BRANCH   8  11
ATOM     11  C   LIG d   1       3.394  85.308 110.973  0.00  0.00     0.028 C 
ATOM     12  C   LIG d   1       3.961  84.127 111.778  0.00  0.00     0.006 C 
ENDBRANCH   8  11
ENDBRANCH   7   8
ENDBRANCH   1   7
BRANCH   6  13
ATOM     13  N   LIG d   1       2.295  84.521 115.884  0.00  0.00    -0.311 N 
ATOM     14  C   LIG d   1       2.640  83.292 116.261  0.00  0.00     0.210 C 
ATOM     15  C   LIG d   1       1.511  82.467 116.888  0.00  0.00     0.109 C 
ATOM     16  O   LIG d   1       3.782  82.817 116.166  0.00  0.00    -0.276 OA
ATOM     17  H   LIG d   1       1.355  84.836 116.027  0.00  0.00     0.149 HD
ENDBRANCH   6  13
BRANCH   5  18
ATOM     18  N   LIG d   1       4.861  85.574 117.164  0.00  0.00     0.381 N 
ATOM     19  H   LIG d   1       4.645  84.601 117.088  0.00  0.00    -0.090 HD
ATOM     20  H   LIG d   1       4.695  85.861 118.113  0.00  0.00    -0.090 HD
ATOM     21  H   LIG d   1       5.816  85.730 116.925  0.00  0.00    -0.090 HD
ENDBRANCH   5  18
BRANCH   3  22
ATOM     22  C   LIG d   1       4.584  89.366 114.251  0.00  0.00     0.382 C 
ATOM     23  O   LIG d   1       4.583  90.243 115.147  0.00  0.00    -0.241 OA
ATOM     24  O   LIG d   1       4.924  89.673 113.092  0.00  0.00    -0.241 OA
ENDBRANCH   3  22
TORSDOF 7
ENDMDL
MODEL 3
REMARK VINA RESULT:      -5.1      5.209      8.523
REMARK  7 active torsions:
REMARK  status: ('A' for Active; 'I' for Inactive)
REMARK    1  A    between atoms: C_2  and  C_3 
REMARK    2  A    between atoms: C_3  and  O_6 
REMARK    3  A    between atoms: C_3  and  C_4 
REMARK    4  A    between atoms: C_7  and  O_6 
REMARK    5  A    between atoms: C_9  and  C_10 
REMARK    6  A    between atoms: N_15  and  C_14 
REMARK    7  A    between atoms: N_20  and  C_19 
REMARK       I    between atoms: C_22  and  N_20 
ROOT
ATOM      1  C   LIG d   1      -1.255  80.639 112.492  0.00  0.00     0.161 C 
ATOM      2  C   LIG d   1      -2.220  79.696 112.881  0.00  0.00     0.016 C 
ATOM      3  C   LIG d   1      -2.261  78.373 112.383  0.00  0.00     0.038 C 
ATOM      4  C   LIG d   1      -1.242  77.856 111.570  0.00  0.00     0.028 C 
ATOM      5  C   LIG d   1      -0.522  78.920 110.749  0.00  0.00    -0.047 C 
ATOM      6  C   LIG d   1      -0.070  80.060 111.691  0.00  0.00     0.091 C 
ENDROOT
BRANCH   1   7
ATOM      7  O   LIG d   1      -0.776  81.354 113.648  0.00  0.00    -0.368 OA
BRANCH   7   8
ATOM      8  C   LIG d   1      -0.047  80.571 114.625  0.00  0.00     0.119 C 
BRANCH   8   9
ATOM      9  C   LIG d   1      -0.754  80.749 115.982  0.00  0.00     0.028 C 
ATOM     10  C   LIG d   1      -1.491  79.476 116.432  0.00  0.00     0.006 C 
ENDBRANCH   8   9
BRANCH   8  11
ATOM     11  C   LIG d   1       1.369  81.116 114.831  0.00  0.00     0.028 C 
ATOM     12  C   LIG d   1       1.547  81.817 116.187  0.00  0.00     0.006 C 
ENDBRANCH   8  11
ENDBRANCH   7   8
ENDBRANCH   1   7
BRANCH   6  13
ATOM     13  N   LIG d   1       0.569  81.183 110.957  0.00  0.00    -0.311 N 
ATOM     14  C   LIG d   1       1.872  81.450 111.016  0.00  0.00     0.210 C 
ATOM     15  C   LIG d   1       2.321  82.666 110.198  0.00  0.00     0.109 C 
ATOM     16  O   LIG d   1       2.704  80.778 111.643  0.00  0.00    -0.276 OA
ATOM     17  H   LIG d   1      -0.028  81.761 110.398  0.00  0.00     0.149 HD
ENDBRANCH   6  13
BRANCH   5  18
ATOM     18  N   LIG d   1       0.602  78.264 110.055  0.00  0.00     0.381 N 
ATOM     19  H   LIG d   1       0.272  77.457 109.564  0.00  0.00    -0.090 HD
ATOM     20  H   LIG d   1       1.275  77.964 110.738  0.00  0.00    -0.090 HD
ATOM     21  H   LIG d   1       1.026  78.900 109.416  0.00  0.00    -0.090 HD
ENDBRANCH   5  18
BRANCH   3  22
ATOM     22  C   LIG d   1      -3.352  77.566 112.665  0.00  0.00     0.382 C 
ATOM     23  O   LIG d   1      -3.204  76.532 113.361  0.00  0.00    -0.241 OA
ATOM     24  O   LIG d   1      -4.475  77.834 112.197  0.00  0.00    -0.241 OA
ENDBRANCH   3  22
TORSDOF 7
ENDMDL
MODEL 4
REMARK VINA RESULT:      -4.9      2.419      4.639
REMARK  7 active torsions:
REMARK  status: ('A' for Active; 'I' for Inactive)
REMARK    1  A    between atoms: C_2  and  C_3 
REMARK    2  A    between atoms: C_3  and  O_6 
REMARK    3  A    between atoms: C_3  and  C_4 
REMARK    4  A    between atoms: C_7  and  O_6 
REMARK    5  A    between atoms: C_9  and  C_10 
REMARK    6  A    between atoms: N_15  and  C_14 
REMARK    7  A    between atoms: N_20  and  C_19 
REMARK       I    between atoms: C_22  and  N_20 
ROOT
ATOM      1  C   LIG d   1       2.748  86.372 114.637  0.00  0.00     0.161 C 
ATOM      2  C   LIG d   1       3.902  86.072 115.380  0.00  0.00     0.016 C 
ATOM      3  C   LIG d   1       4.944  85.245 114.900  0.00  0.00     0.038 C 
ATOM      4  C   LIG d   1       4.971  84.781 113.576  0.00  0.00     0.028 C 
ATOM      5  C   LIG d   1       3.586  84.641 112.954  0.00  0.00    -0.047 C 
ATOM      6  C   LIG d   1       2.812  85.965 113.150  0.00  0.00     0.091 C 
ENDROOT
BRANCH   1   7
ATOM      7  O   LIG d   1       2.438  87.774 114.760  0.00  0.00    -0.368 OA
BRANCH   7   8
ATOM      8  C   LIG d   1       2.738  88.383 116.040  0.00  0.00     0.119 C 
BRANCH   8   9
ATOM      9  C   LIG d   1       1.397  88.661 116.745  0.00  0.00     0.028 C 
ATOM     10  C   LIG d   1       0.697  89.919 116.202  0.00  0.00     0.006 C 
ENDBRANCH   8   9
BRANCH   8  11
ATOM     11  C   LIG d   1       3.395  89.755 115.863  0.00  0.00     0.028 C 
ATOM     12  C   LIG d   1       4.913  89.725 116.107  0.00  0.00     0.006 C 
ENDBRANCH   8  11
ENDBRANCH   7   8
ENDBRANCH   1   7
BRANCH   6  13
ATOM     13  N   LIG d   1       1.417  85.885 112.645  0.00  0.00    -0.311 N 
ATOM     14  C   LIG d   1       1.074  86.174 111.391  0.00  0.00     0.210 C 
ATOM     15  C   LIG d   1      -0.422  86.047 111.084  0.00  0.00     0.109 C 
ATOM     16  O   LIG d   1       1.870  86.493 110.495  0.00  0.00    -0.276 OA
ATOM     17  H   LIG d   1       0.711  85.605 113.297  0.00  0.00     0.149 HD
ENDBRANCH   6  13
BRANCH   5  18
ATOM     18  N   LIG d   1       3.769  84.282 111.535  0.00  0.00     0.381 N 
ATOM     19  H   LIG d   1       3.930  85.109 110.995  0.00  0.00    -0.090 HD
ATOM     20  H   LIG d   1       2.928  83.845 111.199  0.00  0.00    -0.090 HD
ATOM     21  H   LIG d   1       4.539  83.657 111.438  0.00  0.00    -0.090 HD
ENDBRANCH   5  18
BRANCH   3  22
ATOM     22  C   LIG d   1       5.953  84.842 115.760  0.00  0.00     0.382 C 
ATOM     23  O   LIG d   1       6.208  85.516 116.787  0.00  0.00    -0.241 OA
ATOM     24  O   LIG d   1       6.642  83.837 115.500  0.00  0.00    -0.241 OA
ENDBRANCH   3  22
TORSDOF 7
ENDMDL
MODEL 5
REMARK VINA RESULT:      -4.8      9.197     12.061
REMARK  7 active torsions:
REMARK  status: ('A' for Active; 'I' for Inactive)
REMARK    1  A    between atoms: C_2  and  C_3 
REMARK    2  A    between atoms: C_3  and  O_6 
REMARK    3  A    between atoms: C_3  and  C_4 
REMARK    4  A    between atoms: C_7  and  O_6 
REMARK    5  A    between atoms: C_9  and  C_10 
REMARK    6  A    between atoms: N_15  and  C_14 
REMARK    7  A    between atoms: N_20  and  C_19 
REMARK       I    between atoms: C_22  and  N_20 
ROOT
ATOM      1  C   LIG d   1      -2.835  76.679 114.425  0.00  0.00     0.161 C 
ATOM      2  C   LIG d   1      -3.796  77.134 113.507  0.00  0.00     0.016 C 
ATOM      3  C   LIG d   1      -5.115  76.628 113.445  0.00  0.00     0.038 C 
ATOM      4  C   LIG d   1      -5.611  75.733 114.404  0.00  0.00     0.028 C 
ATOM      5  C   LIG d   1      -4.530  74.868 115.043  0.00  0.00    -0.047 C 
ATOM      6  C   LIG d   1      -3.391  75.782 115.551  0.00  0.00     0.091 C 
ENDROOT
BRANCH   1   7
ATOM      7  O   LIG d   1      -2.123  77.801 114.984  0.00  0.00    -0.368 OA
BRANCH   7   8
ATOM      8  C   LIG d   1      -2.872  79.035 115.105  0.00  0.00     0.119 C 
BRANCH   8   9
ATOM      9  C   LIG d   1      -1.971  80.175 114.591  0.00  0.00     0.028 C 
ATOM     10  C   LIG d   1      -2.522  80.828 113.312  0.00  0.00     0.006 C 
ENDBRANCH   8   9
BRANCH   8  11
ATOM     11  C   LIG d   1      -3.157  79.372 116.571  0.00  0.00     0.028 C 
ATOM     12  C   LIG d   1      -1.949  80.000 117.284  0.00  0.00     0.006 C 
ENDBRANCH   8  11
ENDBRANCH   7   8
ENDBRANCH   1   7
BRANCH   6  13
ATOM     13  N   LIG d   1      -2.253  75.010 116.115  0.00  0.00    -0.311 N 
ATOM     14  C   LIG d   1      -1.660  75.316 117.267  0.00  0.00     0.210 C 
ATOM     15  C   LIG d   1      -0.493  74.402 117.655  0.00  0.00     0.109 C 
ATOM     16  O   LIG d   1      -2.009  76.237 118.021  0.00  0.00    -0.276 OA
ATOM     17  H   LIG d   1      -1.926  74.227 115.583  0.00  0.00     0.149 HD
ENDBRANCH   6  13
BRANCH   5  18
ATOM     18  N   LIG d   1      -5.164  74.082 116.117  0.00  0.00     0.381 N 
ATOM     19  H   LIG d   1      -6.143  73.985 115.933  0.00  0.00    -0.090 HD
ATOM     20  H   LIG d   1      -5.054  74.573 116.987  0.00  0.00    -0.090 HD
ATOM     21  H   LIG d   1      -4.739  73.183 116.179  0.00  0.00    -0.090 HD
ENDBRANCH   5  18
BRANCH   3  22
ATOM     22  C   LIG d   1      -5.940  76.989 112.391  0.00  0.00     0.382 C 
ATOM     23  O   LIG d   1      -7.144  77.269 112.605  0.00  0.00    -0.241 OA
ATOM     24  O   LIG d   1      -5.508  76.994 111.223  0.00  0.00    -0.241 OA
ENDBRANCH   3  22
TORSDOF 7
ENDMDL
MODEL 6
REMARK VINA RESULT:      -4.7     10.932     13.769
REMARK  7 active torsions:
REMARK  status: ('A' for Active; 'I' for Inactive)
REMARK    1  A    between atoms: C_2  and  C_3 
REMARK    2  A    between atoms: C_3  and  O_6 
REMARK    3  A    between atoms: C_3  and  C_4 
REMARK    4  A    between atoms: C_7  and  O_6 
REMARK    5  A    between atoms: C_9  and  C_10 
REMARK    6  A    between atoms: N_15  and  C_14 
REMARK    7  A    between atoms: N_20  and  C_19 
REMARK       I    between atoms: C_22  and  N_20 
ROOT
ATOM      1  C   LIG d   1      -5.425  76.985 117.099  0.00  0.00     0.161 C 
ATOM      2  C   LIG d   1      -6.506  76.101 116.947  0.00  0.00     0.016 C 
ATOM      3  C   LIG d   1      -7.847  76.458 117.215  0.00  0.00     0.038 C 
ATOM      4  C   LIG d   1      -8.218  77.778 117.512  0.00  0.00     0.028 C 
ATOM      5  C   LIG d   1      -7.104  78.587 118.169  0.00  0.00    -0.047 C 
ATOM      6  C   LIG d   1      -5.822  78.461 117.315  0.00  0.00     0.091 C 
ENDROOT
BRANCH   1   7
ATOM      7  O   LIG d   1      -4.534  76.866 115.973  0.00  0.00    -0.368 OA
BRANCH   7   8
ATOM      8  C   LIG d   1      -4.106  75.522 115.638  0.00  0.00     0.119 C 
BRANCH   8   9
ATOM      9  C   LIG d   1      -2.567  75.529 115.574  0.00  0.00     0.028 C 
ATOM     10  C   LIG d   1      -1.978  76.940 115.741  0.00  0.00     0.006 C 
ENDBRANCH   8   9
BRANCH   8  11
ATOM     11  C   LIG d   1      -4.569  75.124 114.234  0.00  0.00     0.028 C 
ATOM     12  C   LIG d   1      -5.130  76.310 113.433  0.00  0.00     0.006 C 
ENDBRANCH   8  11
ENDBRANCH   7   8
ENDBRANCH   1   7
BRANCH   6  13
ATOM     13  N   LIG d   1      -4.660  79.154 117.930  0.00  0.00    -0.311 N 
ATOM     14  C   LIG d   1      -3.795  79.891 117.237  0.00  0.00     0.210 C 
ATOM     15  C   LIG d   1      -2.658  80.501 118.063  0.00  0.00     0.109 C 
ATOM     16  O   LIG d   1      -3.879  80.125 116.022  0.00  0.00    -0.276 OA
ATOM     17  H   LIG d   1      -4.534  79.043 118.918  0.00  0.00     0.149 HD
ENDBRANCH   6  13
BRANCH   5  18
ATOM     18  N   LIG d   1      -7.579  79.978 118.297  0.00  0.00     0.381 N 
ATOM     19  H   LIG d   1      -7.443  80.297 119.235  0.00  0.00    -0.090 HD
ATOM     20  H   LIG d   1      -8.563  80.005 118.094  0.00  0.00    -0.090 HD
ATOM     21  H   LIG d   1      -7.085  80.566 117.662  0.00  0.00    -0.090 HD
ENDBRANCH   5  18
BRANCH   3  22
ATOM     22  C   LIG d   1      -8.830  75.480 117.228  0.00  0.00     0.382 C 
ATOM     23  O   LIG d   1     -10.041  75.808 117.244  0.00  0.00    -0.241 OA
ATOM     24  O   LIG d   1      -8.520  74.274 117.268  0.00  0.00    -0.241 OA
ENDBRANCH   3  22
TORSDOF 7
ENDMDL
MODEL 7
REMARK VINA RESULT:      -4.7      6.631      8.913
REMARK  7 active torsions:
REMARK  status: ('A' for Active; 'I' for Inactive)
REMARK    1  A    between atoms: C_2  and  C_3 
REMARK    2  A    between atoms: C_3  and  O_6 
REMARK    3  A    between atoms: C_3  and  C_4 
REMARK    4  A    between atoms: C_7  and  O_6 
REMARK    5  A    between atoms: C_9  and  C_10 
REMARK    6  A    between atoms: N_15  and  C_14 
REMARK    7  A    between atoms: N_20  and  C_19 
REMARK       I    between atoms: C_22  and  N_20 
ROOT
ATOM      1  C   LIG d   1      -1.992  79.649 114.442  0.00  0.00     0.161 C 
ATOM      2  C   LIG d   1      -0.990  80.591 114.155  0.00  0.00     0.016 C 
ATOM      3  C   LIG d   1      -0.307  80.650 112.918  0.00  0.00     0.038 C 
ATOM      4  C   LIG d   1      -0.689  79.861 111.823  0.00  0.00     0.028 C 
ATOM      5  C   LIG d   1      -1.357  78.550 112.224  0.00  0.00    -0.047 C 
ATOM      6  C   LIG d   1      -2.499  78.853 113.221  0.00  0.00     0.091 C 
ENDROOT
BRANCH   1   7
ATOM      7  O   LIG d   1      -3.093  80.295 115.111  0.00  0.00    -0.368 OA
BRANCH   7   8
ATOM      8  C   LIG d   1      -3.396  79.818 116.445  0.00  0.00     0.119 C 
BRANCH   8   9
ATOM      9  C   LIG d   1      -3.239  81.009 117.410  0.00  0.00     0.028 C 
ATOM     10  C   LIG d   1      -4.569  81.408 118.071  0.00  0.00     0.006 C 
ENDBRANCH   8   9
BRANCH   8  11
ATOM     11  C   LIG d   1      -2.371  78.780 116.912  0.00  0.00     0.028 C 
ATOM     12  C   LIG d   1      -3.025  77.487 117.425  0.00  0.00     0.006 C 
ENDBRANCH   8  11
ENDBRANCH   7   8
ENDBRANCH   1   7
BRANCH   6  13
ATOM     13  N   LIG d   1      -3.151  77.618 113.729  0.00  0.00    -0.311 N 
ATOM     14  C   LIG d   1      -4.240  77.084 113.178  0.00  0.00     0.210 C 
ATOM     15  C   LIG d   1      -4.761  75.820 113.870  0.00  0.00     0.109 C 
ATOM     16  O   LIG d   1      -4.804  77.518 112.163  0.00  0.00    -0.276 OA
ATOM     17  H   LIG d   1      -2.740  77.182 114.531  0.00  0.00     0.149 HD
ENDBRANCH   6  13
BRANCH   5  18
ATOM     18  N   LIG d   1      -1.827  77.894 110.989  0.00  0.00     0.381 N 
ATOM     19  H   LIG d   1      -1.950  76.914 111.152  0.00  0.00    -0.090 HD
ATOM     20  H   LIG d   1      -1.131  78.009 110.274  0.00  0.00    -0.090 HD
ATOM     21  H   LIG d   1      -2.688  78.299 110.694  0.00  0.00    -0.090 HD
ENDBRANCH   5  18
BRANCH   3  22
ATOM     22  C   LIG d   1       0.797  81.477 112.781  0.00  0.00     0.382 C 
ATOM     23  O   LIG d   1       1.947  81.032 113.011  0.00  0.00    -0.241 OA
ATOM     24  O   LIG d   1       0.653  82.676 112.473  0.00  0.00    -0.241 OA
ENDBRANCH   3  22
TORSDOF 7
ENDMDL
MODEL 8
REMARK VINA RESULT:      -4.6      3.087      5.583
REMARK  7 active torsions:
REMARK  status: ('A' for Active; 'I' for Inactive)
REMARK    1  A    between atoms: C_2  and  C_3 
REMARK    2  A    between atoms: C_3  and  O_6 
REMARK    3  A    between atoms: C_3  and  C_4 
REMARK    4  A    between atoms: C_7  and  O_6 
REMARK    5  A    between atoms: C_9  and  C_10 
REMARK    6  A    between atoms: N_15  and  C_14 
REMARK    7  A    between atoms: N_20  and  C_19 
REMARK       I    between atoms: C_22  and  N_20 
ROOT
ATOM      1  C   LIG d   1       3.478  87.134 115.672  0.00  0.00     0.161 C 
ATOM      2  C   LIG d   1       3.762  86.078 114.789  0.00  0.00     0.016 C 
ATOM      3  C   LIG d   1       4.464  86.248 113.573  0.00  0.00     0.038 C 
ATOM      4  C   LIG d   1       5.065  87.468 113.228  0.00  0.00     0.028 C 
ATOM      5  C   LIG d   1       4.374  88.679 113.845  0.00  0.00    -0.047 C 
ATOM      6  C   LIG d   1       4.223  88.450 115.366  0.00  0.00     0.091 C 
ENDROOT
BRANCH   1   7
ATOM      7  O   LIG d   1       3.733  86.718 117.028  0.00  0.00    -0.368 OA
BRANCH   7   8
ATOM      8  C   LIG d   1       4.796  85.750 117.209  0.00  0.00     0.119 C 
BRANCH   8   9
ATOM      9  C   LIG d   1       4.343  84.765 118.305  0.00  0.00     0.028 C 
ATOM     10  C   LIG d   1       2.934  84.206 118.046  0.00  0.00     0.006 C 
ENDBRANCH   8   9
BRANCH   8  11
ATOM     11  C   LIG d   1       6.064  86.411 117.756  0.00  0.00     0.028 C 
ATOM     12  C   LIG d   1       7.209  86.443 116.732  0.00  0.00     0.006 C 
ENDBRANCH   8  11
ENDBRANCH   7   8
ENDBRANCH   1   7
BRANCH   6  13
ATOM     13  N   LIG d   1       3.481  89.552 116.034  0.00  0.00    -0.311 N 
ATOM     14  C   LIG d   1       4.065  90.659 116.487  0.00  0.00     0.210 C 
ATOM     15  C   LIG d   1       3.120  91.659 117.161  0.00  0.00     0.109 C 
ATOM     16  O   LIG d   1       5.271  90.923 116.367  0.00  0.00    -0.276 OA
ATOM     17  H   LIG d   1       2.493  89.434 116.145  0.00  0.00     0.149 HD
ENDBRANCH   6  13
BRANCH   5  18
ATOM     18  N   LIG d   1       5.183  89.868 113.516  0.00  0.00     0.381 N 
ATOM     19  H   LIG d   1       5.518  89.801 112.576  0.00  0.00    -0.090 HD
ATOM     20  H   LIG d   1       5.977  89.902 114.132  0.00  0.00    -0.090 HD
ATOM     21  H   LIG d   1       4.635  90.694 113.624  0.00  0.00    -0.090 HD
ENDBRANCH   5  18
BRANCH   3  22
ATOM     22  C   LIG d   1       4.535  85.199 112.669  0.00  0.00     0.382 C 
ATOM     23  O   LIG d   1       3.973  85.296 111.551  0.00  0.00    -0.241 OA
ATOM     24  O   LIG d   1       5.116  84.141 112.973  0.00  0.00    -0.241 OA
ENDBRANCH   3  22
TORSDOF 7
ENDMDL
MODEL 9
REMARK VINA RESULT:      -4.5      1.736      2.167
REMARK  7 active torsions:
REMARK  status: ('A' for Active; 'I' for Inactive)
REMARK    1  A    between atoms: C_2  and  C_3 
REMARK    2  A    between atoms: C_3  and  O_6 
REMARK    3  A    between atoms: C_3  and  C_4 
REMARK    4  A    between atoms: C_7  and  O_6 
REMARK    5  A    between atoms: C_9  and  C_10 
REMARK    6  A    between atoms: N_15  and  C_14 
REMARK    7  A    between atoms: N_20  and  C_19 
REMARK       I    between atoms: C_22  and  N_20 
ROOT
ATOM      1  C   LIG d   1       3.346  84.477 113.830  0.00  0.00     0.161 C 
ATOM      2  C   LIG d   1       3.921  85.753 113.946  0.00  0.00     0.016 C 
ATOM      3  C   LIG d   1       3.871  86.725 112.920  0.00  0.00     0.038 C 
ATOM      4  C   LIG d   1       3.106  86.539 111.759  0.00  0.00     0.028 C 
ATOM      5  C   LIG d   1       2.926  85.072 111.381  0.00  0.00    -0.047 C 
ATOM      6  C   LIG d   1       2.413  84.296 112.615  0.00  0.00     0.091 C 
ENDROOT
BRANCH   1   7
ATOM      7  O   LIG d   1       2.653  84.141 115.049  0.00  0.00    -0.368 OA
BRANCH   7   8
ATOM      8  C   LIG d   1       3.479  83.674 116.144  0.00  0.00     0.119 C 
BRANCH   8   9
ATOM      9  C   LIG d   1       2.952  82.287 116.562  0.00  0.00     0.028 C 
ATOM     10  C   LIG d   1       1.654  81.908 115.830  0.00  0.00     0.006 C 
ENDBRANCH   8   9
BRANCH   8  11
ATOM     11  C   LIG d   1       3.316  84.560 117.382  0.00  0.00     0.028 C 
ATOM     12  C   LIG d   1       2.236  85.639 117.205  0.00  0.00     0.006 C 
ENDBRANCH   8  11
ENDBRANCH   7   8
ENDBRANCH   1   7
BRANCH   6  13
ATOM     13  N   LIG d   1       2.289  82.837 112.356  0.00  0.00    -0.311 N 
ATOM     14  C   LIG d   1       1.147  82.249 112.005  0.00  0.00     0.210 C 
ATOM     15  C   LIG d   1       1.235  80.733 111.806  0.00  0.00     0.109 C 
ATOM     16  O   LIG d   1       0.076  82.844 111.809  0.00  0.00    -0.276 OA
ATOM     17  H   LIG d   1       3.117  82.284 112.462  0.00  0.00     0.149 HD
ENDBRANCH   6  13
BRANCH   5  18
ATOM     18  N   LIG d   1       1.998  85.018 110.236  0.00  0.00     0.381 N 
ATOM     19  H   LIG d   1       1.175  84.510 110.491  0.00  0.00    -0.090 HD
ATOM     20  H   LIG d   1       2.445  84.534 109.478  0.00  0.00    -0.090 HD
ATOM     21  H   LIG d   1       1.752  85.941 109.952  0.00  0.00    -0.090 HD
ENDBRANCH   5  18
BRANCH   3  22
ATOM     22  C   LIG d   1       4.625  87.884 113.034  0.00  0.00     0.382 C 
ATOM     23  O   LIG d   1       4.055  88.986 113.218  0.00  0.00    -0.241 OA
ATOM     24  O   LIG d   1       5.864  87.846 112.910  0.00  0.00    -0.241 OA
ENDBRANCH   3  22
TORSDOF 7
ENDMDL
