MODEL 1
REMARK VINA RESULT:      -5.5      0.000      0.000
REMARK  7 active torsions:
REMARK  status: ('A' for Active; 'I' for Inactive)
REMARK    1  A    between atoms: C_2  and  C_3 
REMARK    2  A    between atoms: C_3  and  O_6 
REMARK    3  A    between atoms: C_3  and  C_4 
REMARK    4  A    between atoms: C_7  and  O_6 
REMARK    5  A    between atoms: C_9  and  C_10 
REMARK    6  A    between atoms: N_15  and  C_14 
REMARK    7  A    between atoms: N_20  and  C_19 
REMARK       I    between atoms: C_22  and  N_20 
ROOT
ATOM      1  C   LIG d   1       1.583  85.763 113.360  0.00  0.00     0.161 C 
ATOM      2  C   LIG d   1       1.720  87.094 112.933  0.00  0.00     0.016 C 
ATOM      3  C   LIG d   1       2.543  88.040 113.587  0.00  0.00     0.038 C 
ATOM      4  C   LIG d   1       3.408  87.675 114.629  0.00  0.00     0.028 C 
ATOM      5  C   LIG d   1       2.929  86.460 115.417  0.00  0.00    -0.047 C 
ATOM      6  C   LIG d   1       2.604  85.317 114.428  0.00  0.00     0.091 C 
ENDROOT
BRANCH   1   7
ATOM      7  O   LIG d   1       1.629  84.878 112.223  0.00  0.00    -0.368 OA
BRANCH   7   8
ATOM      8  C   LIG d   1       1.644  85.514 110.921  0.00  0.00     0.119 C 
BRANCH   8   9
ATOM      9  C   LIG d   1       0.410  85.012 110.147  0.00  0.00     0.028 C 
ATOM     10  C   LIG d   1      -0.778  85.984 110.241  0.00  0.00     0.006 C 
ENDBRANCH   8   9
BRANCH   8  11
ATOM     11  C   LIG d   1       2.852  85.063 110.095  0.00  0.00     0.028 C 
ATOM     12  C   LIG d   1       3.830  84.190 110.897  0.00  0.00     0.006 C 
ENDBRANCH   8  11
ENDBRANCH   7   8
ENDBRANCH   1   7
BRANCH   6  13
ATOM     13  N   LIG d   1       2.048  84.119 115.109  0.00  0.00    -0.311 N 
ATOM     14  C   LIG d   1       2.801  83.121 115.569  0.00  0.00     0.210 C 
ATOM     15  C   LIG d   1       2.026  81.972 116.220  0.00  0.00     0.109 C 
ATOM     16  O   LIG d   1       4.040  83.094 115.527  0.00  0.00    -0.276 OA
ATOM     17  H   LIG d   1       1.053  84.074 115.214  0.00  0.00     0.149 HD
ENDBRANCH   6  13
BRANCH   5  18
ATOM     18  N   LIG d   1       3.989  86.107 116.380  0.00  0.00     0.381 N 
ATOM     19  H   LIG d   1       4.831  86.596 116.151  0.00  0.00    -0.090 HD
ATOM     20  H   LIG d   1       4.170  85.120 116.317  0.00  0.00    -0.090 HD
ATOM     21  H   LIG d   1       3.701  86.341 117.305  0.00  0.00    -0.090 HD
ENDBRANCH   5  18
BRANCH   3  22
ATOM     22  C   LIG d   1       2.476  89.376 113.224  0.00  0.00     0.382 C 
ATOM     23  O   LIG d   1       3.225  90.215 113.781  0.00  0.00    -0.241 OA
ATOM     24  O   LIG d   1       1.647  89.760 112.378  0.00  0.00    -0.241 OA
ENDBRANCH   3  22
TORSDOF 7
ENDMDL
MODEL 2
REMARK VINA RESULT:      -5.2      2.385      4.838
REMARK  7 active torsions:
REMARK  status: ('A' for Active; 'I' for Inactive)
REMARK    1  A    between atoms: C_2  and  C_3 
REMARK    2  A    between atoms: C_3  and  O_6 
REMARK    3  A    between atoms: C_3  and  C_4 
REMARK    4  A    between atoms: C_7  and  O_6 
REMARK    5  A    between atoms: C_9  and  C_10 
REMARK    6  A    between atoms: N_15  and  C_14 
REMARK    7  A    between atoms: N_20  and  C_19 
REMARK       I    between atoms: C_22  and  N_20 
ROOT
ATOM      1  C   LIG d   1       4.089  86.157 113.417  0.00  0.00     0.161 C 
ATOM      2  C   LIG d   1       3.740  87.441 113.867  0.00  0.00     0.016 C 
ATOM      3  C   LIG d   1       2.783  88.258 113.222  0.00  0.00     0.038 C 
ATOM      4  C   LIG d   1       1.995  87.783 112.163  0.00  0.00     0.028 C 
ATOM      5  C   LIG d   1       2.666  86.675 111.359  0.00  0.00    -0.047 C 
ATOM      6  C   LIG d   1       3.160  85.578 112.329  0.00  0.00     0.091 C 
ENDROOT
BRANCH   1   7
ATOM      7  O   LIG d   1       4.174  85.253 114.536  0.00  0.00    -0.368 OA
BRANCH   7   8
ATOM      8  C   LIG d   1       4.017  85.848 115.848  0.00  0.00     0.119 C 
BRANCH   8   9
ATOM      9  C   LIG d   1       5.274  85.495 116.669  0.00  0.00     0.028 C 
ATOM     10  C   LIG d   1       6.384  86.550 116.524  0.00  0.00     0.006 C 
ENDBRANCH   8   9
BRANCH   8  11
ATOM     11  C   LIG d   1       2.847  85.219 116.609  0.00  0.00     0.028 C 
ATOM     12  C   LIG d   1       1.634  86.156 116.718  0.00  0.00     0.006 C 
ENDBRANCH   8  11
ENDBRANCH   7   8
ENDBRANCH   1   7
BRANCH   6  13
ATOM     13  N   LIG d   1       3.903  84.496 111.632  0.00  0.00    -0.311 N 
ATOM     14  C   LIG d   1       3.326  83.384 111.180  0.00  0.00     0.210 C 
ATOM     15  C   LIG d   1       4.278  82.389 110.508  0.00  0.00     0.109 C 
ATOM     16  O   LIG d   1       2.111  83.142 111.243  0.00  0.00    -0.276 OA
ATOM     17  H   LIG d   1       4.888  84.625 111.510  0.00  0.00     0.149 HD
ENDBRANCH   6  13
BRANCH   5  18
ATOM     18  N   LIG d   1       1.683  86.179 110.377  0.00  0.00     0.381 N 
ATOM     19  H   LIG d   1       2.034  86.309 109.450  0.00  0.00    -0.090 HD
ATOM     20  H   LIG d   1       0.834  86.709 110.470  0.00  0.00    -0.090 HD
ATOM     21  H   LIG d   1       1.498  85.213 110.538  0.00  0.00    -0.090 HD
ENDBRANCH   5  18
BRANCH   3  22
ATOM     22  C   LIG d   1       2.635  89.581 113.611  0.00  0.00     0.382 C 
ATOM     23  O   LIG d   1       1.957  89.864 114.628  0.00  0.00    -0.241 OA
ATOM     24  O   LIG d   1       3.135  90.498 112.932  0.00  0.00    -0.241 OA
ENDBRANCH   3  22
TORSDOF 7
ENDMDL
MODEL 3
REMARK VINA RESULT:      -4.7      2.706      4.858
REMARK  7 active torsions:
REMARK  status: ('A' for Active; 'I' for Inactive)
REMARK    1  A    between atoms: C_2  and  C_3 
REMARK    2  A    between atoms: C_3  and  O_6 
REMARK    3  A    between atoms: C_3  and  C_4 
REMARK    4  A    between atoms: C_7  and  O_6 
REMARK    5  A    between atoms: C_9  and  C_10 
REMARK    6  A    between atoms: N_15  and  C_14 
REMARK    7  A    between atoms: N_20  and  C_19 
REMARK       I    between atoms: C_22  and  N_20 
ROOT
ATOM      1  C   LIG d   1       3.042  87.192 115.126  0.00  0.00     0.161 C 
ATOM      2  C   LIG d   1       2.218  86.910 114.023  0.00  0.00     0.016 C 
ATOM      3  C   LIG d   1       2.633  87.071 112.681  0.00  0.00     0.038 C 
ATOM      4  C   LIG d   1       3.959  87.383 112.347  0.00  0.00     0.028 C 
ATOM      5  C   LIG d   1       4.688  88.167 113.433  0.00  0.00    -0.047 C 
ATOM      6  C   LIG d   1       4.527  87.427 114.780  0.00  0.00     0.091 C 
ENDROOT
BRANCH   1   7
ATOM      7  O   LIG d   1       2.916  86.147 116.110  0.00  0.00    -0.368 OA
BRANCH   7   8
ATOM      8  C   LIG d   1       2.716  84.807 115.595  0.00  0.00     0.119 C 
BRANCH   8   9
ATOM      9  C   LIG d   1       1.795  84.064 116.582  0.00  0.00     0.028 C 
ATOM     10  C   LIG d   1       1.212  84.997 117.656  0.00  0.00     0.006 C 
ENDBRANCH   8   9
BRANCH   8  11
ATOM     11  C   LIG d   1       4.026  84.013 115.586  0.00  0.00     0.028 C 
ATOM     12  C   LIG d   1       4.916  84.319 116.801  0.00  0.00     0.006 C 
ENDBRANCH   8  11
ENDBRANCH   7   8
ENDBRANCH   1   7
BRANCH   6  13
ATOM     13  N   LIG d   1       5.140  88.171 115.912  0.00  0.00    -0.311 N 
ATOM     14  C   LIG d   1       6.360  87.915 116.382  0.00  0.00     0.210 C 
ATOM     15  C   LIG d   1       6.792  88.785 117.567  0.00  0.00     0.109 C 
ATOM     16  O   LIG d   1       7.138  87.073 115.909  0.00  0.00    -0.276 OA
ATOM     17  H   LIG d   1       4.590  88.893 116.335  0.00  0.00     0.149 HD
ENDBRANCH   6  13
BRANCH   5  18
ATOM     18  N   LIG d   1       6.096  88.305 113.014  0.00  0.00     0.381 N 
ATOM     19  H   LIG d   1       6.210  87.946 112.086  0.00  0.00    -0.090 HD
ATOM     20  H   LIG d   1       6.674  87.765 113.633  0.00  0.00    -0.090 HD
ATOM     21  H   LIG d   1       6.369  89.262 113.043  0.00  0.00    -0.090 HD
ENDBRANCH   5  18
BRANCH   3  22
ATOM     22  C   LIG d   1       1.705  86.958 111.657  0.00  0.00     0.382 C 
ATOM     23  O   LIG d   1       0.484  87.120 111.897  0.00  0.00    -0.241 OA
ATOM     24  O   LIG d   1       2.068  86.652 110.506  0.00  0.00    -0.241 OA
ENDBRANCH   3  22
TORSDOF 7
ENDMDL
MODEL 4
REMARK VINA RESULT:      -4.7      4.893      7.593
REMARK  7 active torsions:
REMARK  status: ('A' for Active; 'I' for Inactive)
REMARK    1  A    between atoms: C_2  and  C_3 
REMARK    2  A    between atoms: C_3  and  O_6 
REMARK    3  A    between atoms: C_3  and  C_4 
REMARK    4  A    between atoms: C_7  and  O_6 
REMARK    5  A    between atoms: C_9  and  C_10 
REMARK    6  A    between atoms: N_15  and  C_14 
REMARK    7  A    between atoms: N_20  and  C_19 
REMARK       I    between atoms: C_22  and  N_20 
ROOT
ATOM      1  C   LIG d   1      -0.081  80.406 112.808  0.00  0.00     0.161 C 
ATOM      2  C   LIG d   1      -1.139  79.820 112.092  0.00  0.00     0.016 C 
ATOM      3  C   LIG d   1      -2.159  79.053 112.700  0.00  0.00     0.038 C 
ATOM      4  C   LIG d   1      -2.276  78.946 114.093  0.00  0.00     0.028 C 
ATOM      5  C   LIG d   1      -0.947  79.100 114.826  0.00  0.00    -0.047 C 
ATOM      6  C   LIG d   1      -0.253  80.393 114.341  0.00  0.00     0.091 C 
ENDROOT
BRANCH   1   7
ATOM      7  O   LIG d   1       0.139  81.751 112.339  0.00  0.00    -0.368 OA
BRANCH   7   8
ATOM      8  C   LIG d   1       0.954  81.886 111.149  0.00  0.00     0.119 C 
BRANCH   8   9
ATOM      9  C   LIG d   1       2.421  81.658 111.564  0.00  0.00     0.028 C 
ATOM     10  C   LIG d   1       3.084  80.518 110.773  0.00  0.00     0.006 C 
ENDBRANCH   8   9
BRANCH   8  11
ATOM     11  C   LIG d   1       0.906  83.315 110.600  0.00  0.00     0.028 C 
ATOM     12  C   LIG d   1      -0.401  84.044 110.949  0.00  0.00     0.006 C 
ENDBRANCH   8  11
ENDBRANCH   7   8
ENDBRANCH   1   7
BRANCH   6  13
ATOM     13  N   LIG d   1       1.092  80.576 114.946  0.00  0.00    -0.311 N 
ATOM     14  C   LIG d   1       1.295  81.187 116.112  0.00  0.00     0.210 C 
ATOM     15  C   LIG d   1       2.761  81.286 116.544  0.00  0.00     0.109 C 
ATOM     16  O   LIG d   1       0.396  81.627 116.845  0.00  0.00    -0.276 OA
ATOM     17  H   LIG d   1       1.875  80.221 114.433  0.00  0.00     0.149 HD
ENDBRANCH   6  13
BRANCH   5  18
ATOM     18  N   LIG d   1      -1.234  79.105 116.273  0.00  0.00     0.381 N 
ATOM     19  H   LIG d   1      -2.116  78.665 116.445  0.00  0.00    -0.090 HD
ATOM     20  H   LIG d   1      -1.289  80.057 116.590  0.00  0.00    -0.090 HD
ATOM     21  H   LIG d   1      -0.513  78.624 116.765  0.00  0.00    -0.090 HD
ENDBRANCH   5  18
BRANCH   3  22
ATOM     22  C   LIG d   1      -3.054  78.350 111.908  0.00  0.00     0.382 C 
ATOM     23  O   LIG d   1      -2.691  77.909 110.791  0.00  0.00    -0.241 OA
ATOM     24  O   LIG d   1      -4.233  78.190 112.277  0.00  0.00    -0.241 OA
ENDBRANCH   3  22
TORSDOF 7
ENDMDL
MODEL 5
REMARK VINA RESULT:      -4.4     10.183     12.386
REMARK  7 active torsions:
REMARK  status: ('A' for Active; 'I' for Inactive)
REMARK    1  A    between atoms: C_2  and  C_3 
REMARK    2  A    between atoms: C_3  and  O_6 
REMARK    3  A    between atoms: C_3  and  C_4 
REMARK    4  A    between atoms: C_7  and  O_6 
REMARK    5  A    between atoms: C_9  and  C_10 
REMARK    6  A    between atoms: N_15  and  C_14 
REMARK    7  A    between atoms: N_20  and  C_19 
REMARK       I    between atoms: C_22  and  N_20 
ROOT
ATOM      1  C   LIG d   1      12.432  79.017 115.460  0.00  0.00     0.161 C 
ATOM      2  C   LIG d   1      11.143  78.458 115.433  0.00  0.00     0.016 C 
ATOM      3  C   LIG d   1       9.980  79.165 115.818  0.00  0.00     0.038 C 
ATOM      4  C   LIG d   1      10.010  80.536 116.114  0.00  0.00     0.028 C 
ATOM      5  C   LIG d   1      11.359  81.012 116.641  0.00  0.00    -0.047 C 
ATOM      6  C   LIG d   1      12.470  80.544 115.674  0.00  0.00     0.091 C 
ENDROOT
BRANCH   1   7
ATOM      7  O   LIG d   1      13.143  78.661 114.258  0.00  0.00    -0.368 OA
BRANCH   7   8
ATOM      8  C   LIG d   1      12.336  78.486 113.067  0.00  0.00     0.119 C 
BRANCH   8   9
ATOM      9  C   LIG d   1      12.938  77.315 112.268  0.00  0.00     0.028 C 
ATOM     10  C   LIG d   1      14.363  77.614 111.772  0.00  0.00     0.006 C 
ENDBRANCH   8   9
BRANCH   8  11
ATOM     11  C   LIG d   1      12.437  79.703 112.143  0.00  0.00     0.028 C 
ATOM     12  C   LIG d   1      11.209  80.623 112.232  0.00  0.00     0.006 C 
ENDBRANCH   8  11
ENDBRANCH   7   8
ENDBRANCH   1   7
BRANCH   6  13
ATOM     13  N   LIG d   1      13.830  80.896 116.159  0.00  0.00    -0.311 N 
ATOM     14  C   LIG d   1      14.798  81.349 115.364  0.00  0.00     0.210 C 
ATOM     15  C   LIG d   1      16.131  81.632 116.064  0.00  0.00     0.109 C 
ATOM     16  O   LIG d   1      14.670  81.573 114.151  0.00  0.00    -0.276 OA
ATOM     17  H   LIG d   1      14.012  80.774 117.136  0.00  0.00     0.149 HD
ENDBRANCH   6  13
BRANCH   5  18
ATOM     18  N   LIG d   1      11.292  82.480 116.777  0.00  0.00     0.381 N 
ATOM     19  H   LIG d   1      11.350  82.733 117.743  0.00  0.00    -0.090 HD
ATOM     20  H   LIG d   1      10.409  82.799 116.420  0.00  0.00    -0.090 HD
ATOM     21  H   LIG d   1      12.037  82.904 116.270  0.00  0.00    -0.090 HD
ENDBRANCH   5  18
BRANCH   3  22
ATOM     22  C   LIG d   1       8.777  78.489 115.948  0.00  0.00     0.382 C 
ATOM     23  O   LIG d   1       8.587  77.730 116.929  0.00  0.00    -0.241 OA
ATOM     24  O   LIG d   1       7.895  78.595 115.074  0.00  0.00    -0.241 OA
ENDBRANCH   3  22
TORSDOF 7
ENDMDL
MODEL 6
REMARK VINA RESULT:      -4.4     27.171     30.008
REMARK  7 active torsions:
REMARK  status: ('A' for Active; 'I' for Inactive)
REMARK    1  A    between atoms: C_2  and  C_3 
REMARK    2  A    between atoms: C_3  and  O_6 
REMARK    3  A    between atoms: C_3  and  C_4 
REMARK    4  A    between atoms: C_7  and  O_6 
REMARK    5  A    between atoms: C_9  and  C_10 
REMARK    6  A    between atoms: N_15  and  C_14 
REMARK    7  A    between atoms: N_20  and  C_19 
REMARK       I    between atoms: C_22  and  N_20 
ROOT
ATOM      1  C   LIG d   1     -16.407  63.362 116.775  0.00  0.00     0.161 C 
ATOM      2  C   LIG d   1     -15.786  64.473 117.372  0.00  0.00     0.016 C 
ATOM      3  C   LIG d   1     -15.468  65.657 116.669  0.00  0.00     0.038 C 
ATOM      4  C   LIG d   1     -15.889  65.871 115.348  0.00  0.00     0.028 C 
ATOM      5  C   LIG d   1     -16.074  64.582 114.555  0.00  0.00    -0.047 C 
ATOM      6  C   LIG d   1     -16.974  63.620 115.363  0.00  0.00     0.091 C 
ENDROOT
BRANCH   1   7
ATOM      7  O   LIG d   1     -17.439  62.854 117.644  0.00  0.00    -0.368 OA
BRANCH   7   8
ATOM      8  C   LIG d   1     -17.184  61.562 118.248  0.00  0.00     0.119 C 
BRANCH   8   9
ATOM      9  C   LIG d   1     -15.844  61.045 117.688  0.00  0.00     0.028 C 
ATOM     10  C   LIG d   1     -15.743  59.511 117.730  0.00  0.00     0.006 C 
ENDBRANCH   8   9
BRANCH   8  11
ATOM     11  C   LIG d   1     -18.229  60.529 117.817  0.00  0.00     0.028 C 
ATOM     12  C   LIG d   1     -19.660  61.089 117.826  0.00  0.00     0.006 C 
ENDBRANCH   8  11
ENDBRANCH   7   8
ENDBRANCH   1   7
BRANCH   6  13
ATOM     13  N   LIG d   1     -17.136  62.301 114.697  0.00  0.00    -0.311 N 
ATOM     14  C   LIG d   1     -18.320  61.784 114.375  0.00  0.00     0.210 C 
ATOM     15  C   LIG d   1     -18.264  60.403 113.713  0.00  0.00     0.109 C 
ATOM     16  O   LIG d   1     -19.410  62.350 114.547  0.00  0.00    -0.276 OA
ATOM     17  H   LIG d   1     -16.302  61.787 114.493  0.00  0.00     0.149 HD
ENDBRANCH   6  13
BRANCH   5  18
ATOM     18  N   LIG d   1     -16.645  64.943 113.244  0.00  0.00     0.381 N 
ATOM     19  H   LIG d   1     -16.785  65.933 113.196  0.00  0.00    -0.090 HD
ATOM     20  H   LIG d   1     -17.537  64.493 113.143  0.00  0.00    -0.090 HD
ATOM     21  H   LIG d   1     -16.033  64.652 112.513  0.00  0.00    -0.090 HD
ENDBRANCH   5  18
BRANCH   3  22
ATOM     22  C   LIG d   1     -14.686  66.628 117.277  0.00  0.00     0.382 C 
ATOM     23  O   LIG d   1     -15.230  67.578 117.890  0.00  0.00    -0.241 OA
ATOM     24  O   LIG d   1     -13.445  66.590 117.181  0.00  0.00    -0.241 OA
ENDBRANCH   3  22
TORSDOF 7
ENDMDL
MODEL 7
REMARK VINA RESULT:      -4.3     10.844     13.224
REMARK  7 active torsions:
REMARK  status: ('A' for Active; 'I' for Inactive)
REMARK    1  A    between atoms: C_2  and  C_3 
REMARK    2  A    between atoms: C_3  and  O_6 
REMARK    3  A    between atoms: C_3  and  C_4 
REMARK    4  A    between atoms: C_7  and  O_6 
REMARK    5  A    between atoms: C_9  and  C_10 
REMARK    6  A    between atoms: N_15  and  C_14 
REMARK    7  A    between atoms: N_20  and  C_19 
REMARK       I    between atoms: C_22  and  N_20 
ROOT
ATOM      1  C   LIG d   1      13.259  79.028 115.061  0.00  0.00     0.161 C 
ATOM      2  C   LIG d   1      12.289  79.755 115.771  0.00  0.00     0.016 C 
ATOM      3  C   LIG d   1      11.275  80.516 115.146  0.00  0.00     0.038 C 
ATOM      4  C   LIG d   1      11.068  80.479 113.759  0.00  0.00     0.028 C 
ATOM      5  C   LIG d   1      12.331  80.161 112.966  0.00  0.00    -0.047 C 
ATOM      6  C   LIG d   1      12.982  78.886 113.549  0.00  0.00     0.091 C 
ENDROOT
BRANCH   1   7
ATOM      7  O   LIG d   1      13.434  77.730 115.662  0.00  0.00    -0.368 OA
BRANCH   7   8
ATOM      8  C   LIG d   1      12.425  76.739 115.346  0.00  0.00     0.119 C 
BRANCH   8   9
ATOM      9  C   LIG d   1      11.769  76.306 116.671  0.00  0.00     0.028 C 
ATOM     10  C   LIG d   1      10.311  76.782 116.788  0.00  0.00     0.006 C 
ENDBRANCH   8   9
BRANCH   8  11
ATOM     11  C   LIG d   1      13.054  75.467 114.770  0.00  0.00     0.028 C 
ATOM     12  C   LIG d   1      14.589  75.478 114.839  0.00  0.00     0.006 C 
ENDBRANCH   8  11
ENDBRANCH   7   8
ENDBRANCH   1   7
BRANCH   6  13
ATOM     13  N   LIG d   1      14.269  78.552 112.886  0.00  0.00    -0.311 N 
ATOM     14  C   LIG d   1      14.363  77.733 111.839  0.00  0.00     0.210 C 
ATOM     15  C   LIG d   1      15.787  77.509 111.320  0.00  0.00     0.109 C 
ATOM     16  O   LIG d   1      13.400  77.198 111.271  0.00  0.00    -0.276 OA
ATOM     17  H   LIG d   1      15.098  78.967 113.263  0.00  0.00     0.149 HD
ENDBRANCH   6  13
BRANCH   5  18
ATOM     18  N   LIG d   1      11.945  80.018 111.550  0.00  0.00     0.381 N 
ATOM     19  H   LIG d   1      12.734  79.719 111.012  0.00  0.00    -0.090 HD
ATOM     20  H   LIG d   1      11.646  80.912 111.203  0.00  0.00    -0.090 HD
ATOM     21  H   LIG d   1      11.206  79.355 111.464  0.00  0.00    -0.090 HD
ENDBRANCH   5  18
BRANCH   3  22
ATOM     22  C   LIG d   1      10.479  81.358 115.908  0.00  0.00     0.382 C 
ATOM     23  O   LIG d   1      10.504  81.280 117.160  0.00  0.00    -0.241 OA
ATOM     24  O   LIG d   1       9.703  82.162 115.359  0.00  0.00    -0.241 OA
ENDBRANCH   3  22
TORSDOF 7
ENDMDL
MODEL 8
REMARK VINA RESULT:      -4.3     11.624     13.956
REMARK  7 active torsions:
REMARK  status: ('A' for Active; 'I' for Inactive)
REMARK    1  A    between atoms: C_2  and  C_3 
REMARK    2  A    between atoms: C_3  and  O_6 
REMARK    3  A    between atoms: C_3  and  C_4 
REMARK    4  A    between atoms: C_7  and  O_6 
REMARK    5  A    between atoms: C_9  and  C_10 
REMARK    6  A    between atoms: N_15  and  C_14 
REMARK    7  A    between atoms: N_20  and  C_19 
REMARK       I    between atoms: C_22  and  N_20 
ROOT
ATOM      1  C   LIG d   1      13.808  80.515 113.999  0.00  0.00     0.161 C 
ATOM      2  C   LIG d   1      12.602  80.781 114.669  0.00  0.00     0.016 C 
ATOM      3  C   LIG d   1      11.408  80.059 114.437  0.00  0.00     0.038 C 
ATOM      4  C   LIG d   1      11.378  78.917 113.623  0.00  0.00     0.028 C 
ATOM      5  C   LIG d   1      12.450  78.918 112.538  0.00  0.00    -0.047 C 
ATOM      6  C   LIG d   1      13.823  79.202 113.190  0.00  0.00     0.091 C 
ENDROOT
BRANCH   1   7
ATOM      7  O   LIG d   1      14.902  80.539 114.936  0.00  0.00    -0.368 OA
BRANCH   7   8
ATOM      8  C   LIG d   1      15.723  81.733 114.927  0.00  0.00     0.119 C 
BRANCH   8   9
ATOM      9  C   LIG d   1      17.088  81.352 114.322  0.00  0.00     0.028 C 
ATOM     10  C   LIG d   1      17.527  79.930 114.711  0.00  0.00     0.006 C 
ENDBRANCH   8   9
BRANCH   8  11
ATOM     11  C   LIG d   1      16.030  82.209 116.350  0.00  0.00     0.028 C 
ATOM     12  C   LIG d   1      14.762  82.421 117.193  0.00  0.00     0.006 C 
ENDBRANCH   8  11
ENDBRANCH   7   8
ENDBRANCH   1   7
BRANCH   6  13
ATOM     13  N   LIG d   1      14.915  79.303 112.187  0.00  0.00    -0.311 N 
ATOM     14  C   LIG d   1      15.715  78.287 111.869  0.00  0.00     0.210 C 
ATOM     15  C   LIG d   1      16.790  78.612 110.827  0.00  0.00     0.109 C 
ATOM     16  O   LIG d   1      15.617  77.139 112.328  0.00  0.00    -0.276 OA
ATOM     17  H   LIG d   1      15.046  80.191 111.743  0.00  0.00     0.149 HD
ENDBRANCH   6  13
BRANCH   5  18
ATOM     18  N   LIG d   1      12.393  77.612 111.855  0.00  0.00     0.381 N 
ATOM     19  H   LIG d   1      11.575  77.565 111.281  0.00  0.00    -0.090 HD
ATOM     20  H   LIG d   1      12.335  76.885 112.547  0.00  0.00    -0.090 HD
ATOM     21  H   LIG d   1      13.208  77.484 111.296  0.00  0.00    -0.090 HD
ENDBRANCH   5  18
BRANCH   3  22
ATOM     22  C   LIG d   1      10.218  80.504 114.992  0.00  0.00     0.382 C 
ATOM     23  O   LIG d   1       9.340  79.677 115.339  0.00  0.00    -0.241 OA
ATOM     24  O   LIG d   1       9.992  81.723 115.109  0.00  0.00    -0.241 OA
ENDBRANCH   3  22
TORSDOF 7
ENDMDL
MODEL 9
REMARK VINA RESULT:      -4.2     11.217     14.108
REMARK  7 active torsions:
REMARK  status: ('A' for Active; 'I' for Inactive)
REMARK    1  A    between atoms: C_2  and  C_3 
REMARK    2  A    between atoms: C_3  and  O_6 
REMARK    3  A    between atoms: C_3  and  C_4 
REMARK    4  A    between atoms: C_7  and  O_6 
REMARK    5  A    between atoms: C_9  and  C_10 
REMARK    6  A    between atoms: N_15  and  C_14 
REMARK    7  A    between atoms: N_20  and  C_19 
REMARK       I    between atoms: C_22  and  N_20 
ROOT
ATOM      1  C   LIG d   1      13.244  77.765 114.752  0.00  0.00     0.161 C 
ATOM      2  C   LIG d   1      13.657  76.424 114.691  0.00  0.00     0.016 C 
ATOM      3  C   LIG d   1      12.907  75.354 115.231  0.00  0.00     0.038 C 
ATOM      4  C   LIG d   1      11.612  75.537 115.737  0.00  0.00     0.028 C 
ATOM      5  C   LIG d   1      11.366  76.942 116.277  0.00  0.00    -0.047 C 
ATOM      6  C   LIG d   1      11.783  77.972 115.202  0.00  0.00     0.091 C 
ENDROOT
BRANCH   1   7
ATOM      7  O   LIG d   1      13.472  78.405 113.481  0.00  0.00    -0.368 OA
BRANCH   7   8
ATOM      8  C   LIG d   1      12.914  77.737 112.322  0.00  0.00     0.119 C 
BRANCH   8   9
ATOM      9  C   LIG d   1      14.049  77.566 111.295  0.00  0.00     0.028 C 
ATOM     10  C   LIG d   1      15.327  78.319 111.701  0.00  0.00     0.006 C 
ENDBRANCH   8   9
BRANCH   8  11
ATOM     11  C   LIG d   1      11.866  78.611 111.627  0.00  0.00     0.028 C 
ATOM     12  C   LIG d   1      11.885  80.068 112.117  0.00  0.00     0.006 C 
ENDBRANCH   8  11
ENDBRANCH   7   8
ENDBRANCH   1   7
BRANCH   6  13
ATOM     13  N   LIG d   1      11.653  79.374 115.680  0.00  0.00    -0.311 N 
ATOM     14  C   LIG d   1      10.565  80.117 115.485  0.00  0.00     0.210 C 
ATOM     15  C   LIG d   1      10.648  81.542 116.041  0.00  0.00     0.109 C 
ATOM     16  O   LIG d   1       9.528  79.721 114.933  0.00  0.00    -0.276 OA
ATOM     17  H   LIG d   1      12.437  79.764 116.165  0.00  0.00     0.149 HD
ENDBRANCH   6  13
BRANCH   5  18
ATOM     18  N   LIG d   1       9.940  77.035 116.644  0.00  0.00     0.381 N 
ATOM     19  H   LIG d   1       9.380  76.587 115.947  0.00  0.00    -0.090 HD
ATOM     20  H   LIG d   1       9.677  78.004 116.684  0.00  0.00    -0.090 HD
ATOM     21  H   LIG d   1       9.788  76.606 117.530  0.00  0.00    -0.090 HD
ENDBRANCH   5  18
BRANCH   3  22
ATOM     22  C   LIG d   1      13.469  74.088 115.303  0.00  0.00     0.382 C 
ATOM     23  O   LIG d   1      14.714  73.950 115.232  0.00  0.00    -0.241 OA
ATOM     24  O   LIG d   1      12.744  73.079 115.393  0.00  0.00    -0.241 OA
ENDBRANCH   3  22
TORSDOF 7
ENDMDL
