MODEL 1
REMARK VINA RESULT:      -6.2      0.000      0.000
REMARK  7 active torsions:
REMARK  status: ('A' for Active; 'I' for Inactive)
REMARK    1  A    between atoms: C_2  and  C_3 
REMARK    2  A    between atoms: C_3  and  O_6 
REMARK    3  A    between atoms: C_3  and  C_4 
REMARK    4  A    between atoms: C_7  and  O_6 
REMARK    5  A    between atoms: C_9  and  C_10 
REMARK    6  A    between atoms: N_15  and  C_14 
REMARK    7  A    between atoms: N_20  and  C_19 
REMARK       I    between atoms: C_22  and  N_20 
ROOT
ATOM      1  C   LIG d   1      -7.224  76.217 117.404  0.00  0.00     0.161 C 
ATOM      2  C   LIG d   1      -8.260  77.138 117.632  0.00  0.00     0.016 C 
ATOM      3  C   LIG d   1      -8.079  78.540 117.591  0.00  0.00     0.038 C 
ATOM      4  C   LIG d   1      -6.874  79.119 117.167  0.00  0.00     0.028 C 
ATOM      5  C   LIG d   1      -5.656  78.235 117.414  0.00  0.00    -0.047 C 
ATOM      6  C   LIG d   1      -5.929  76.830 116.830  0.00  0.00     0.091 C 
ENDROOT
BRANCH   1   7
ATOM      7  O   LIG d   1      -7.695  75.154 116.552  0.00  0.00    -0.368 OA
BRANCH   7   8
ATOM      8  C   LIG d   1      -7.946  73.882 117.200  0.00  0.00     0.119 C 
BRANCH   8   9
ATOM      9  C   LIG d   1      -6.941  72.864 116.628  0.00  0.00     0.028 C 
ATOM     10  C   LIG d   1      -7.630  71.742 115.835  0.00  0.00     0.006 C 
ENDBRANCH   8   9
BRANCH   8  11
ATOM     11  C   LIG d   1      -9.330  73.335 116.836  0.00  0.00     0.028 C 
ATOM     12  C   LIG d   1     -10.368  74.445 116.606  0.00  0.00     0.006 C 
ENDBRANCH   8  11
ENDBRANCH   7   8
ENDBRANCH   1   7
BRANCH   6  13
ATOM     13  N   LIG d   1      -4.822  75.877 117.104  0.00  0.00    -0.311 N 
ATOM     14  C   LIG d   1      -4.149  75.241 116.146  0.00  0.00     0.210 C 
ATOM     15  C   LIG d   1      -3.059  74.288 116.646  0.00  0.00     0.109 C 
ATOM     16  O   LIG d   1      -4.330  75.399 114.930  0.00  0.00    -0.276 OA
ATOM     17  H   LIG d   1      -4.588  75.713 118.063  0.00  0.00     0.149 HD
ENDBRANCH   6  13
BRANCH   5  18
ATOM     18  N   LIG d   1      -4.491  78.899 116.801  0.00  0.00     0.381 N 
ATOM     19  H   LIG d   1      -3.664  78.363 116.977  0.00  0.00    -0.090 HD
ATOM     20  H   LIG d   1      -4.374  79.804 117.222  0.00  0.00    -0.090 HD
ATOM     21  H   LIG d   1      -4.631  78.996 115.820  0.00  0.00    -0.090 HD
ENDBRANCH   5  18
BRANCH   3  22
ATOM     22  C   LIG d   1      -9.099  79.377 118.016  0.00  0.00     0.382 C 
ATOM     23  O   LIG d   1     -10.278  78.953 118.068  0.00  0.00    -0.241 OA
ATOM     24  O   LIG d   1      -8.861  80.565 118.305  0.00  0.00    -0.241 OA
ENDBRANCH   3  22
TORSDOF 7
ENDMDL
MODEL 2
REMARK VINA RESULT:      -5.9      2.620      5.594
REMARK  7 active torsions:
REMARK  status: ('A' for Active; 'I' for Inactive)
REMARK    1  A    between atoms: C_2  and  C_3 
REMARK    2  A    between atoms: C_3  and  O_6 
REMARK    3  A    between atoms: C_3  and  C_4 
REMARK    4  A    between atoms: C_7  and  O_6 
REMARK    5  A    between atoms: C_9  and  C_10 
REMARK    6  A    between atoms: N_15  and  C_14 
REMARK    7  A    between atoms: N_20  and  C_19 
REMARK       I    between atoms: C_22  and  N_20 
ROOT
ATOM      1  C   LIG d   1      -5.426  74.728 116.348  0.00  0.00     0.161 C 
ATOM      2  C   LIG d   1      -6.095  73.530 116.047  0.00  0.00     0.016 C 
ATOM      3  C   LIG d   1      -7.503  73.402 116.056  0.00  0.00     0.038 C 
ATOM      4  C   LIG d   1      -8.348  74.509 116.221  0.00  0.00     0.028 C 
ATOM      5  C   LIG d   1      -7.715  75.638 117.028  0.00  0.00    -0.047 C 
ATOM      6  C   LIG d   1      -6.333  75.975 116.422  0.00  0.00     0.091 C 
ENDROOT
BRANCH   1   7
ATOM      7  O   LIG d   1      -4.357  74.942 115.406  0.00  0.00    -0.368 OA
BRANCH   7   8
ATOM      8  C   LIG d   1      -3.061  74.416 115.782  0.00  0.00     0.119 C 
BRANCH   8   9
ATOM      9  C   LIG d   1      -2.765  74.895 117.216  0.00  0.00     0.028 C 
ATOM     10  C   LIG d   1      -1.709  74.026 117.920  0.00  0.00     0.006 C 
ENDBRANCH   8   9
BRANCH   8  11
ATOM     11  C   LIG d   1      -1.945  75.011 114.917  0.00  0.00     0.028 C 
ATOM     12  C   LIG d   1      -1.127  73.940 114.180  0.00  0.00     0.006 C 
ENDBRANCH   8  11
ENDBRANCH   7   8
ENDBRANCH   1   7
BRANCH   6  13
ATOM     13  N   LIG d   1      -5.610  77.012 117.202  0.00  0.00    -0.311 N 
ATOM     14  C   LIG d   1      -4.906  77.994 116.641  0.00  0.00     0.210 C 
ATOM     15  C   LIG d   1      -4.221  78.945 117.627  0.00  0.00     0.109 C 
ATOM     16  O   LIG d   1      -4.809  78.185 115.419  0.00  0.00    -0.276 OA
ATOM     17  H   LIG d   1      -5.660  76.950 118.200  0.00  0.00     0.149 HD
ENDBRANCH   6  13
BRANCH   5  18
ATOM     18  N   LIG d   1      -8.649  76.780 117.005  0.00  0.00     0.381 N 
ATOM     19  H   LIG d   1      -9.566  76.472 117.261  0.00  0.00    -0.090 HD
ATOM     20  H   LIG d   1      -8.690  77.148 116.071  0.00  0.00    -0.090 HD
ATOM     21  H   LIG d   1      -8.340  77.486 117.635  0.00  0.00    -0.090 HD
ENDBRANCH   5  18
BRANCH   3  22
ATOM     22  C   LIG d   1      -8.079  72.146 115.938  0.00  0.00     0.382 C 
ATOM     23  O   LIG d   1      -7.364  71.151 115.666  0.00  0.00    -0.241 OA
ATOM     24  O   LIG d   1      -9.310  72.002 116.057  0.00  0.00    -0.241 OA
ENDBRANCH   3  22
TORSDOF 7
ENDMDL
MODEL 3
REMARK VINA RESULT:      -5.6      2.302      5.218
REMARK  7 active torsions:
REMARK  status: ('A' for Active; 'I' for Inactive)
REMARK    1  A    between atoms: C_2  and  C_3 
REMARK    2  A    between atoms: C_3  and  O_6 
REMARK    3  A    between atoms: C_3  and  C_4 
REMARK    4  A    between atoms: C_7  and  O_6 
REMARK    5  A    between atoms: C_9  and  C_10 
REMARK    6  A    between atoms: N_15  and  C_14 
REMARK    7  A    between atoms: N_20  and  C_19 
REMARK       I    between atoms: C_22  and  N_20 
ROOT
ATOM      1  C   LIG d   1      -5.699  74.454 116.754  0.00  0.00     0.161 C 
ATOM      2  C   LIG d   1      -6.539  73.377 116.428  0.00  0.00     0.016 C 
ATOM      3  C   LIG d   1      -7.945  73.490 116.324  0.00  0.00     0.038 C 
ATOM      4  C   LIG d   1      -8.595  74.732 116.391  0.00  0.00     0.028 C 
ATOM      5  C   LIG d   1      -7.841  75.766 117.219  0.00  0.00    -0.047 C 
ATOM      6  C   LIG d   1      -6.379  75.838 116.722  0.00  0.00     0.091 C 
ENDROOT
BRANCH   1   7
ATOM      7  O   LIG d   1      -4.539  74.446 115.898  0.00  0.00    -0.368 OA
BRANCH   7   8
ATOM      8  C   LIG d   1      -4.468  75.504 114.911  0.00  0.00     0.119 C 
BRANCH   8   9
ATOM      9  C   LIG d   1      -4.927  74.912 113.564  0.00  0.00     0.028 C 
ATOM     10  C   LIG d   1      -6.145  75.650 112.983  0.00  0.00     0.006 C 
ENDBRANCH   8   9
BRANCH   8  11
ATOM     11  C   LIG d   1      -3.023  75.958 114.683  0.00  0.00     0.028 C 
ATOM     12  C   LIG d   1      -2.221  76.070 115.989  0.00  0.00     0.006 C 
ENDBRANCH   8  11
ENDBRANCH   7   8
ENDBRANCH   1   7
BRANCH   6  13
ATOM     13  N   LIG d   1      -5.549  76.767 117.534  0.00  0.00    -0.311 N 
ATOM     14  C   LIG d   1      -5.368  78.049 117.224  0.00  0.00     0.210 C 
ATOM     15  C   LIG d   1      -4.460  78.824 118.184  0.00  0.00     0.109 C 
ATOM     16  O   LIG d   1      -5.900  78.627 116.264  0.00  0.00    -0.276 OA
ATOM     17  H   LIG d   1      -5.106  76.389 118.348  0.00  0.00     0.149 HD
ENDBRANCH   6  13
BRANCH   5  18
ATOM     18  N   LIG d   1      -8.559  77.049 117.092  0.00  0.00     0.381 N 
ATOM     19  H   LIG d   1      -9.539  76.904 117.234  0.00  0.00    -0.090 HD
ATOM     20  H   LIG d   1      -8.425  77.405 116.161  0.00  0.00    -0.090 HD
ATOM     21  H   LIG d   1      -8.212  77.702 117.758  0.00  0.00    -0.090 HD
ENDBRANCH   5  18
BRANCH   3  22
ATOM     22  C   LIG d   1      -8.719  72.348 116.190  0.00  0.00     0.382 C 
ATOM     23  O   LIG d   1      -9.914  72.352 116.571  0.00  0.00    -0.241 OA
ATOM     24  O   LIG d   1      -8.224  71.300 115.733  0.00  0.00    -0.241 OA
ENDBRANCH   3  22
TORSDOF 7
ENDMDL
MODEL 4
REMARK VINA RESULT:      -5.4      1.546      2.147
REMARK  7 active torsions:
REMARK  status: ('A' for Active; 'I' for Inactive)
REMARK    1  A    between atoms: C_2  and  C_3 
REMARK    2  A    between atoms: C_3  and  O_6 
REMARK    3  A    between atoms: C_3  and  C_4 
REMARK    4  A    between atoms: C_7  and  O_6 
REMARK    5  A    between atoms: C_9  and  C_10 
REMARK    6  A    between atoms: N_15  and  C_14 
REMARK    7  A    between atoms: N_20  and  C_19 
REMARK       I    between atoms: C_22  and  N_20 
ROOT
ATOM      1  C   LIG d   1      -5.984  76.225 117.785  0.00  0.00     0.161 C 
ATOM      2  C   LIG d   1      -6.947  77.246 117.713  0.00  0.00     0.016 C 
ATOM      3  C   LIG d   1      -6.647  78.573 117.328  0.00  0.00     0.038 C 
ATOM      4  C   LIG d   1      -5.382  78.935 116.841  0.00  0.00     0.028 C 
ATOM      5  C   LIG d   1      -4.253  78.059 117.374  0.00  0.00    -0.047 C 
ATOM      6  C   LIG d   1      -4.622  76.575 117.150  0.00  0.00     0.091 C 
ENDROOT
BRANCH   1   7
ATOM      7  O   LIG d   1      -6.511  75.015 117.205  0.00  0.00    -0.368 OA
BRANCH   7   8
ATOM      8  C   LIG d   1      -7.664  75.171 116.341  0.00  0.00     0.119 C 
BRANCH   8   9
ATOM      9  C   LIG d   1      -8.756  74.209 116.848  0.00  0.00     0.028 C 
ATOM     10  C   LIG d   1     -10.174  74.748 116.598  0.00  0.00     0.006 C 
ENDBRANCH   8   9
BRANCH   8  11
ATOM     11  C   LIG d   1      -7.354  74.717 114.912  0.00  0.00     0.028 C 
ATOM     12  C   LIG d   1      -6.739  75.833 114.052  0.00  0.00     0.006 C 
ENDBRANCH   8  11
ENDBRANCH   7   8
ENDBRANCH   1   7
BRANCH   6  13
ATOM     13  N   LIG d   1      -3.610  75.647 117.719  0.00  0.00    -0.311 N 
ATOM     14  C   LIG d   1      -2.626  75.106 117.002  0.00  0.00     0.210 C 
ATOM     15  C   LIG d   1      -1.704  74.161 117.779  0.00  0.00     0.109 C 
ATOM     16  O   LIG d   1      -2.411  75.344 115.804  0.00  0.00    -0.276 OA
ATOM     17  H   LIG d   1      -3.691  75.424 118.692  0.00  0.00     0.149 HD
ENDBRANCH   6  13
BRANCH   5  18
ATOM     18  N   LIG d   1      -3.014  78.458 116.681  0.00  0.00     0.381 N 
ATOM     19  H   LIG d   1      -2.306  77.766 116.827  0.00  0.00    -0.090 HD
ATOM     20  H   LIG d   1      -2.690  79.327 117.068  0.00  0.00    -0.090 HD
ATOM     21  H   LIG d   1      -3.188  78.565 115.706  0.00  0.00    -0.090 HD
ENDBRANCH   5  18
BRANCH   3  22
ATOM     22  C   LIG d   1      -7.607  79.563 117.468  0.00  0.00     0.382 C 
ATOM     23  O   LIG d   1      -8.743  79.275 117.916  0.00  0.00    -0.241 OA
ATOM     24  O   LIG d   1      -7.367  80.731 117.110  0.00  0.00    -0.241 OA
ENDBRANCH   3  22
TORSDOF 7
ENDMDL
MODEL 5
REMARK VINA RESULT:      -5.3     12.180     14.840
REMARK  7 active torsions:
REMARK  status: ('A' for Active; 'I' for Inactive)
REMARK    1  A    between atoms: C_2  and  C_3 
REMARK    2  A    between atoms: C_3  and  O_6 
REMARK    3  A    between atoms: C_3  and  C_4 
REMARK    4  A    between atoms: C_7  and  O_6 
REMARK    5  A    between atoms: C_9  and  C_10 
REMARK    6  A    between atoms: N_15  and  C_14 
REMARK    7  A    between atoms: N_20  and  C_19 
REMARK       I    between atoms: C_22  and  N_20 
ROOT
ATOM      1  C   LIG d   1     -16.271  65.445 114.321  0.00  0.00     0.161 C 
ATOM      2  C   LIG d   1     -15.629  66.225 113.344  0.00  0.00     0.016 C 
ATOM      3  C   LIG d   1     -15.300  67.587 113.529  0.00  0.00     0.038 C 
ATOM      4  C   LIG d   1     -15.455  68.226 114.769  0.00  0.00     0.028 C 
ATOM      5  C   LIG d   1     -16.561  67.622 115.628  0.00  0.00    -0.047 C 
ATOM      6  C   LIG d   1     -16.347  66.093 115.719  0.00  0.00     0.091 C 
ENDROOT
BRANCH   1   7
ATOM      7  O   LIG d   1     -15.642  64.151 114.403  0.00  0.00    -0.368 OA
BRANCH   7   8
ATOM      8  C   LIG d   1     -16.397  63.040 113.859  0.00  0.00     0.119 C 
BRANCH   8   9
ATOM      9  C   LIG d   1     -17.775  63.581 113.432  0.00  0.00     0.028 C 
ATOM     10  C   LIG d   1     -18.934  62.845 114.124  0.00  0.00     0.006 C 
ENDBRANCH   8   9
BRANCH   8  11
ATOM     11  C   LIG d   1     -16.689  61.986 114.931  0.00  0.00     0.028 C 
ATOM     12  C   LIG d   1     -15.693  62.035 116.101  0.00  0.00     0.006 C 
ENDBRANCH   8  11
ENDBRANCH   7   8
ENDBRANCH   1   7
BRANCH   6  13
ATOM     13  N   LIG d   1     -17.433  65.413 116.472  0.00  0.00    -0.311 N 
ATOM     14  C   LIG d   1     -17.251  64.832 117.656  0.00  0.00     0.210 C 
ATOM     15  C   LIG d   1     -18.499  64.171 118.250  0.00  0.00     0.109 C 
ATOM     16  O   LIG d   1     -16.183  64.830 118.287  0.00  0.00    -0.276 OA
ATOM     17  H   LIG d   1     -18.340  65.395 116.047  0.00  0.00     0.149 HD
ENDBRANCH   6  13
BRANCH   5  18
ATOM     18  N   LIG d   1     -16.521  68.291 116.942  0.00  0.00     0.381 N 
ATOM     19  H   LIG d   1     -16.189  67.652 117.637  0.00  0.00    -0.090 HD
ATOM     20  H   LIG d   1     -17.452  68.573 117.191  0.00  0.00    -0.090 HD
ATOM     21  H   LIG d   1     -15.924  69.088 116.900  0.00  0.00    -0.090 HD
ENDBRANCH   5  18
BRANCH   3  22
ATOM     22  C   LIG d   1     -14.846  68.337 112.455  0.00  0.00     0.382 C 
ATOM     23  O   LIG d   1     -15.303  68.126 111.306  0.00  0.00    -0.241 OA
ATOM     24  O   LIG d   1     -13.953  69.191 112.613  0.00  0.00    -0.241 OA
ENDBRANCH   3  22
TORSDOF 7
ENDMDL
MODEL 6
REMARK VINA RESULT:      -5.2      8.473     11.046
REMARK  7 active torsions:
REMARK  status: ('A' for Active; 'I' for Inactive)
REMARK    1  A    between atoms: C_2  and  C_3 
REMARK    2  A    between atoms: C_3  and  O_6 
REMARK    3  A    between atoms: C_3  and  C_4 
REMARK    4  A    between atoms: C_7  and  O_6 
REMARK    5  A    between atoms: C_9  and  C_10 
REMARK    6  A    between atoms: N_15  and  C_14 
REMARK    7  A    between atoms: N_20  and  C_19 
REMARK       I    between atoms: C_22  and  N_20 
ROOT
ATOM      1  C   LIG d   1      -0.965  82.494 112.352  0.00  0.00     0.161 C 
ATOM      2  C   LIG d   1      -1.835  81.451 112.711  0.00  0.00     0.016 C 
ATOM      3  C   LIG d   1      -1.563  80.088 112.454  0.00  0.00     0.038 C 
ATOM      4  C   LIG d   1      -0.325  79.661 111.952  0.00  0.00     0.028 C 
ATOM      5  C   LIG d   1       0.383  80.715 111.108  0.00  0.00    -0.047 C 
ATOM      6  C   LIG d   1       0.440  82.039 111.904  0.00  0.00     0.091 C 
ENDROOT
BRANCH   1   7
ATOM      7  O   LIG d   1      -0.864  83.441 113.434  0.00  0.00    -0.368 OA
BRANCH   7   8
ATOM      8  C   LIG d   1       0.091  83.119 114.475  0.00  0.00     0.119 C 
BRANCH   8   9
ATOM      9  C   LIG d   1      -0.710  82.709 115.727  0.00  0.00     0.028 C 
ATOM     10  C   LIG d   1       0.200  82.342 116.911  0.00  0.00     0.006 C 
ENDBRANCH   8   9
BRANCH   8  11
ATOM     11  C   LIG d   1       0.896  84.352 114.894  0.00  0.00     0.028 C 
ATOM     12  C   LIG d   1       0.503  85.615 114.111  0.00  0.00     0.006 C 
ENDBRANCH   8  11
ENDBRANCH   7   8
ENDBRANCH   1   7
BRANCH   6  13
ATOM     13  N   LIG d   1       1.042  83.147 111.118  0.00  0.00    -0.311 N 
ATOM     14  C   LIG d   1       2.242  83.663 111.378  0.00  0.00     0.210 C 
ATOM     15  C   LIG d   1       2.665  84.813 110.458  0.00  0.00     0.109 C 
ATOM     16  O   LIG d   1       3.010  83.256 112.263  0.00  0.00    -0.276 OA
ATOM     17  H   LIG d   1       0.500  83.517 110.361  0.00  0.00     0.149 HD
ENDBRANCH   6  13
BRANCH   5  18
ATOM     18  N   LIG d   1       1.718  80.189 110.766  0.00  0.00     0.381 N 
ATOM     19  H   LIG d   1       2.424  80.748 111.200  0.00  0.00    -0.090 HD
ATOM     20  H   LIG d   1       1.842  80.242 109.770  0.00  0.00    -0.090 HD
ATOM     21  H   LIG d   1       1.800  79.243 111.068  0.00  0.00    -0.090 HD
ENDBRANCH   5  18
BRANCH   3  22
ATOM     22  C   LIG d   1      -2.552  79.139 112.663  0.00  0.00     0.382 C 
ATOM     23  O   LIG d   1      -3.302  79.225 113.665  0.00  0.00    -0.241 OA
ATOM     24  O   LIG d   1      -2.675  78.173 111.886  0.00  0.00    -0.241 OA
ENDBRANCH   3  22
TORSDOF 7
ENDMDL
MODEL 7
REMARK VINA RESULT:      -5.2     12.424     15.220
REMARK  7 active torsions:
REMARK  status: ('A' for Active; 'I' for Inactive)
REMARK    1  A    between atoms: C_2  and  C_3 
REMARK    2  A    between atoms: C_3  and  O_6 
REMARK    3  A    between atoms: C_3  and  C_4 
REMARK    4  A    between atoms: C_7  and  O_6 
REMARK    5  A    between atoms: C_9  and  C_10 
REMARK    6  A    between atoms: N_15  and  C_14 
REMARK    7  A    between atoms: N_20  and  C_19 
REMARK       I    between atoms: C_22  and  N_20 
ROOT
ATOM      1  C   LIG d   1     -16.522  65.005 114.140  0.00  0.00     0.161 C 
ATOM      2  C   LIG d   1     -16.162  65.965 113.179  0.00  0.00     0.016 C 
ATOM      3  C   LIG d   1     -15.332  67.075 113.461  0.00  0.00     0.038 C 
ATOM      4  C   LIG d   1     -14.680  67.219 114.694  0.00  0.00     0.028 C 
ATOM      5  C   LIG d   1     -15.414  66.548 115.850  0.00  0.00    -0.047 C 
ATOM      6  C   LIG d   1     -15.730  65.085 115.462  0.00  0.00     0.091 C 
ENDROOT
BRANCH   1   7
ATOM      7  O   LIG d   1     -16.420  63.684 113.574  0.00  0.00    -0.368 OA
BRANCH   7   8
ATOM      8  C   LIG d   1     -17.672  63.000 113.320  0.00  0.00     0.119 C 
BRANCH   8   9
ATOM      9  C   LIG d   1     -18.809  64.008 113.575  0.00  0.00     0.028 C 
ATOM     10  C   LIG d   1     -19.636  64.291 112.309  0.00  0.00     0.006 C 
ENDBRANCH   8   9
BRANCH   8  11
ATOM     11  C   LIG d   1     -17.901  61.868 114.325  0.00  0.00     0.028 C 
ATOM     12  C   LIG d   1     -16.723  60.883 114.393  0.00  0.00     0.006 C 
ENDBRANCH   8  11
ENDBRANCH   7   8
ENDBRANCH   1   7
BRANCH   6  13
ATOM     13  N   LIG d   1     -16.522  64.381 116.504  0.00  0.00    -0.311 N 
ATOM     14  C   LIG d   1     -16.073  63.322 117.175  0.00  0.00     0.210 C 
ATOM     15  C   LIG d   1     -17.058  62.735 118.192  0.00  0.00     0.109 C 
ATOM     16  O   LIG d   1     -14.941  62.833 117.049  0.00  0.00    -0.276 OA
ATOM     17  H   LIG d   1     -17.441  64.731 116.693  0.00  0.00     0.149 HD
ENDBRANCH   6  13
BRANCH   5  18
ATOM     18  N   LIG d   1     -14.558  66.657 117.046  0.00  0.00     0.381 N 
ATOM     19  H   LIG d   1     -14.959  67.307 117.692  0.00  0.00    -0.090 HD
ATOM     20  H   LIG d   1     -13.656  67.003 116.769  0.00  0.00    -0.090 HD
ATOM     21  H   LIG d   1     -14.461  65.765 117.478  0.00  0.00    -0.090 HD
ENDBRANCH   5  18
BRANCH   3  22
ATOM     22  C   LIG d   1     -15.181  68.077 112.514  0.00  0.00     0.382 C 
ATOM     23  O   LIG d   1     -15.511  67.868 111.322  0.00  0.00    -0.241 OA
ATOM     24  O   LIG d   1     -14.677  69.172 112.829  0.00  0.00    -0.241 OA
ENDBRANCH   3  22
TORSDOF 7
ENDMDL
MODEL 8
REMARK VINA RESULT:      -5.2     10.785     13.182
REMARK  7 active torsions:
REMARK  status: ('A' for Active; 'I' for Inactive)
REMARK    1  A    between atoms: C_2  and  C_3 
REMARK    2  A    between atoms: C_3  and  O_6 
REMARK    3  A    between atoms: C_3  and  C_4 
REMARK    4  A    between atoms: C_7  and  O_6 
REMARK    5  A    between atoms: C_9  and  C_10 
REMARK    6  A    between atoms: N_15  and  C_14 
REMARK    7  A    between atoms: N_20  and  C_19 
REMARK       I    between atoms: C_22  and  N_20 
ROOT
ATOM      1  C   LIG d   1       2.251  83.760 113.644  0.00  0.00     0.161 C 
ATOM      2  C   LIG d   1       1.245  82.915 113.148  0.00  0.00     0.016 C 
ATOM      3  C   LIG d   1      -0.136  83.191 113.274  0.00  0.00     0.038 C 
ATOM      4  C   LIG d   1      -0.604  84.414 113.776  0.00  0.00     0.028 C 
ATOM      5  C   LIG d   1       0.363  85.081 114.748  0.00  0.00    -0.047 C 
ATOM      6  C   LIG d   1       1.762  85.152 114.095  0.00  0.00     0.091 C 
ENDROOT
BRANCH   1   7
ATOM      7  O   LIG d   1       3.304  83.891 112.669  0.00  0.00    -0.368 OA
BRANCH   7   8
ATOM      8  C   LIG d   1       2.908  83.759 111.281  0.00  0.00     0.119 C 
BRANCH   8   9
ATOM      9  C   LIG d   1       4.063  83.065 110.534  0.00  0.00     0.028 C 
ATOM     10  C   LIG d   1       3.784  81.574 110.276  0.00  0.00     0.006 C 
ENDBRANCH   8   9
BRANCH   8  11
ATOM     11  C   LIG d   1       2.757  85.128 110.612  0.00  0.00     0.028 C 
ATOM     12  C   LIG d   1       1.307  85.435 110.204  0.00  0.00     0.006 C 
ENDBRANCH   8  11
ENDBRANCH   7   8
ENDBRANCH   1   7
BRANCH   6  13
ATOM     13  N   LIG d   1       2.788  85.714 115.012  0.00  0.00    -0.311 N 
ATOM     14  C   LIG d   1       3.087  87.011 115.070  0.00  0.00     0.210 C 
ATOM     15  C   LIG d   1       4.189  87.375 116.070  0.00  0.00     0.109 C 
ATOM     16  O   LIG d   1       2.522  87.898 114.412  0.00  0.00    -0.276 OA
ATOM     17  H   LIG d   1       3.273  85.069 115.604  0.00  0.00     0.149 HD
ENDBRANCH   6  13
BRANCH   5  18
ATOM     18  N   LIG d   1      -0.187  86.407 115.085  0.00  0.00     0.381 N 
ATOM     19  H   LIG d   1       0.527  86.975 115.496  0.00  0.00    -0.090 HD
ATOM     20  H   LIG d   1      -0.925  86.293 115.757  0.00  0.00    -0.090 HD
ATOM     21  H   LIG d   1      -0.541  86.848 114.264  0.00  0.00    -0.090 HD
ENDBRANCH   5  18
BRANCH   3  22
ATOM     22  C   LIG d   1      -1.065  82.220 112.933  0.00  0.00     0.382 C 
ATOM     23  O   LIG d   1      -1.535  82.183 111.770  0.00  0.00    -0.241 OA
ATOM     24  O   LIG d   1      -1.472  81.408 113.785  0.00  0.00    -0.241 OA
ENDBRANCH   3  22
TORSDOF 7
ENDMDL
MODEL 9
REMARK VINA RESULT:      -5.0      3.215      5.906
REMARK  7 active torsions:
REMARK  status: ('A' for Active; 'I' for Inactive)
REMARK    1  A    between atoms: C_2  and  C_3 
REMARK    2  A    between atoms: C_3  and  O_6 
REMARK    3  A    between atoms: C_3  and  C_4 
REMARK    4  A    between atoms: C_7  and  O_6 
REMARK    5  A    between atoms: C_9  and  C_10 
REMARK    6  A    between atoms: N_15  and  C_14 
REMARK    7  A    between atoms: N_20  and  C_19 
REMARK       I    between atoms: C_22  and  N_20 
ROOT
ATOM      1  C   LIG d   1      -3.552  74.910 115.166  0.00  0.00     0.161 C 
ATOM      2  C   LIG d   1      -2.978  76.113 114.723  0.00  0.00     0.016 C 
ATOM      3  C   LIG d   1      -3.431  77.388 115.133  0.00  0.00     0.038 C 
ATOM      4  C   LIG d   1      -4.398  77.544 116.137  0.00  0.00     0.028 C 
ATOM      5  C   LIG d   1      -5.356  76.363 116.244  0.00  0.00    -0.047 C 
ATOM      6  C   LIG d   1      -4.535  75.058 116.346  0.00  0.00     0.091 C 
ENDROOT
BRANCH   1   7
ATOM      7  O   LIG d   1      -2.515  73.964 115.493  0.00  0.00    -0.368 OA
BRANCH   7   8
ATOM      8  C   LIG d   1      -1.227  74.528 115.846  0.00  0.00     0.119 C 
BRANCH   8   9
ATOM      9  C   LIG d   1      -0.158  73.803 115.007  0.00  0.00     0.028 C 
ATOM     10  C   LIG d   1       0.202  74.572 113.724  0.00  0.00     0.006 C 
ENDBRANCH   8   9
BRANCH   8  11
ATOM     11  C   LIG d   1      -0.869  74.229 117.305  0.00  0.00     0.028 C 
ATOM     12  C   LIG d   1      -1.305  75.345 118.267  0.00  0.00     0.006 C 
ENDBRANCH   8  11
ENDBRANCH   7   8
ENDBRANCH   1   7
BRANCH   6  13
ATOM     13  N   LIG d   1      -5.395  73.846 116.370  0.00  0.00    -0.311 N 
ATOM     14  C   LIG d   1      -6.481  73.703 115.611  0.00  0.00     0.210 C 
ATOM     15  C   LIG d   1      -7.236  72.385 115.806  0.00  0.00     0.109 C 
ATOM     16  O   LIG d   1      -6.871  74.529 114.773  0.00  0.00    -0.276 OA
ATOM     17  H   LIG d   1      -5.134  73.113 117.000  0.00  0.00     0.149 HD
ENDBRANCH   6  13
BRANCH   5  18
ATOM     18  N   LIG d   1      -6.221  76.595 117.416  0.00  0.00     0.381 N 
ATOM     19  H   LIG d   1      -6.320  75.747 117.938  0.00  0.00    -0.090 HD
ATOM     20  H   LIG d   1      -7.131  76.878 117.098  0.00  0.00    -0.090 HD
ATOM     21  H   LIG d   1      -5.828  77.306 117.994  0.00  0.00    -0.090 HD
ENDBRANCH   5  18
BRANCH   3  22
ATOM     22  C   LIG d   1      -2.943  78.525 114.506  0.00  0.00     0.382 C 
ATOM     23  O   LIG d   1      -1.985  78.434 113.700  0.00  0.00    -0.241 OA
ATOM     24  O   LIG d   1      -3.418  79.645 114.770  0.00  0.00    -0.241 OA
ENDBRANCH   3  22
TORSDOF 7
ENDMDL
