MODEL 1
REMARK VINA RESULT:      -6.1      0.000      0.000
REMARK  7 active torsions:
REMARK  status: ('A' for Active; 'I' for Inactive)
REMARK    1  A    between atoms: C_2  and  C_3 
REMARK    2  A    between atoms: C_3  and  O_6 
REMARK    3  A    between atoms: C_3  and  C_4 
REMARK    4  A    between atoms: C_7  and  O_6 
REMARK    5  A    between atoms: C_9  and  C_10 
REMARK    6  A    between atoms: N_15  and  C_14 
REMARK    7  A    between atoms: N_20  and  C_19 
REMARK       I    between atoms: C_22  and  N_20 
ROOT
ATOM      1  C   LIG d   1      -0.179  83.529 112.388  0.00  0.00     0.161 C 
ATOM      2  C   LIG d   1      -1.255  82.664 112.648  0.00  0.00     0.016 C 
ATOM      3  C   LIG d   1      -1.294  81.319 112.214  0.00  0.00     0.038 C 
ATOM      4  C   LIG d   1      -0.186  80.700 111.617  0.00  0.00     0.028 C 
ATOM      5  C   LIG d   1       0.731  81.674 110.885  0.00  0.00    -0.047 C 
ATOM      6  C   LIG d   1       1.086  82.840 111.836  0.00  0.00     0.091 C 
ENDROOT
BRANCH   1   7
ATOM      7  O   LIG d   1       0.139  84.283 113.575  0.00  0.00    -0.368 OA
BRANCH   7   8
ATOM      8  C   LIG d   1      -0.133  85.705 113.519  0.00  0.00     0.119 C 
BRANCH   8   9
ATOM      9  C   LIG d   1      -1.264  86.000 114.523  0.00  0.00     0.028 C 
ATOM     10  C   LIG d   1      -0.730  86.428 115.900  0.00  0.00     0.006 C 
ENDBRANCH   8   9
BRANCH   8  11
ATOM     11  C   LIG d   1      -0.689  86.112 112.151  0.00  0.00     0.028 C 
ATOM     12  C   LIG d   1       0.226  87.097 111.406  0.00  0.00     0.006 C 
ENDBRANCH   8  11
ENDBRANCH   7   8
ENDBRANCH   1   7
BRANCH   6  13
ATOM     13  N   LIG d   1       1.912  83.882 111.172  0.00  0.00    -0.311 N 
ATOM     14  C   LIG d   1       2.981  84.441 111.737  0.00  0.00     0.210 C 
ATOM     15  C   LIG d   1       3.677  85.508 110.888  0.00  0.00     0.109 C 
ATOM     16  O   LIG d   1       3.436  84.131 112.848  0.00  0.00    -0.276 OA
ATOM     17  H   LIG d   1       1.632  84.170 110.255  0.00  0.00     0.149 HD
ENDBRANCH   6  13
BRANCH   5  18
ATOM     18  N   LIG d   1       1.913  80.918 110.431  0.00  0.00     0.381 N 
ATOM     19  H   LIG d   1       2.652  81.551 110.200  0.00  0.00    -0.090 HD
ATOM     20  H   LIG d   1       1.671  80.401 109.604  0.00  0.00    -0.090 HD
ATOM     21  H   LIG d   1       2.214  80.292 111.146  0.00  0.00    -0.090 HD
ENDBRANCH   5  18
BRANCH   3  22
ATOM     22  C   LIG d   1      -2.467  80.590 112.340  0.00  0.00     0.382 C 
ATOM     23  O   LIG d   1      -3.576  81.176 112.307  0.00  0.00    -0.241 OA
ATOM     24  O   LIG d   1      -2.429  79.360 112.530  0.00  0.00    -0.241 OA
ENDBRANCH   3  22
TORSDOF 7
ENDMDL
MODEL 2
REMARK VINA RESULT:      -5.8      2.374      4.371
REMARK  7 active torsions:
REMARK  status: ('A' for Active; 'I' for Inactive)
REMARK    1  A    between atoms: C_2  and  C_3 
REMARK    2  A    between atoms: C_3  and  O_6 
REMARK    3  A    between atoms: C_3  and  C_4 
REMARK    4  A    between atoms: C_7  and  O_6 
REMARK    5  A    between atoms: C_9  and  C_10 
REMARK    6  A    between atoms: N_15  and  C_14 
REMARK    7  A    between atoms: N_20  and  C_19 
REMARK       I    between atoms: C_22  and  N_20 
ROOT
ATOM      1  C   LIG d   1       1.776  83.620 113.265  0.00  0.00     0.161 C 
ATOM      2  C   LIG d   1       0.911  82.744 112.588  0.00  0.00     0.016 C 
ATOM      3  C   LIG d   1      -0.482  82.959 112.475  0.00  0.00     0.038 C 
ATOM      4  C   LIG d   1      -1.086  84.150 112.904  0.00  0.00     0.028 C 
ATOM      5  C   LIG d   1      -0.335  84.835 114.041  0.00  0.00    -0.047 C 
ATOM      6  C   LIG d   1       1.152  84.980 113.643  0.00  0.00     0.091 C 
ENDROOT
BRANCH   1   7
ATOM      7  O   LIG d   1       2.975  83.817 112.491  0.00  0.00    -0.368 OA
BRANCH   7   8
ATOM      8  C   LIG d   1       2.804  83.876 111.054  0.00  0.00     0.119 C 
BRANCH   8   9
ATOM      9  C   LIG d   1       3.916  83.017 110.420  0.00  0.00     0.028 C 
ATOM     10  C   LIG d   1       3.465  81.569 110.165  0.00  0.00     0.006 C 
ENDBRANCH   8   9
BRANCH   8  11
ATOM     11  C   LIG d   1       3.034  85.294 110.522  0.00  0.00     0.028 C 
ATOM     12  C   LIG d   1       3.865  86.162 111.480  0.00  0.00     0.006 C 
ENDBRANCH   8  11
ENDBRANCH   7   8
ENDBRANCH   1   7
BRANCH   6  13
ATOM     13  N   LIG d   1       1.976  85.565 114.734  0.00  0.00    -0.311 N 
ATOM     14  C   LIG d   1       2.253  86.864 114.827  0.00  0.00     0.210 C 
ATOM     15  C   LIG d   1       3.136  87.253 116.017  0.00  0.00     0.109 C 
ATOM     16  O   LIG d   1       1.825  87.736 114.055  0.00  0.00    -0.276 OA
ATOM     17  H   LIG d   1       2.338  84.933 115.421  0.00  0.00     0.149 HD
ENDBRANCH   6  13
BRANCH   5  18
ATOM     18  N   LIG d   1      -0.994  86.130 114.295  0.00  0.00     0.381 N 
ATOM     19  H   LIG d   1      -0.570  86.577 115.083  0.00  0.00    -0.090 HD
ATOM     20  H   LIG d   1      -1.962  85.965 114.509  0.00  0.00    -0.090 HD
ATOM     21  H   LIG d   1      -0.919  86.714 113.491  0.00  0.00    -0.090 HD
ENDBRANCH   5  18
BRANCH   3  22
ATOM     22  C   LIG d   1      -1.292  81.957 111.963  0.00  0.00     0.382 C 
ATOM     23  O   LIG d   1      -2.528  81.978 112.179  0.00  0.00    -0.241 OA
ATOM     24  O   LIG d   1      -0.797  81.009 111.324  0.00  0.00    -0.241 OA
ENDBRANCH   3  22
TORSDOF 7
ENDMDL
MODEL 3
REMARK VINA RESULT:      -5.5      3.985      7.045
REMARK  7 active torsions:
REMARK  status: ('A' for Active; 'I' for Inactive)
REMARK    1  A    between atoms: C_2  and  C_3 
REMARK    2  A    between atoms: C_3  and  O_6 
REMARK    3  A    between atoms: C_3  and  C_4 
REMARK    4  A    between atoms: C_7  and  O_6 
REMARK    5  A    between atoms: C_9  and  C_10 
REMARK    6  A    between atoms: N_15  and  C_14 
REMARK    7  A    between atoms: N_20  and  C_19 
REMARK       I    between atoms: C_22  and  N_20 
ROOT
ATOM      1  C   LIG d   1       2.180  86.491 113.587  0.00  0.00     0.161 C 
ATOM      2  C   LIG d   1       2.972  87.583 113.195  0.00  0.00     0.016 C 
ATOM      3  C   LIG d   1       4.185  87.933 113.832  0.00  0.00     0.038 C 
ATOM      4  C   LIG d   1       4.769  87.119 114.814  0.00  0.00     0.028 C 
ATOM      5  C   LIG d   1       3.755  86.283 115.588  0.00  0.00    -0.047 C 
ATOM      6  C   LIG d   1       2.856  85.527 114.584  0.00  0.00     0.091 C 
ENDROOT
BRANCH   1   7
ATOM      7  O   LIG d   1       1.728  85.773 112.423  0.00  0.00    -0.368 OA
BRANCH   7   8
ATOM      8  C   LIG d   1       2.404  86.083 111.180  0.00  0.00     0.119 C 
BRANCH   8   9
ATOM      9  C   LIG d   1       1.351  86.040 110.056  0.00  0.00     0.028 C 
ATOM     10  C   LIG d   1      -0.088  86.085 110.598  0.00  0.00     0.006 C 
ENDBRANCH   8   9
BRANCH   8  11
ATOM     11  C   LIG d   1       3.428  85.002 110.818  0.00  0.00     0.028 C 
ATOM     12  C   LIG d   1       2.977  83.592 111.232  0.00  0.00     0.006 C 
ENDBRANCH   8  11
ENDBRANCH   7   8
ENDBRANCH   1   7
BRANCH   6  13
ATOM     13  N   LIG d   1       1.782  84.751 115.257  0.00  0.00    -0.311 N 
ATOM     14  C   LIG d   1       1.922  83.482 115.637  0.00  0.00     0.210 C 
ATOM     15  C   LIG d   1       0.685  82.863 116.296  0.00  0.00     0.109 C 
ATOM     16  O   LIG d   1       2.965  82.820 115.520  0.00  0.00    -0.276 OA
ATOM     17  H   LIG d   1       0.913  85.221 115.420  0.00  0.00     0.149 HD
ENDBRANCH   6  13
BRANCH   5  18
ATOM     18  N   LIG d   1       4.509  85.383 116.481  0.00  0.00     0.381 N 
ATOM     19  H   LIG d   1       3.875  84.788 116.976  0.00  0.00    -0.090 HD
ATOM     20  H   LIG d   1       5.011  85.937 117.153  0.00  0.00    -0.090 HD
ATOM     21  H   LIG d   1       5.147  84.832 115.950  0.00  0.00    -0.090 HD
ENDBRANCH   5  18
BRANCH   3  22
ATOM     22  C   LIG d   1       4.808  89.130 113.514  0.00  0.00     0.382 C 
ATOM     23  O   LIG d   1       5.992  89.131 113.099  0.00  0.00    -0.241 OA
ATOM     24  O   LIG d   1       4.215  90.214 113.680  0.00  0.00    -0.241 OA
ENDBRANCH   3  22
TORSDOF 7
ENDMDL
MODEL 4
REMARK VINA RESULT:      -5.5      4.265      7.397
REMARK  7 active torsions:
REMARK  status: ('A' for Active; 'I' for Inactive)
REMARK    1  A    between atoms: C_2  and  C_3 
REMARK    2  A    between atoms: C_3  and  O_6 
REMARK    3  A    between atoms: C_3  and  C_4 
REMARK    4  A    between atoms: C_7  and  O_6 
REMARK    5  A    between atoms: C_9  and  C_10 
REMARK    6  A    between atoms: N_15  and  C_14 
REMARK    7  A    between atoms: N_20  and  C_19 
REMARK       I    between atoms: C_22  and  N_20 
ROOT
ATOM      1  C   LIG d   1       2.579  87.605 114.421  0.00  0.00     0.161 C 
ATOM      2  C   LIG d   1       2.551  88.682 115.323  0.00  0.00     0.016 C 
ATOM      3  C   LIG d   1       3.608  89.611 115.458  0.00  0.00     0.038 C 
ATOM      4  C   LIG d   1       4.708  89.615 114.586  0.00  0.00     0.028 C 
ATOM      5  C   LIG d   1       5.016  88.245 113.993  0.00  0.00    -0.047 C 
ATOM      6  C   LIG d   1       3.721  87.659 113.385  0.00  0.00     0.091 C 
ENDROOT
BRANCH   1   7
ATOM      7  O   LIG d   1       1.305  87.492 113.757  0.00  0.00    -0.368 OA
BRANCH   7   8
ATOM      8  C   LIG d   1       0.600  86.239 113.939  0.00  0.00     0.119 C 
BRANCH   8   9
ATOM      9  C   LIG d   1      -0.265  86.008 112.684  0.00  0.00     0.028 C 
ATOM     10  C   LIG d   1      -0.423  84.516 112.348  0.00  0.00     0.006 C 
ENDBRANCH   8   9
BRANCH   8  11
ATOM     11  C   LIG d   1      -0.390  86.321 115.104  0.00  0.00     0.028 C 
ATOM     12  C   LIG d   1       0.023  85.447 116.299  0.00  0.00     0.006 C 
ENDBRANCH   8  11
ENDBRANCH   7   8
ENDBRANCH   1   7
BRANCH   6  13
ATOM     13  N   LIG d   1       3.915  86.283 112.857  0.00  0.00    -0.311 N 
ATOM     14  C   LIG d   1       3.433  85.872 111.685  0.00  0.00     0.210 C 
ATOM     15  C   LIG d   1       3.730  84.409 111.341  0.00  0.00     0.109 C 
ATOM     16  O   LIG d   1       2.816  86.590 110.884  0.00  0.00    -0.276 OA
ATOM     17  H   LIG d   1       4.431  85.644 113.429  0.00  0.00     0.149 HD
ENDBRANCH   6  13
BRANCH   5  18
ATOM     18  N   LIG d   1       6.093  88.420 113.001  0.00  0.00     0.381 N 
ATOM     19  H   LIG d   1       5.894  89.211 112.421  0.00  0.00    -0.090 HD
ATOM     20  H   LIG d   1       6.133  87.603 112.417  0.00  0.00    -0.090 HD
ATOM     21  H   LIG d   1       6.965  88.550 113.464  0.00  0.00    -0.090 HD
ENDBRANCH   5  18
BRANCH   3  22
ATOM     22  C   LIG d   1       3.590  90.526 116.500  0.00  0.00     0.382 C 
ATOM     23  O   LIG d   1       2.620  90.552 117.295  0.00  0.00    -0.241 OA
ATOM     24  O   LIG d   1       4.511  91.355 116.628  0.00  0.00    -0.241 OA
ENDBRANCH   3  22
TORSDOF 7
ENDMDL
MODEL 5
REMARK VINA RESULT:      -5.4      2.148      5.260
REMARK  7 active torsions:
REMARK  status: ('A' for Active; 'I' for Inactive)
REMARK    1  A    between atoms: C_2  and  C_3 
REMARK    2  A    between atoms: C_3  and  O_6 
REMARK    3  A    between atoms: C_3  and  C_4 
REMARK    4  A    between atoms: C_7  and  O_6 
REMARK    5  A    between atoms: C_9  and  C_10 
REMARK    6  A    between atoms: N_15  and  C_14 
REMARK    7  A    between atoms: N_20  and  C_19 
REMARK       I    between atoms: C_22  and  N_20 
ROOT
ATOM      1  C   LIG d   1       0.830  84.368 113.795  0.00  0.00     0.161 C 
ATOM      2  C   LIG d   1       1.420  85.625 113.586  0.00  0.00     0.016 C 
ATOM      3  C   LIG d   1       1.481  86.256 112.322  0.00  0.00     0.038 C 
ATOM      4  C   LIG d   1       0.816  85.736 111.202  0.00  0.00     0.028 C 
ATOM      5  C   LIG d   1       0.638  84.222 111.252  0.00  0.00    -0.047 C 
ATOM      6  C   LIG d   1       0.003  83.836 112.607  0.00  0.00     0.091 C 
ENDROOT
BRANCH   1   7
ATOM      7  O   LIG d   1       0.027  84.398 114.992  0.00  0.00    -0.368 OA
BRANCH   7   8
ATOM      8  C   LIG d   1       0.115  85.605 115.788  0.00  0.00     0.119 C 
BRANCH   8   9
ATOM      9  C   LIG d   1       0.122  85.182 117.270  0.00  0.00     0.028 C 
ATOM     10  C   LIG d   1       0.666  83.757 117.471  0.00  0.00     0.006 C 
ENDBRANCH   8   9
BRANCH   8  11
ATOM     11  C   LIG d   1      -1.134  86.476 115.621  0.00  0.00     0.028 C 
ATOM     12  C   LIG d   1      -1.653  87.036 116.955  0.00  0.00     0.006 C 
ENDBRANCH   8  11
ENDBRANCH   7   8
ENDBRANCH   1   7
BRANCH   6  13
ATOM     13  N   LIG d   1      -0.129  82.365 112.772  0.00  0.00    -0.311 N 
ATOM     14  C   LIG d   1      -1.231  81.687 112.456  0.00  0.00     0.210 C 
ATOM     15  C   LIG d   1      -1.162  80.180 112.724  0.00  0.00     0.109 C 
ATOM     16  O   LIG d   1      -2.246  82.186 111.948  0.00  0.00    -0.276 OA
ATOM     17  H   LIG d   1       0.660  81.876 113.149  0.00  0.00     0.149 HD
ENDBRANCH   6  13
BRANCH   5  18
ATOM     18  N   LIG d   1      -0.188  83.832 110.093  0.00  0.00     0.381 N 
ATOM     19  H   LIG d   1       0.330  83.966 109.248  0.00  0.00    -0.090 HD
ATOM     20  H   LIG d   1      -1.001  84.421 110.062  0.00  0.00    -0.090 HD
ATOM     21  H   LIG d   1      -0.462  82.878 110.176  0.00  0.00    -0.090 HD
ENDBRANCH   5  18
BRANCH   3  22
ATOM     22  C   LIG d   1       2.246  87.401 112.162  0.00  0.00     0.382 C 
ATOM     23  O   LIG d   1       1.726  88.531 112.326  0.00  0.00    -0.241 OA
ATOM     24  O   LIG d   1       3.438  87.320 111.811  0.00  0.00    -0.241 OA
ENDBRANCH   3  22
TORSDOF 7
ENDMDL
MODEL 6
REMARK VINA RESULT:      -5.3      2.765      5.784
REMARK  7 active torsions:
REMARK  status: ('A' for Active; 'I' for Inactive)
REMARK    1  A    between atoms: C_2  and  C_3 
REMARK    2  A    between atoms: C_3  and  O_6 
REMARK    3  A    between atoms: C_3  and  C_4 
REMARK    4  A    between atoms: C_7  and  O_6 
REMARK    5  A    between atoms: C_9  and  C_10 
REMARK    6  A    between atoms: N_15  and  C_14 
REMARK    7  A    between atoms: N_20  and  C_19 
REMARK       I    between atoms: C_22  and  N_20 
ROOT
ATOM      1  C   LIG d   1       3.005  84.948 113.437  0.00  0.00     0.161 C 
ATOM      2  C   LIG d   1       3.108  86.223 114.018  0.00  0.00     0.016 C 
ATOM      3  C   LIG d   1       2.740  87.414 113.352  0.00  0.00     0.038 C 
ATOM      4  C   LIG d   1       2.097  87.398 112.105  0.00  0.00     0.028 C 
ATOM      5  C   LIG d   1       2.434  86.169 111.266  0.00  0.00    -0.047 C 
ATOM      6  C   LIG d   1       2.203  84.901 112.120  0.00  0.00     0.091 C 
ENDROOT
BRANCH   1   7
ATOM      7  O   LIG d   1       2.456  84.019 114.392  0.00  0.00    -0.368 OA
BRANCH   7   8
ATOM      8  C   LIG d   1       1.020  83.833 114.346  0.00  0.00     0.119 C 
BRANCH   8   9
ATOM      9  C   LIG d   1       0.394  84.812 115.358  0.00  0.00     0.028 C 
ATOM     10  C   LIG d   1      -0.582  85.798 114.694  0.00  0.00     0.006 C 
ENDBRANCH   8   9
BRANCH   8  11
ATOM     11  C   LIG d   1       0.623  82.436 114.835  0.00  0.00     0.028 C 
ATOM     12  C   LIG d   1       0.690  81.375 113.725  0.00  0.00     0.006 C 
ENDBRANCH   8  11
ENDBRANCH   7   8
ENDBRANCH   1   7
BRANCH   6  13
ATOM     13  N   LIG d   1       2.589  83.658 111.403  0.00  0.00    -0.311 N 
ATOM     14  C   LIG d   1       1.731  82.920 110.700  0.00  0.00     0.210 C 
ATOM     15  C   LIG d   1       2.331  81.667 110.056  0.00  0.00     0.109 C 
ATOM     16  O   LIG d   1       0.536  83.203 110.522  0.00  0.00    -0.276 OA
ATOM     17  H   LIG d   1       3.546  83.372 111.468  0.00  0.00     0.149 HD
ENDBRANCH   6  13
BRANCH   5  18
ATOM     18  N   LIG d   1       1.592  86.212 110.056  0.00  0.00     0.381 N 
ATOM     19  H   LIG d   1       1.989  86.845 109.390  0.00  0.00    -0.090 HD
ATOM     20  H   LIG d   1       0.679  86.548 110.306  0.00  0.00    -0.090 HD
ATOM     21  H   LIG d   1       1.521  85.302 109.657  0.00  0.00    -0.090 HD
ENDBRANCH   5  18
BRANCH   3  22
ATOM     22  C   LIG d   1       3.050  88.642 113.917  0.00  0.00     0.382 C 
ATOM     23  O   LIG d   1       2.387  89.069 114.893  0.00  0.00    -0.241 OA
ATOM     24  O   LIG d   1       3.956  89.348 113.435  0.00  0.00    -0.241 OA
ENDBRANCH   3  22
TORSDOF 7
ENDMDL
MODEL 7
REMARK VINA RESULT:      -5.2      5.334      7.164
REMARK  7 active torsions:
REMARK  status: ('A' for Active; 'I' for Inactive)
REMARK    1  A    between atoms: C_2  and  C_3 
REMARK    2  A    between atoms: C_3  and  O_6 
REMARK    3  A    between atoms: C_3  and  C_4 
REMARK    4  A    between atoms: C_7  and  O_6 
REMARK    5  A    between atoms: C_9  and  C_10 
REMARK    6  A    between atoms: N_15  and  C_14 
REMARK    7  A    between atoms: N_20  and  C_19 
REMARK       I    between atoms: C_22  and  N_20 
ROOT
ATOM      1  C   LIG d   1       2.546  88.264 114.690  0.00  0.00     0.161 C 
ATOM      2  C   LIG d   1       2.489  87.311 113.659  0.00  0.00     0.016 C 
ATOM      3  C   LIG d   1       3.542  87.095 112.740  0.00  0.00     0.038 C 
ATOM      4  C   LIG d   1       4.791  87.717 112.885  0.00  0.00     0.028 C 
ATOM      5  C   LIG d   1       4.721  89.057 113.609  0.00  0.00    -0.047 C 
ATOM      6  C   LIG d   1       3.943  88.873 114.932  0.00  0.00     0.091 C 
ENDROOT
BRANCH   1   7
ATOM      7  O   LIG d   1       2.029  87.695 115.909  0.00  0.00    -0.368 OA
BRANCH   7   8
ATOM      8  C   LIG d   1       1.778  86.269 115.891  0.00  0.00     0.119 C 
BRANCH   8   9
ATOM      9  C   LIG d   1       0.384  86.036 116.505  0.00  0.00     0.028 C 
ATOM     10  C   LIG d   1      -0.752  86.327 115.508  0.00  0.00     0.006 C 
ENDBRANCH   8   9
BRANCH   8  11
ATOM     11  C   LIG d   1       2.753  85.520 116.805  0.00  0.00     0.028 C 
ATOM     12  C   LIG d   1       3.903  84.855 116.032  0.00  0.00     0.006 C 
ENDBRANCH   8  11
ENDBRANCH   7   8
ENDBRANCH   1   7
BRANCH   6  13
ATOM     13  N   LIG d   1       3.755  90.154 115.662  0.00  0.00    -0.311 N 
ATOM     14  C   LIG d   1       4.578  90.580 116.618  0.00  0.00     0.210 C 
ATOM     15  C   LIG d   1       4.190  91.917 117.256  0.00  0.00     0.109 C 
ATOM     16  O   LIG d   1       5.610  89.993 116.977  0.00  0.00    -0.276 OA
ATOM     17  H   LIG d   1       2.959  90.708 115.412  0.00  0.00     0.149 HD
ENDBRANCH   6  13
BRANCH   5  18
ATOM     18  N   LIG d   1       6.104  89.527 113.812  0.00  0.00     0.381 N 
ATOM     19  H   LIG d   1       6.690  89.185 113.077  0.00  0.00    -0.090 HD
ATOM     20  H   LIG d   1       6.446  89.162 114.684  0.00  0.00    -0.090 HD
ATOM     21  H   LIG d   1       6.127  90.523 113.829  0.00  0.00    -0.090 HD
ENDBRANCH   5  18
BRANCH   3  22
ATOM     22  C   LIG d   1       3.336  86.278 111.639  0.00  0.00     0.382 C 
ATOM     23  O   LIG d   1       2.563  86.646 110.722  0.00  0.00    -0.241 OA
ATOM     24  O   LIG d   1       3.879  85.159 111.572  0.00  0.00    -0.241 OA
ENDBRANCH   3  22
TORSDOF 7
ENDMDL
MODEL 8
REMARK VINA RESULT:      -5.1      2.523      5.960
REMARK  7 active torsions:
REMARK  status: ('A' for Active; 'I' for Inactive)
REMARK    1  A    between atoms: C_2  and  C_3 
REMARK    2  A    between atoms: C_3  and  O_6 
REMARK    3  A    between atoms: C_3  and  C_4 
REMARK    4  A    between atoms: C_7  and  O_6 
REMARK    5  A    between atoms: C_9  and  C_10 
REMARK    6  A    between atoms: N_15  and  C_14 
REMARK    7  A    between atoms: N_20  and  C_19 
REMARK       I    between atoms: C_22  and  N_20 
ROOT
ATOM      1  C   LIG d   1       1.486  85.975 113.745  0.00  0.00     0.161 C 
ATOM      2  C   LIG d   1       2.451  86.979 113.930  0.00  0.00     0.016 C 
ATOM      3  C   LIG d   1       3.461  87.270 112.984  0.00  0.00     0.038 C 
ATOM      4  C   LIG d   1       3.483  86.675 111.715  0.00  0.00     0.028 C 
ATOM      5  C   LIG d   1       2.831  85.297 111.681  0.00  0.00    -0.047 C 
ATOM      6  C   LIG d   1       1.425  85.391 112.318  0.00  0.00     0.091 C 
ENDROOT
BRANCH   1   7
ATOM      7  O   LIG d   1       0.189  86.465 114.141  0.00  0.00    -0.368 OA
BRANCH   7   8
ATOM      8  C   LIG d   1      -0.502  85.693 115.153  0.00  0.00     0.119 C 
BRANCH   8   9
ATOM      9  C   LIG d   1      -1.288  86.683 116.034  0.00  0.00     0.028 C 
ATOM     10  C   LIG d   1      -0.917  86.568 117.522  0.00  0.00     0.006 C 
ENDBRANCH   8   9
BRANCH   8  11
ATOM     11  C   LIG d   1       0.485  85.004 116.099  0.00  0.00     0.028 C 
ATOM     12  C   LIG d   1       0.495  83.475 115.940  0.00  0.00     0.006 C 
ENDBRANCH   8  11
ENDBRANCH   7   8
ENDBRANCH   1   7
BRANCH   6  13
ATOM     13  N   LIG d   1       0.751  84.069 112.401  0.00  0.00    -0.311 N 
ATOM     14  C   LIG d   1      -0.484  83.846 111.955  0.00  0.00     0.210 C 
ATOM     15  C   LIG d   1      -0.997  82.417 112.157  0.00  0.00     0.109 C 
ATOM     16  O   LIG d   1      -1.191  84.689 111.381  0.00  0.00    -0.276 OA
ATOM     17  H   LIG d   1       1.265  83.321 112.824  0.00  0.00     0.149 HD
ENDBRANCH   6  13
BRANCH   5  18
ATOM     18  N   LIG d   1       2.799  84.853 110.274  0.00  0.00     0.381 N 
ATOM     19  H   LIG d   1       1.964  85.183 109.834  0.00  0.00    -0.090 HD
ATOM     20  H   LIG d   1       2.793  83.848 110.251  0.00  0.00    -0.090 HD
ATOM     21  H   LIG d   1       3.598  85.199 109.790  0.00  0.00    -0.090 HD
ENDBRANCH   5  18
BRANCH   3  22
ATOM     22  C   LIG d   1       4.489  88.138 113.322  0.00  0.00     0.382 C 
ATOM     23  O   LIG d   1       5.613  88.021 112.778  0.00  0.00    -0.241 OA
ATOM     24  O   LIG d   1       4.318  89.009 114.197  0.00  0.00    -0.241 OA
ENDBRANCH   3  22
TORSDOF 7
ENDMDL
MODEL 9
REMARK VINA RESULT:      -5.0      2.892      4.153
REMARK  7 active torsions:
REMARK  status: ('A' for Active; 'I' for Inactive)
REMARK    1  A    between atoms: C_2  and  C_3 
REMARK    2  A    between atoms: C_3  and  O_6 
REMARK    3  A    between atoms: C_3  and  C_4 
REMARK    4  A    between atoms: C_7  and  O_6 
REMARK    5  A    between atoms: C_9  and  C_10 
REMARK    6  A    between atoms: N_15  and  C_14 
REMARK    7  A    between atoms: N_20  and  C_19 
REMARK       I    between atoms: C_22  and  N_20 
ROOT
ATOM      1  C   LIG d   1       1.282  86.005 113.740  0.00  0.00     0.161 C 
ATOM      2  C   LIG d   1       0.183  85.422 113.087  0.00  0.00     0.016 C 
ATOM      3  C   LIG d   1       0.230  84.947 111.757  0.00  0.00     0.038 C 
ATOM      4  C   LIG d   1       1.431  84.885 111.034  0.00  0.00     0.028 C 
ATOM      5  C   LIG d   1       2.456  85.926 111.472  0.00  0.00    -0.047 C 
ATOM      6  C   LIG d   1       2.629  85.845 113.006  0.00  0.00     0.091 C 
ENDROOT
BRANCH   1   7
ATOM      7  O   LIG d   1       1.379  85.494 115.084  0.00  0.00    -0.368 OA
BRANCH   7   8
ATOM      8  C   LIG d   1       0.205  84.818 115.596  0.00  0.00     0.119 C 
BRANCH   8   9
ATOM      9  C   LIG d   1      -0.307  85.628 116.802  0.00  0.00     0.028 C 
ATOM     10  C   LIG d   1      -1.208  86.802 116.381  0.00  0.00     0.006 C 
ENDBRANCH   8   9
BRANCH   8  11
ATOM     11  C   LIG d   1       0.556  83.436 116.155  0.00  0.00     0.028 C 
ATOM     12  C   LIG d   1       1.065  82.468 115.075  0.00  0.00     0.006 C 
ENDBRANCH   8  11
ENDBRANCH   7   8
ENDBRANCH   1   7
BRANCH   6  13
ATOM     13  N   LIG d   1       3.553  86.886 113.528  0.00  0.00    -0.311 N 
ATOM     14  C   LIG d   1       3.350  88.192 113.366  0.00  0.00     0.210 C 
ATOM     15  C   LIG d   1       4.435  89.093 113.965  0.00  0.00     0.109 C 
ATOM     16  O   LIG d   1       2.359  88.692 112.812  0.00  0.00    -0.276 OA
ATOM     17  H   LIG d   1       4.366  86.570 114.017  0.00  0.00     0.149 HD
ENDBRANCH   6  13
BRANCH   5  18
ATOM     18  N   LIG d   1       3.705  85.659 110.734  0.00  0.00     0.381 N 
ATOM     19  H   LIG d   1       3.536  85.720 109.750  0.00  0.00    -0.090 HD
ATOM     20  H   LIG d   1       4.014  84.726 110.944  0.00  0.00    -0.090 HD
ATOM     21  H   LIG d   1       4.405  86.316 111.000  0.00  0.00    -0.090 HD
ENDBRANCH   5  18
BRANCH   3  22
ATOM     22  C   LIG d   1      -0.941  84.564 111.121  0.00  0.00     0.382 C 
ATOM     23  O   LIG d   1      -1.310  83.365 111.155  0.00  0.00    -0.241 OA
ATOM     24  O   LIG d   1      -1.611  85.394 110.478  0.00  0.00    -0.241 OA
ENDBRANCH   3  22
TORSDOF 7
ENDMDL
