MODEL 1
REMARK VINA RESULT:      -5.4      0.000      0.000
REMARK  7 active torsions:
REMARK  status: ('A' for Active; 'I' for Inactive)
REMARK    1  A    between atoms: C_2  and  C_3 
REMARK    2  A    between atoms: C_3  and  O_6 
REMARK    3  A    between atoms: C_3  and  C_4 
REMARK    4  A    between atoms: C_7  and  O_6 
REMARK    5  A    between atoms: C_9  and  C_10 
REMARK    6  A    between atoms: N_15  and  C_14 
REMARK    7  A    between atoms: N_20  and  C_19 
REMARK       I    between atoms: C_22  and  N_20 
ROOT
ATOM      1  C   LIG d   1     -17.194  65.397 113.735  0.00  0.00     0.161 C 
ATOM      2  C   LIG d   1     -16.655  66.316 112.820  0.00  0.00     0.016 C 
ATOM      3  C   LIG d   1     -15.783  67.365 113.192  0.00  0.00     0.038 C 
ATOM      4  C   LIG d   1     -15.267  67.474 114.492  0.00  0.00     0.028 C 
ATOM      5  C   LIG d   1     -16.177  66.872 115.557  0.00  0.00    -0.047 C 
ATOM      6  C   LIG d   1     -16.554  65.432 115.139  0.00  0.00     0.091 C 
ENDROOT
BRANCH   1   7
ATOM      7  O   LIG d   1     -17.126  64.065 113.187  0.00  0.00    -0.368 OA
BRANCH   7   8
ATOM      8  C   LIG d   1     -18.396  63.425 112.910  0.00  0.00     0.119 C 
BRANCH   8   9
ATOM      9  C   LIG d   1     -19.508  64.438 113.244  0.00  0.00     0.028 C 
ATOM     10  C   LIG d   1     -20.786  64.197 112.423  0.00  0.00     0.006 C 
ENDBRANCH   8   9
BRANCH   8  11
ATOM     11  C   LIG d   1     -18.636  62.236 113.846  0.00  0.00     0.028 C 
ATOM     12  C   LIG d   1     -17.331  61.593 114.339  0.00  0.00     0.006 C 
ENDBRANCH   8  11
ENDBRANCH   7   8
ENDBRANCH   1   7
BRANCH   6  13
ATOM     13  N   LIG d   1     -17.511  64.800 116.085  0.00  0.00    -0.311 N 
ATOM     14  C   LIG d   1     -17.135  64.007 117.087  0.00  0.00     0.210 C 
ATOM     15  C   LIG d   1     -18.282  63.443 117.931  0.00  0.00     0.109 C 
ATOM     16  O   LIG d   1     -15.958  63.743 117.377  0.00  0.00    -0.276 OA
ATOM     17  H   LIG d   1     -18.484  64.985 115.942  0.00  0.00     0.149 HD
ENDBRANCH   6  13
BRANCH   5  18
ATOM     18  N   LIG d   1     -15.456  66.930 116.843  0.00  0.00     0.381 N 
ATOM     19  H   LIG d   1     -14.925  67.776 116.895  0.00  0.00    -0.090 HD
ATOM     20  H   LIG d   1     -14.820  66.154 116.895  0.00  0.00    -0.090 HD
ATOM     21  H   LIG d   1     -16.104  66.889 117.599  0.00  0.00    -0.090 HD
ENDBRANCH   5  18
BRANCH   3  22
ATOM     22  C   LIG d   1     -15.450  68.343 112.267  0.00  0.00     0.382 C 
ATOM     23  O   LIG d   1     -14.555  69.180 112.534  0.00  0.00    -0.241 OA
ATOM     24  O   LIG d   1     -16.064  68.426 111.186  0.00  0.00    -0.241 OA
ENDBRANCH   3  22
TORSDOF 7
ENDMDL
MODEL 2
REMARK VINA RESULT:      -5.4     29.187     31.369
REMARK  7 active torsions:
REMARK  status: ('A' for Active; 'I' for Inactive)
REMARK    1  A    between atoms: C_2  and  C_3 
REMARK    2  A    between atoms: C_3  and  O_6 
REMARK    3  A    between atoms: C_3  and  C_4 
REMARK    4  A    between atoms: C_7  and  O_6 
REMARK    5  A    between atoms: C_9  and  C_10 
REMARK    6  A    between atoms: N_15  and  C_14 
REMARK    7  A    between atoms: N_20  and  C_19 
REMARK       I    between atoms: C_22  and  N_20 
ROOT
ATOM      1  C   LIG d   1       2.824  89.000 115.628  0.00  0.00     0.161 C 
ATOM      2  C   LIG d   1       2.078  88.223 114.727  0.00  0.00     0.016 C 
ATOM      3  C   LIG d   1       2.536  87.875 113.435  0.00  0.00     0.038 C 
ATOM      4  C   LIG d   1       3.843  88.155 113.011  0.00  0.00     0.028 C 
ATOM      5  C   LIG d   1       4.453  89.374 113.695  0.00  0.00    -0.047 C 
ATOM      6  C   LIG d   1       4.298  89.221 115.226  0.00  0.00     0.091 C 
ENDROOT
BRANCH   1   7
ATOM      7  O   LIG d   1       2.746  88.427 116.948  0.00  0.00    -0.368 OA
BRANCH   7   8
ATOM      8  C   LIG d   1       1.958  89.162 117.916  0.00  0.00     0.119 C 
BRANCH   8   9
ATOM      9  C   LIG d   1       0.652  88.375 118.143  0.00  0.00     0.028 C 
ATOM     10  C   LIG d   1      -0.532  88.965 117.359  0.00  0.00     0.006 C 
ENDBRANCH   8   9
BRANCH   8  11
ATOM     11  C   LIG d   1       1.521  90.521 117.363  0.00  0.00     0.028 C 
ATOM     12  C   LIG d   1       2.141  91.703 118.126  0.00  0.00     0.006 C 
ENDBRANCH   8  11
ENDBRANCH   7   8
ENDBRANCH   1   7
BRANCH   6  13
ATOM     13  N   LIG d   1       4.793  90.410 115.967  0.00  0.00    -0.311 N 
ATOM     14  C   LIG d   1       5.567  90.329 117.049  0.00  0.00     0.210 C 
ATOM     15  C   LIG d   1       5.948  91.675 117.672  0.00  0.00     0.109 C 
ATOM     16  O   LIG d   1       5.999  89.272 117.532  0.00  0.00    -0.276 OA
ATOM     17  H   LIG d   1       4.516  91.309 115.626  0.00  0.00     0.149 HD
ENDBRANCH   6  13
BRANCH   5  18
ATOM     18  N   LIG d   1       5.861  89.469 113.264  0.00  0.00     0.381 N 
ATOM     19  H   LIG d   1       6.409  89.889 113.988  0.00  0.00    -0.090 HD
ATOM     20  H   LIG d   1       5.913  90.054 112.449  0.00  0.00    -0.090 HD
ATOM     21  H   LIG d   1       6.215  88.561 113.054  0.00  0.00    -0.090 HD
ENDBRANCH   5  18
BRANCH   3  22
ATOM     22  C   LIG d   1       1.667  87.273 112.537  0.00  0.00     0.382 C 
ATOM     23  O   LIG d   1       0.560  86.835 112.933  0.00  0.00    -0.241 OA
ATOM     24  O   LIG d   1       1.995  87.123 111.345  0.00  0.00    -0.241 OA
ENDBRANCH   3  22
TORSDOF 7
ENDMDL
MODEL 3
REMARK VINA RESULT:      -5.3     26.672     29.151
REMARK  7 active torsions:
REMARK  status: ('A' for Active; 'I' for Inactive)
REMARK    1  A    between atoms: C_2  and  C_3 
REMARK    2  A    between atoms: C_3  and  O_6 
REMARK    3  A    between atoms: C_3  and  C_4 
REMARK    4  A    between atoms: C_7  and  O_6 
REMARK    5  A    between atoms: C_9  and  C_10 
REMARK    6  A    between atoms: N_15  and  C_14 
REMARK    7  A    between atoms: N_20  and  C_19 
REMARK       I    between atoms: C_22  and  N_20 
ROOT
ATOM      1  C   LIG d   1       3.317  85.981 113.620  0.00  0.00     0.161 C 
ATOM      2  C   LIG d   1       3.578  87.345 113.409  0.00  0.00     0.016 C 
ATOM      3  C   LIG d   1       4.141  88.191 114.392  0.00  0.00     0.038 C 
ATOM      4  C   LIG d   1       4.626  87.692 115.610  0.00  0.00     0.028 C 
ATOM      5  C   LIG d   1       3.925  86.416 116.063  0.00  0.00    -0.047 C 
ATOM      6  C   LIG d   1       3.942  85.395 114.903  0.00  0.00     0.091 C 
ENDROOT
BRANCH   1   7
ATOM      7  O   LIG d   1       3.733  85.220 112.468  0.00  0.00    -0.368 OA
BRANCH   7   8
ATOM      8  C   LIG d   1       2.959  85.420 111.260  0.00  0.00     0.119 C 
BRANCH   8   9
ATOM      9  C   LIG d   1       1.523  84.940 111.545  0.00  0.00     0.028 C 
ATOM     10  C   LIG d   1       0.476  86.039 111.295  0.00  0.00     0.006 C 
ENDBRANCH   8   9
BRANCH   8  11
ATOM     11  C   LIG d   1       3.465  84.531 110.120  0.00  0.00     0.028 C 
ATOM     12  C   LIG d   1       4.074  83.211 110.620  0.00  0.00     0.006 C 
ENDBRANCH   8  11
ENDBRANCH   7   8
ENDBRANCH   1   7
BRANCH   6  13
ATOM     13  N   LIG d   1       3.202  84.149 115.234  0.00  0.00    -0.311 N 
ATOM     14  C   LIG d   1       3.793  83.043 115.685  0.00  0.00     0.210 C 
ATOM     15  C   LIG d   1       2.849  81.865 115.945  0.00  0.00     0.109 C 
ATOM     16  O   LIG d   1       5.006  82.937 115.924  0.00  0.00    -0.276 OA
ATOM     17  H   LIG d   1       2.210  84.157 115.099  0.00  0.00     0.149 HD
ENDBRANCH   6  13
BRANCH   5  18
ATOM     18  N   LIG d   1       4.620  85.931 117.271  0.00  0.00     0.381 N 
ATOM     19  H   LIG d   1       4.963  85.004 117.115  0.00  0.00    -0.090 HD
ATOM     20  H   LIG d   1       3.965  85.901 118.033  0.00  0.00    -0.090 HD
ATOM     21  H   LIG d   1       5.376  86.539 117.497  0.00  0.00    -0.090 HD
ENDBRANCH   5  18
BRANCH   3  22
ATOM     22  C   LIG d   1       4.188  89.560 114.175  0.00  0.00     0.382 C 
ATOM     23  O   LIG d   1       4.200  90.349 115.151  0.00  0.00    -0.241 OA
ATOM     24  O   LIG d   1       4.174  90.017 113.017  0.00  0.00    -0.241 OA
ENDBRANCH   3  22
TORSDOF 7
ENDMDL
MODEL 4
REMARK VINA RESULT:      -5.3     26.602     29.057
REMARK  7 active torsions:
REMARK  status: ('A' for Active; 'I' for Inactive)
REMARK    1  A    between atoms: C_2  and  C_3 
REMARK    2  A    between atoms: C_3  and  O_6 
REMARK    3  A    between atoms: C_3  and  C_4 
REMARK    4  A    between atoms: C_7  and  O_6 
REMARK    5  A    between atoms: C_9  and  C_10 
REMARK    6  A    between atoms: N_15  and  C_14 
REMARK    7  A    between atoms: N_20  and  C_19 
REMARK       I    between atoms: C_22  and  N_20 
ROOT
ATOM      1  C   LIG d   1       3.444  85.879 113.532  0.00  0.00     0.161 C 
ATOM      2  C   LIG d   1       3.675  87.252 113.348  0.00  0.00     0.016 C 
ATOM      3  C   LIG d   1       4.086  88.118 114.388  0.00  0.00     0.038 C 
ATOM      4  C   LIG d   1       4.442  87.637 115.656  0.00  0.00     0.028 C 
ATOM      5  C   LIG d   1       3.742  86.334 116.029  0.00  0.00    -0.047 C 
ATOM      6  C   LIG d   1       3.934  85.316 114.882  0.00  0.00     0.091 C 
ENDROOT
BRANCH   1   7
ATOM      7  O   LIG d   1       4.021  85.136 112.440  0.00  0.00    -0.368 OA
BRANCH   7   8
ATOM      8  C   LIG d   1       3.089  84.413 111.598  0.00  0.00     0.119 C 
BRANCH   8   9
ATOM      9  C   LIG d   1       3.853  83.233 110.969  0.00  0.00     0.028 C 
ATOM     10  C   LIG d   1       3.239  81.872 111.338  0.00  0.00     0.006 C 
ENDBRANCH   8   9
BRANCH   8  11
ATOM     11  C   LIG d   1       2.624  85.271 110.417  0.00  0.00     0.028 C 
ATOM     12  C   LIG d   1       1.127  85.615 110.484  0.00  0.00     0.006 C 
ENDBRANCH   8  11
ENDBRANCH   7   8
ENDBRANCH   1   7
BRANCH   6  13
ATOM     13  N   LIG d   1       3.209  84.042 115.128  0.00  0.00    -0.311 N 
ATOM     14  C   LIG d   1       3.791  82.950 115.621  0.00  0.00     0.210 C 
ATOM     15  C   LIG d   1       2.867  81.739 115.778  0.00  0.00     0.109 C 
ATOM     16  O   LIG d   1       4.978  82.880 115.974  0.00  0.00    -0.276 OA
ATOM     17  H   LIG d   1       2.235  84.020 114.899  0.00  0.00     0.149 HD
ENDBRANCH   6  13
BRANCH   5  18
ATOM     18  N   LIG d   1       4.307  85.875 117.311  0.00  0.00     0.381 N 
ATOM     19  H   LIG d   1       4.894  85.079 117.157  0.00  0.00    -0.090 HD
ATOM     20  H   LIG d   1       3.555  85.600 117.918  0.00  0.00    -0.090 HD
ATOM     21  H   LIG d   1       4.834  86.608 117.734  0.00  0.00    -0.090 HD
ENDBRANCH   5  18
BRANCH   3  22
ATOM     22  C   LIG d   1       4.106  89.488 114.174  0.00  0.00     0.382 C 
ATOM     23  O   LIG d   1       4.127  89.940 113.003  0.00  0.00    -0.241 OA
ATOM     24  O   LIG d   1       4.147  90.277 115.137  0.00  0.00    -0.241 OA
ENDBRANCH   3  22
TORSDOF 7
ENDMDL
MODEL 5
REMARK VINA RESULT:      -5.1     28.431     31.247
REMARK  7 active torsions:
REMARK  status: ('A' for Active; 'I' for Inactive)
REMARK    1  A    between atoms: C_2  and  C_3 
REMARK    2  A    between atoms: C_3  and  O_6 
REMARK    3  A    between atoms: C_3  and  C_4 
REMARK    4  A    between atoms: C_7  and  O_6 
REMARK    5  A    between atoms: C_9  and  C_10 
REMARK    6  A    between atoms: N_15  and  C_14 
REMARK    7  A    between atoms: N_20  and  C_19 
REMARK       I    between atoms: C_22  and  N_20 
ROOT
ATOM      1  C   LIG d   1       3.065  88.806 115.874  0.00  0.00     0.161 C 
ATOM      2  C   LIG d   1       2.282  88.099 114.946  0.00  0.00     0.016 C 
ATOM      3  C   LIG d   1       2.654  87.915 113.594  0.00  0.00     0.038 C 
ATOM      4  C   LIG d   1       3.914  88.301 113.112  0.00  0.00     0.028 C 
ATOM      5  C   LIG d   1       4.527  89.465 113.884  0.00  0.00    -0.047 C 
ATOM      6  C   LIG d   1       4.494  89.138 115.395  0.00  0.00     0.091 C 
ENDROOT
BRANCH   1   7
ATOM      7  O   LIG d   1       3.109  88.089 117.123  0.00  0.00    -0.368 OA
BRANCH   7   8
ATOM      8  C   LIG d   1       3.654  86.748 117.069  0.00  0.00     0.119 C 
BRANCH   8   9
ATOM      9  C   LIG d   1       2.645  85.810 117.760  0.00  0.00     0.028 C 
ATOM     10  C   LIG d   1       2.852  84.336 117.370  0.00  0.00     0.006 C 
ENDBRANCH   8   9
BRANCH   8  11
ATOM     11  C   LIG d   1       4.941  86.636 117.892  0.00  0.00     0.028 C 
ATOM     12  C   LIG d   1       6.152  86.208 117.048  0.00  0.00     0.006 C 
ENDBRANCH   8  11
ENDBRANCH   7   8
ENDBRANCH   1   7
BRANCH   6  13
ATOM     13  N   LIG d   1       4.998  90.260 116.229  0.00  0.00    -0.311 N 
ATOM     14  C   LIG d   1       6.252  90.339 116.670  0.00  0.00     0.210 C 
ATOM     15  C   LIG d   1       6.559  91.569 117.531  0.00  0.00     0.109 C 
ATOM     16  O   LIG d   1       7.149  89.525 116.403  0.00  0.00    -0.276 OA
ATOM     17  H   LIG d   1       4.345  90.981 116.466  0.00  0.00     0.149 HD
ENDBRANCH   6  13
BRANCH   5  18
ATOM     18  N   LIG d   1       5.893  89.671 113.367  0.00  0.00     0.381 N 
ATOM     19  H   LIG d   1       6.562  89.416 114.066  0.00  0.00    -0.090 HD
ATOM     20  H   LIG d   1       6.016  90.646 113.155  0.00  0.00    -0.090 HD
ATOM     21  H   LIG d   1       6.034  89.125 112.547  0.00  0.00    -0.090 HD
ENDBRANCH   5  18
BRANCH   3  22
ATOM     22  C   LIG d   1       1.743  87.376 112.698  0.00  0.00     0.382 C 
ATOM     23  O   LIG d   1       0.630  86.966 113.106  0.00  0.00    -0.241 OA
ATOM     24  O   LIG d   1       2.039  87.253 111.494  0.00  0.00    -0.241 OA
ENDBRANCH   3  22
TORSDOF 7
ENDMDL
MODEL 6
REMARK VINA RESULT:      -5.0     25.734     28.737
REMARK  7 active torsions:
REMARK  status: ('A' for Active; 'I' for Inactive)
REMARK    1  A    between atoms: C_2  and  C_3 
REMARK    2  A    between atoms: C_3  and  O_6 
REMARK    3  A    between atoms: C_3  and  C_4 
REMARK    4  A    between atoms: C_7  and  O_6 
REMARK    5  A    between atoms: C_9  and  C_10 
REMARK    6  A    between atoms: N_15  and  C_14 
REMARK    7  A    between atoms: N_20  and  C_19 
REMARK       I    between atoms: C_22  and  N_20 
ROOT
ATOM      1  C   LIG d   1       3.630  85.064 113.449  0.00  0.00     0.161 C 
ATOM      2  C   LIG d   1       3.758  86.383 113.915  0.00  0.00     0.016 C 
ATOM      3  C   LIG d   1       3.144  87.493 113.291  0.00  0.00     0.038 C 
ATOM      4  C   LIG d   1       2.230  87.339 112.237  0.00  0.00     0.028 C 
ATOM      5  C   LIG d   1       2.463  86.077 111.413  0.00  0.00    -0.047 C 
ATOM      6  C   LIG d   1       2.548  84.863 112.367  0.00  0.00     0.091 C 
ENDROOT
BRANCH   1   7
ATOM      7  O   LIG d   1       3.400  84.173 114.558  0.00  0.00    -0.368 OA
BRANCH   7   8
ATOM      8  C   LIG d   1       3.947  84.590 115.834  0.00  0.00     0.119 C 
BRANCH   8   9
ATOM      9  C   LIG d   1       5.143  83.671 116.147  0.00  0.00     0.028 C 
ATOM     10  C   LIG d   1       6.328  84.438 116.759  0.00  0.00     0.006 C 
ENDBRANCH   8   9
BRANCH   8  11
ATOM     11  C   LIG d   1       2.948  84.357 116.971  0.00  0.00     0.028 C 
ATOM     12  C   LIG d   1       2.718  85.611 117.828  0.00  0.00     0.006 C 
ENDBRANCH   8  11
ENDBRANCH   7   8
ENDBRANCH   1   7
BRANCH   6  13
ATOM     13  N   LIG d   1       2.858  83.599 111.650  0.00  0.00    -0.311 N 
ATOM     14  C   LIG d   1       2.128  82.491 111.767  0.00  0.00     0.210 C 
ATOM     15  C   LIG d   1       2.634  81.294 110.957  0.00  0.00     0.109 C 
ATOM     16  O   LIG d   1       1.091  82.396 112.440  0.00  0.00    -0.276 OA
ATOM     17  H   LIG d   1       3.665  83.597 111.057  0.00  0.00     0.149 HD
ENDBRANCH   6  13
BRANCH   5  18
ATOM     18  N   LIG d   1       1.361  85.971 110.439  0.00  0.00     0.381 N 
ATOM     19  H   LIG d   1       0.572  85.528 110.867  0.00  0.00    -0.090 HD
ATOM     20  H   LIG d   1       1.662  85.401 109.668  0.00  0.00    -0.090 HD
ATOM     21  H   LIG d   1       1.106  86.877 110.112  0.00  0.00    -0.090 HD
ENDBRANCH   5  18
BRANCH   3  22
ATOM     22  C   LIG d   1       3.473  88.778 113.694  0.00  0.00     0.382 C 
ATOM     23  O   LIG d   1       3.050  89.218 114.790  0.00  0.00    -0.241 OA
ATOM     24  O   LIG d   1       4.151  89.517 112.956  0.00  0.00    -0.241 OA
ENDBRANCH   3  22
TORSDOF 7
ENDMDL
MODEL 7
REMARK VINA RESULT:      -5.0     27.906     30.542
REMARK  7 active torsions:
REMARK  status: ('A' for Active; 'I' for Inactive)
REMARK    1  A    between atoms: C_2  and  C_3 
REMARK    2  A    between atoms: C_3  and  O_6 
REMARK    3  A    between atoms: C_3  and  C_4 
REMARK    4  A    between atoms: C_7  and  O_6 
REMARK    5  A    between atoms: C_9  and  C_10 
REMARK    6  A    between atoms: N_15  and  C_14 
REMARK    7  A    between atoms: N_20  and  C_19 
REMARK       I    between atoms: C_22  and  N_20 
ROOT
ATOM      1  C   LIG d   1       1.731  88.679 115.573  0.00  0.00     0.161 C 
ATOM      2  C   LIG d   1       0.400  88.724 116.019  0.00  0.00     0.016 C 
ATOM      3  C   LIG d   1      -0.064  89.637 116.994  0.00  0.00     0.038 C 
ATOM      4  C   LIG d   1       0.745  90.674 117.483  0.00  0.00     0.028 C 
ATOM      5  C   LIG d   1       2.235  90.353 117.436  0.00  0.00    -0.047 C 
ATOM      6  C   LIG d   1       2.601  89.875 116.013  0.00  0.00     0.091 C 
ENDROOT
BRANCH   1   7
ATOM      7  O   LIG d   1       1.762  88.538 114.139  0.00  0.00    -0.368 OA
BRANCH   7   8
ATOM      8  C   LIG d   1       1.719  87.182 113.630  0.00  0.00     0.119 C 
BRANCH   8   9
ATOM      9  C   LIG d   1       3.160  86.636 113.647  0.00  0.00     0.028 C 
ATOM     10  C   LIG d   1       3.941  87.001 112.373  0.00  0.00     0.006 C 
ENDBRANCH   8   9
BRANCH   8  11
ATOM     11  C   LIG d   1       1.292  87.152 112.160  0.00  0.00     0.028 C 
ATOM     12  C   LIG d   1       0.003  86.346 111.931  0.00  0.00     0.006 C 
ENDBRANCH   8  11
ENDBRANCH   7   8
ENDBRANCH   1   7
BRANCH   6  13
ATOM     13  N   LIG d   1       4.024  89.461 115.903  0.00  0.00    -0.311 N 
ATOM     14  C   LIG d   1       4.770  89.680 114.822  0.00  0.00     0.210 C 
ATOM     15  C   LIG d   1       6.206  89.154 114.909  0.00  0.00     0.109 C 
ATOM     16  O   LIG d   1       4.389  90.288 113.811  0.00  0.00    -0.276 OA
ATOM     17  H   LIG d   1       4.424  88.988 116.690  0.00  0.00     0.149 HD
ENDBRANCH   6  13
BRANCH   5  18
ATOM     18  N   LIG d   1       2.965  91.568 117.844  0.00  0.00     0.381 N 
ATOM     19  H   LIG d   1       2.466  92.381 117.542  0.00  0.00    -0.090 HD
ATOM     20  H   LIG d   1       3.867  91.570 117.401  0.00  0.00    -0.090 HD
ATOM     21  H   LIG d   1       3.073  91.585 118.835  0.00  0.00    -0.090 HD
ENDBRANCH   5  18
BRANCH   3  22
ATOM     22  C   LIG d   1      -1.339  89.492 117.520  0.00  0.00     0.382 C 
ATOM     23  O   LIG d   1      -2.051  88.518 117.176  0.00  0.00    -0.241 OA
ATOM     24  O   LIG d   1      -1.802  90.346 118.299  0.00  0.00    -0.241 OA
ENDBRANCH   3  22
TORSDOF 7
ENDMDL
MODEL 8
REMARK VINA RESULT:      -4.9     14.133     16.995
REMARK  7 active torsions:
REMARK  status: ('A' for Active; 'I' for Inactive)
REMARK    1  A    between atoms: C_2  and  C_3 
REMARK    2  A    between atoms: C_3  and  O_6 
REMARK    3  A    between atoms: C_3  and  C_4 
REMARK    4  A    between atoms: C_7  and  O_6 
REMARK    5  A    between atoms: C_9  and  C_10 
REMARK    6  A    between atoms: N_15  and  C_14 
REMARK    7  A    between atoms: N_20  and  C_19 
REMARK       I    between atoms: C_22  and  N_20 
ROOT
ATOM      1  C   LIG d   1      -5.391  76.579 117.821  0.00  0.00     0.161 C 
ATOM      2  C   LIG d   1      -6.164  77.747 117.923  0.00  0.00     0.016 C 
ATOM      3  C   LIG d   1      -5.697  79.025 117.539  0.00  0.00     0.038 C 
ATOM      4  C   LIG d   1      -4.470  79.199 116.882  0.00  0.00     0.028 C 
ATOM      5  C   LIG d   1      -3.445  78.120 117.215  0.00  0.00    -0.047 C 
ATOM      6  C   LIG d   1      -4.092  76.732 117.003  0.00  0.00     0.091 C 
ENDROOT
BRANCH   1   7
ATOM      7  O   LIG d   1      -6.195  75.507 117.289  0.00  0.00    -0.368 OA
BRANCH   7   8
ATOM      8  C   LIG d   1      -7.186  75.883 116.301  0.00  0.00     0.119 C 
BRANCH   8   9
ATOM      9  C   LIG d   1      -8.485  75.124 116.637  0.00  0.00     0.028 C 
ATOM     10  C   LIG d   1      -8.308  74.150 117.814  0.00  0.00     0.006 C 
ENDBRANCH   8   9
BRANCH   8  11
ATOM     11  C   LIG d   1      -6.787  75.405 114.902  0.00  0.00     0.028 C 
ATOM     12  C   LIG d   1      -5.826  74.206 114.933  0.00  0.00     0.006 C 
ENDBRANCH   8  11
ENDBRANCH   7   8
ENDBRANCH   1   7
BRANCH   6  13
ATOM     13  N   LIG d   1      -3.185  75.619 117.387  0.00  0.00    -0.311 N 
ATOM     14  C   LIG d   1      -2.418  74.965 116.517  0.00  0.00     0.210 C 
ATOM     15  C   LIG d   1      -1.572  73.838 117.120  0.00  0.00     0.109 C 
ATOM     16  O   LIG d   1      -2.334  75.231 115.309  0.00  0.00    -0.276 OA
ATOM     17  H   LIG d   1      -3.167  75.358 118.354  0.00  0.00     0.149 HD
ENDBRANCH   6  13
BRANCH   5  18
ATOM     18  N   LIG d   1      -2.266  78.345 116.359  0.00  0.00     0.381 N 
ATOM     19  H   LIG d   1      -1.896  77.467 116.053  0.00  0.00    -0.090 HD
ATOM     20  H   LIG d   1      -1.559  78.815 116.897  0.00  0.00    -0.090 HD
ATOM     21  H   LIG d   1      -2.517  78.900 115.571  0.00  0.00    -0.090 HD
ENDBRANCH   5  18
BRANCH   3  22
ATOM     22  C   LIG d   1      -6.443  80.152 117.849  0.00  0.00     0.382 C 
ATOM     23  O   LIG d   1      -7.683  80.155 117.655  0.00  0.00    -0.241 OA
ATOM     24  O   LIG d   1      -5.887  81.180 118.279  0.00  0.00    -0.241 OA
ENDBRANCH   3  22
TORSDOF 7
ENDMDL
MODEL 9
REMARK VINA RESULT:      -4.5      1.361      1.994
REMARK  7 active torsions:
REMARK  status: ('A' for Active; 'I' for Inactive)
REMARK    1  A    between atoms: C_2  and  C_3 
REMARK    2  A    between atoms: C_3  and  O_6 
REMARK    3  A    between atoms: C_3  and  C_4 
REMARK    4  A    between atoms: C_7  and  O_6 
REMARK    5  A    between atoms: C_9  and  C_10 
REMARK    6  A    between atoms: N_15  and  C_14 
REMARK    7  A    between atoms: N_20  and  C_19 
REMARK       I    between atoms: C_22  and  N_20 
ROOT
ATOM      1  C   LIG d   1     -17.268  65.138 114.293  0.00  0.00     0.161 C 
ATOM      2  C   LIG d   1     -16.765  66.017 113.319  0.00  0.00     0.016 C 
ATOM      3  C   LIG d   1     -15.894  67.091 113.616  0.00  0.00     0.038 C 
ATOM      4  C   LIG d   1     -15.345  67.268 114.894  0.00  0.00     0.028 C 
ATOM      5  C   LIG d   1     -16.218  66.710 116.012  0.00  0.00    -0.047 C 
ATOM      6  C   LIG d   1     -16.591  65.248 115.675  0.00  0.00     0.091 C 
ENDROOT
BRANCH   1   7
ATOM      7  O   LIG d   1     -17.200  63.782 113.808  0.00  0.00    -0.368 OA
BRANCH   7   8
ATOM      8  C   LIG d   1     -18.462  63.078 113.707  0.00  0.00     0.119 C 
BRANCH   8   9
ATOM      9  C   LIG d   1     -18.154  61.568 113.747  0.00  0.00     0.028 C 
ATOM     10  C   LIG d   1     -18.373  60.962 115.143  0.00  0.00     0.006 C 
ENDBRANCH   8   9
BRANCH   8  11
ATOM     11  C   LIG d   1     -19.128  63.320 112.349  0.00  0.00     0.028 C 
ATOM     12  C   LIG d   1     -20.028  62.154 111.910  0.00  0.00     0.006 C 
ENDBRANCH   8  11
ENDBRANCH   7   8
ENDBRANCH   1   7
BRANCH   6  13
ATOM     13  N   LIG d   1     -17.514  64.653 116.676  0.00  0.00    -0.311 N 
ATOM     14  C   LIG d   1     -18.710  65.164 116.966  0.00  0.00     0.210 C 
ATOM     15  C   LIG d   1     -19.493  64.407 118.042  0.00  0.00     0.109 C 
ATOM     16  O   LIG d   1     -19.210  66.154 116.410  0.00  0.00    -0.276 OA
ATOM     17  H   LIG d   1     -17.202  63.830 117.152  0.00  0.00     0.149 HD
ENDBRANCH   6  13
BRANCH   5  18
ATOM     18  N   LIG d   1     -15.464  66.838 117.273  0.00  0.00     0.381 N 
ATOM     19  H   LIG d   1     -15.991  66.440 118.025  0.00  0.00    -0.090 HD
ATOM     20  H   LIG d   1     -15.323  67.813 117.470  0.00  0.00    -0.090 HD
ATOM     21  H   LIG d   1     -14.585  66.377 117.193  0.00  0.00    -0.090 HD
ENDBRANCH   5  18
BRANCH   3  22
ATOM     22  C   LIG d   1     -15.598  68.026 112.635  0.00  0.00     0.382 C 
ATOM     23  O   LIG d   1     -15.102  69.133 112.955  0.00  0.00    -0.241 OA
ATOM     24  O   LIG d   1     -15.860  67.793 111.440  0.00  0.00    -0.241 OA
ENDBRANCH   3  22
TORSDOF 7
ENDMDL
