MODEL 1
REMARK VINA RESULT:      -5.4      0.000      0.000
REMARK  7 active torsions:
REMARK  status: ('A' for Active; 'I' for Inactive)
REMARK    1  A    between atoms: C_2  and  C_3 
REMARK    2  A    between atoms: C_3  and  O_6 
REMARK    3  A    between atoms: C_3  and  C_4 
REMARK    4  A    between atoms: C_7  and  O_6 
REMARK    5  A    between atoms: C_9  and  C_10 
REMARK    6  A    between atoms: N_15  and  C_14 
REMARK    7  A    between atoms: N_20  and  C_19 
REMARK       I    between atoms: C_22  and  N_20 
ROOT
ATOM      1  C   LIG d   1       2.730  87.407 114.017  0.00  0.00     0.161 C 
ATOM      2  C   LIG d   1       2.690  88.367 115.042  0.00  0.00     0.016 C 
ATOM      3  C   LIG d   1       3.657  89.387 115.191  0.00  0.00     0.038 C 
ATOM      4  C   LIG d   1       4.655  89.609 114.230  0.00  0.00     0.028 C 
ATOM      5  C   LIG d   1       5.034  88.355 113.449  0.00  0.00    -0.047 C 
ATOM      6  C   LIG d   1       3.748  87.701 112.895  0.00  0.00     0.091 C 
ENDROOT
BRANCH   1   7
ATOM      7  O   LIG d   1       1.412  87.228 113.463  0.00  0.00    -0.368 OA
BRANCH   7   8
ATOM      8  C   LIG d   1       0.674  86.072 113.933  0.00  0.00     0.119 C 
BRANCH   8   9
ATOM      9  C   LIG d   1       1.704  85.000 114.338  0.00  0.00     0.028 C 
ATOM     10  C   LIG d   1       1.622  83.744 113.454  0.00  0.00     0.006 C 
ENDBRANCH   8   9
BRANCH   8  11
ATOM     11  C   LIG d   1      -0.148  85.440 112.806  0.00  0.00     0.028 C 
ATOM     12  C   LIG d   1      -0.670  86.474 111.797  0.00  0.00     0.006 C 
ENDBRANCH   8  11
ENDBRANCH   7   8
ENDBRANCH   1   7
BRANCH   6  13
ATOM     13  N   LIG d   1       4.022  86.422 112.189  0.00  0.00    -0.311 N 
ATOM     14  C   LIG d   1       3.407  86.059 111.065  0.00  0.00     0.210 C 
ATOM     15  C   LIG d   1       3.823  84.692 110.513  0.00  0.00     0.109 C 
ATOM     16  O   LIG d   1       2.580  86.754 110.455  0.00  0.00    -0.276 OA
ATOM     17  H   LIG d   1       4.702  85.812 112.598  0.00  0.00     0.149 HD
ENDBRANCH   6  13
BRANCH   5  18
ATOM     18  N   LIG d   1       5.980  88.758 112.392  0.00  0.00     0.381 N 
ATOM     19  H   LIG d   1       5.907  88.132 111.615  0.00  0.00    -0.090 HD
ATOM     20  H   LIG d   1       6.916  88.703 112.754  0.00  0.00    -0.090 HD
ATOM     21  H   LIG d   1       5.785  89.690 112.096  0.00  0.00    -0.090 HD
ENDBRANCH   5  18
BRANCH   3  22
ATOM     22  C   LIG d   1       3.656  90.173 116.333  0.00  0.00     0.382 C 
ATOM     23  O   LIG d   1       2.672  90.907 116.588  0.00  0.00    -0.241 OA
ATOM     24  O   LIG d   1       4.646  90.190 117.089  0.00  0.00    -0.241 OA
ENDBRANCH   3  22
TORSDOF 7
ENDMDL
MODEL 2
REMARK VINA RESULT:      -5.1      3.042      4.291
REMARK  7 active torsions:
REMARK  status: ('A' for Active; 'I' for Inactive)
REMARK    1  A    between atoms: C_2  and  C_3 
REMARK    2  A    between atoms: C_3  and  O_6 
REMARK    3  A    between atoms: C_3  and  C_4 
REMARK    4  A    between atoms: C_7  and  O_6 
REMARK    5  A    between atoms: C_9  and  C_10 
REMARK    6  A    between atoms: N_15  and  C_14 
REMARK    7  A    between atoms: N_20  and  C_19 
REMARK       I    between atoms: C_22  and  N_20 
ROOT
ATOM      1  C   LIG d   1       3.640  84.758 112.509  0.00  0.00     0.161 C 
ATOM      2  C   LIG d   1       4.082  86.044 112.863  0.00  0.00     0.016 C 
ATOM      3  C   LIG d   1       3.473  87.232 112.398  0.00  0.00     0.038 C 
ATOM      4  C   LIG d   1       2.279  87.214 111.663  0.00  0.00     0.028 C 
ATOM      5  C   LIG d   1       2.081  85.933 110.860  0.00  0.00    -0.047 C 
ATOM      6  C   LIG d   1       2.272  84.719 111.797  0.00  0.00     0.091 C 
ENDROOT
BRANCH   1   7
ATOM      7  O   LIG d   1       3.625  83.909 113.673  0.00  0.00    -0.368 OA
BRANCH   7   8
ATOM      8  C   LIG d   1       3.640  84.584 114.955  0.00  0.00     0.119 C 
BRANCH   8   9
ATOM      9  C   LIG d   1       4.471  83.720 115.923  0.00  0.00     0.028 C 
ATOM     10  C   LIG d   1       5.868  84.308 116.182  0.00  0.00     0.006 C 
ENDBRANCH   8   9
BRANCH   8  11
ATOM     11  C   LIG d   1       2.238  84.646 115.568  0.00  0.00     0.028 C 
ATOM     12  C   LIG d   1       1.783  86.083 115.870  0.00  0.00     0.006 C 
ENDBRANCH   8  11
ENDBRANCH   7   8
ENDBRANCH   1   7
BRANCH   6  13
ATOM     13  N   LIG d   1       2.179  83.424 111.074  0.00  0.00    -0.311 N 
ATOM     14  C   LIG d   1       1.408  82.414 111.474  0.00  0.00     0.210 C 
ATOM     15  C   LIG d   1       1.475  81.161 110.595  0.00  0.00     0.109 C 
ATOM     16  O   LIG d   1       0.652  82.448 112.456  0.00  0.00    -0.276 OA
ATOM     17  H   LIG d   1       2.736  83.322 110.248  0.00  0.00     0.149 HD
ENDBRANCH   6  13
BRANCH   5  18
ATOM     18  N   LIG d   1       0.738  85.990 110.253  0.00  0.00     0.381 N 
ATOM     19  H   LIG d   1       0.716  86.696 109.544  0.00  0.00    -0.090 HD
ATOM     20  H   LIG d   1       0.071  86.235 110.963  0.00  0.00    -0.090 HD
ATOM     21  H   LIG d   1       0.504  85.105 109.859  0.00  0.00    -0.090 HD
ENDBRANCH   5  18
BRANCH   3  22
ATOM     22  C   LIG d   1       4.082  88.455 112.636  0.00  0.00     0.382 C 
ATOM     23  O   LIG d   1       5.329  88.563 112.544  0.00  0.00    -0.241 OA
ATOM     24  O   LIG d   1       3.405  89.441 112.983  0.00  0.00    -0.241 OA
ENDBRANCH   3  22
TORSDOF 7
ENDMDL
MODEL 3
REMARK VINA RESULT:      -5.0     11.842     13.789
REMARK  7 active torsions:
REMARK  status: ('A' for Active; 'I' for Inactive)
REMARK    1  A    between atoms: C_2  and  C_3 
REMARK    2  A    between atoms: C_3  and  O_6 
REMARK    3  A    between atoms: C_3  and  C_4 
REMARK    4  A    between atoms: C_7  and  O_6 
REMARK    5  A    between atoms: C_9  and  C_10 
REMARK    6  A    between atoms: N_15  and  C_14 
REMARK    7  A    between atoms: N_20  and  C_19 
REMARK       I    between atoms: C_22  and  N_20 
ROOT
ATOM      1  C   LIG d   1      -4.415  76.429 117.938  0.00  0.00     0.161 C 
ATOM      2  C   LIG d   1      -5.595  77.174 117.768  0.00  0.00     0.016 C 
ATOM      3  C   LIG d   1      -5.610  78.518 117.330  0.00  0.00     0.038 C 
ATOM      4  C   LIG d   1      -4.448  79.166 116.885  0.00  0.00     0.028 C 
ATOM      5  C   LIG d   1      -3.171  78.620 117.514  0.00  0.00    -0.047 C 
ATOM      6  C   LIG d   1      -3.147  77.083 117.351  0.00  0.00     0.091 C 
ENDROOT
BRANCH   1   7
ATOM      7  O   LIG d   1      -4.592  75.105 117.398  0.00  0.00    -0.368 OA
BRANCH   7   8
ATOM      8  C   LIG d   1      -5.767  74.903 116.574  0.00  0.00     0.119 C 
BRANCH   8   9
ATOM      9  C   LIG d   1      -6.472  73.629 117.077  0.00  0.00     0.028 C 
ATOM     10  C   LIG d   1      -6.174  72.406 116.194  0.00  0.00     0.006 C 
ENDBRANCH   8   9
BRANCH   8  11
ATOM     11  C   LIG d   1      -5.384  74.609 115.121  0.00  0.00     0.028 C 
ATOM     12  C   LIG d   1      -5.535  75.833 114.205  0.00  0.00     0.006 C 
ENDBRANCH   8  11
ENDBRANCH   7   8
ENDBRANCH   1   7
BRANCH   6  13
ATOM     13  N   LIG d   1      -1.972  76.461 118.013  0.00  0.00    -0.311 N 
ATOM     14  C   LIG d   1      -1.185  75.565 117.420  0.00  0.00     0.210 C 
ATOM     15  C   LIG d   1      -0.040  75.034 118.288  0.00  0.00     0.109 C 
ATOM     16  O   LIG d   1      -1.307  75.184 116.246  0.00  0.00    -0.276 OA
ATOM     17  H   LIG d   1      -1.781  76.736 118.957  0.00  0.00     0.149 HD
ENDBRANCH   6  13
BRANCH   5  18
ATOM     18  N   LIG d   1      -2.031  79.289 116.860  0.00  0.00     0.381 N 
ATOM     19  H   LIG d   1      -2.076  79.146 115.871  0.00  0.00    -0.090 HD
ATOM     20  H   LIG d   1      -1.177  78.882 117.199  0.00  0.00    -0.090 HD
ATOM     21  H   LIG d   1      -2.045  80.264 117.063  0.00  0.00    -0.090 HD
ENDBRANCH   5  18
BRANCH   3  22
ATOM     22  C   LIG d   1      -6.792  79.241 117.373  0.00  0.00     0.382 C 
ATOM     23  O   LIG d   1      -7.873  78.661 117.638  0.00  0.00    -0.241 OA
ATOM     24  O   LIG d   1      -6.798  80.458 117.107  0.00  0.00    -0.241 OA
ENDBRANCH   3  22
TORSDOF 7
ENDMDL
MODEL 4
REMARK VINA RESULT:      -4.9      2.387      4.932
REMARK  7 active torsions:
REMARK  status: ('A' for Active; 'I' for Inactive)
REMARK    1  A    between atoms: C_2  and  C_3 
REMARK    2  A    between atoms: C_3  and  O_6 
REMARK    3  A    between atoms: C_3  and  C_4 
REMARK    4  A    between atoms: C_7  and  O_6 
REMARK    5  A    between atoms: C_9  and  C_10 
REMARK    6  A    between atoms: N_15  and  C_14 
REMARK    7  A    between atoms: N_20  and  C_19 
REMARK       I    between atoms: C_22  and  N_20 
ROOT
ATOM      1  C   LIG d   1       3.001  87.393 114.754  0.00  0.00     0.161 C 
ATOM      2  C   LIG d   1       2.211  87.070 113.638  0.00  0.00     0.016 C 
ATOM      3  C   LIG d   1       2.667  87.181 112.304  0.00  0.00     0.038 C 
ATOM      4  C   LIG d   1       4.004  87.480 112.000  0.00  0.00     0.028 C 
ATOM      5  C   LIG d   1       4.700  88.304 113.078  0.00  0.00    -0.047 C 
ATOM      6  C   LIG d   1       4.496  87.615 114.446  0.00  0.00     0.091 C 
ENDROOT
BRANCH   1   7
ATOM      7  O   LIG d   1       2.843  86.384 115.772  0.00  0.00    -0.368 OA
BRANCH   7   8
ATOM      8  C   LIG d   1       3.569  85.148 115.562  0.00  0.00     0.119 C 
BRANCH   8   9
ATOM      9  C   LIG d   1       2.546  83.996 115.617  0.00  0.00     0.028 C 
ATOM     10  C   LIG d   1       2.320  83.346 114.241  0.00  0.00     0.006 C 
ENDBRANCH   8   9
BRANCH   8  11
ATOM     11  C   LIG d   1       4.548  84.876 116.707  0.00  0.00     0.028 C 
ATOM     12  C   LIG d   1       5.751  84.024 116.273  0.00  0.00     0.006 C 
ENDBRANCH   8  11
ENDBRANCH   7   8
ENDBRANCH   1   7
BRANCH   6  13
ATOM     13  N   LIG d   1       5.075  88.399 115.568  0.00  0.00    -0.311 N 
ATOM     14  C   LIG d   1       6.298  88.193 116.053  0.00  0.00     0.210 C 
ATOM     15  C   LIG d   1       6.690  89.099 117.224  0.00  0.00     0.109 C 
ATOM     16  O   LIG d   1       7.106  87.367 115.604  0.00  0.00    -0.276 OA
ATOM     17  H   LIG d   1       4.498  89.112 115.971  0.00  0.00     0.149 HD
ENDBRANCH   6  13
BRANCH   5  18
ATOM     18  N   LIG d   1       6.120  88.426 112.698  0.00  0.00     0.381 N 
ATOM     19  H   LIG d   1       6.402  89.385 112.742  0.00  0.00    -0.090 HD
ATOM     20  H   LIG d   1       6.232  88.107 111.751  0.00  0.00    -0.090 HD
ATOM     21  H   LIG d   1       6.685  87.878 113.309  0.00  0.00    -0.090 HD
ENDBRANCH   5  18
BRANCH   3  22
ATOM     22  C   LIG d   1       1.772  87.030 111.256  0.00  0.00     0.382 C 
ATOM     23  O   LIG d   1       0.554  87.276 111.432  0.00  0.00    -0.241 OA
ATOM     24  O   LIG d   1       2.158  86.608 110.150  0.00  0.00    -0.241 OA
ENDBRANCH   3  22
TORSDOF 7
ENDMDL
MODEL 5
REMARK VINA RESULT:      -4.7      2.337      5.143
REMARK  7 active torsions:
REMARK  status: ('A' for Active; 'I' for Inactive)
REMARK    1  A    between atoms: C_2  and  C_3 
REMARK    2  A    between atoms: C_3  and  O_6 
REMARK    3  A    between atoms: C_3  and  C_4 
REMARK    4  A    between atoms: C_7  and  O_6 
REMARK    5  A    between atoms: C_9  and  C_10 
REMARK    6  A    between atoms: N_15  and  C_14 
REMARK    7  A    between atoms: N_20  and  C_19 
REMARK       I    between atoms: C_22  and  N_20 
ROOT
ATOM      1  C   LIG d   1       3.324  87.642 114.851  0.00  0.00     0.161 C 
ATOM      2  C   LIG d   1       2.440  87.218 113.845  0.00  0.00     0.016 C 
ATOM      3  C   LIG d   1       2.775  87.201 112.472  0.00  0.00     0.038 C 
ATOM      4  C   LIG d   1       4.077  87.468 112.022  0.00  0.00     0.028 C 
ATOM      5  C   LIG d   1       4.862  88.387 112.951  0.00  0.00    -0.047 C 
ATOM      6  C   LIG d   1       4.785  87.830 114.391  0.00  0.00     0.091 C 
ENDROOT
BRANCH   1   7
ATOM      7  O   LIG d   1       3.264  86.734 115.969  0.00  0.00    -0.368 OA
BRANCH   7   8
ATOM      8  C   LIG d   1       2.607  87.233 117.160  0.00  0.00     0.119 C 
BRANCH   8   9
ATOM      9  C   LIG d   1       1.189  86.630 117.193  0.00  0.00     0.028 C 
ATOM     10  C   LIG d   1       0.100  87.673 116.887  0.00  0.00     0.006 C 
ENDBRANCH   8   9
BRANCH   8  11
ATOM     11  C   LIG d   1       2.401  88.749 117.090  0.00  0.00     0.028 C 
ATOM     12  C   LIG d   1       3.228  89.511 118.137  0.00  0.00     0.006 C 
ENDBRANCH   8  11
ENDBRANCH   7   8
ENDBRANCH   1   7
BRANCH   6  13
ATOM     13  N   LIG d   1       5.457  88.716 115.378  0.00  0.00    -0.311 N 
ATOM     14  C   LIG d   1       6.525  88.350 116.084  0.00  0.00     0.210 C 
ATOM     15  C   LIG d   1       7.049  89.407 117.060  0.00  0.00     0.109 C 
ATOM     16  O   LIG d   1       7.109  87.261 115.970  0.00  0.00    -0.276 OA
ATOM     17  H   LIG d   1       5.067  89.629 115.511  0.00  0.00     0.149 HD
ENDBRANCH   6  13
BRANCH   5  18
ATOM     18  N   LIG d   1       6.241  88.469 112.436  0.00  0.00     0.381 N 
ATOM     19  H   LIG d   1       6.292  88.040 111.534  0.00  0.00    -0.090 HD
ATOM     20  H   LIG d   1       6.851  87.968 113.058  0.00  0.00    -0.090 HD
ATOM     21  H   LIG d   1       6.527  89.422 112.375  0.00  0.00    -0.090 HD
ENDBRANCH   5  18
BRANCH   3  22
ATOM     22  C   LIG d   1       1.790  86.955 111.527  0.00  0.00     0.382 C 
ATOM     23  O   LIG d   1       2.096  86.848 110.315  0.00  0.00    -0.241 OA
ATOM     24  O   LIG d   1       0.593  86.882 111.867  0.00  0.00    -0.241 OA
ENDBRANCH   3  22
TORSDOF 7
ENDMDL
MODEL 6
REMARK VINA RESULT:      -4.7     11.845     13.805
REMARK  7 active torsions:
REMARK  status: ('A' for Active; 'I' for Inactive)
REMARK    1  A    between atoms: C_2  and  C_3 
REMARK    2  A    between atoms: C_3  and  O_6 
REMARK    3  A    between atoms: C_3  and  C_4 
REMARK    4  A    between atoms: C_7  and  O_6 
REMARK    5  A    between atoms: C_9  and  C_10 
REMARK    6  A    between atoms: N_15  and  C_14 
REMARK    7  A    between atoms: N_20  and  C_19 
REMARK       I    between atoms: C_22  and  N_20 
ROOT
ATOM      1  C   LIG d   1      11.170  78.222 114.364  0.00  0.00     0.161 C 
ATOM      2  C   LIG d   1       9.823  78.423 114.712  0.00  0.00     0.016 C 
ATOM      3  C   LIG d   1       8.986  77.397 115.206  0.00  0.00     0.038 C 
ATOM      4  C   LIG d   1       9.483  76.126 115.530  0.00  0.00     0.028 C 
ATOM      5  C   LIG d   1      10.715  75.733 114.722  0.00  0.00    -0.047 C 
ATOM      6  C   LIG d   1      11.759  76.869 114.815  0.00  0.00     0.091 C 
ENDROOT
BRANCH   1   7
ATOM      7  O   LIG d   1      11.971  79.310 114.865  0.00  0.00    -0.368 OA
BRANCH   7   8
ATOM      8  C   LIG d   1      12.441  80.262 113.879  0.00  0.00     0.119 C 
BRANCH   8   9
ATOM      9  C   LIG d   1      12.131  79.678 112.487  0.00  0.00     0.028 C 
ATOM     10  C   LIG d   1      11.346  80.660 111.600  0.00  0.00     0.006 C 
ENDBRANCH   8   9
BRANCH   8  11
ATOM     11  C   LIG d   1      13.965  80.408 113.927  0.00  0.00     0.028 C 
ATOM     12  C   LIG d   1      14.650  79.925 112.639  0.00  0.00     0.006 C 
ENDBRANCH   8  11
ENDBRANCH   7   8
ENDBRANCH   1   7
BRANCH   6  13
ATOM     13  N   LIG d   1      12.962  76.604 113.984  0.00  0.00    -0.311 N 
ATOM     14  C   LIG d   1      14.206  76.648 114.460  0.00  0.00     0.210 C 
ATOM     15  C   LIG d   1      15.302  76.361 113.429  0.00  0.00     0.109 C 
ATOM     16  O   LIG d   1      14.503  76.865 115.644  0.00  0.00    -0.276 OA
ATOM     17  H   LIG d   1      12.811  76.388 113.018  0.00  0.00     0.149 HD
ENDBRANCH   6  13
BRANCH   5  18
ATOM     18  N   LIG d   1      11.208  74.450 115.257  0.00  0.00     0.381 N 
ATOM     19  H   LIG d   1      11.234  73.766 114.526  0.00  0.00    -0.090 HD
ATOM     20  H   LIG d   1      10.575  74.129 115.967  0.00  0.00    -0.090 HD
ATOM     21  H   LIG d   1      12.119  74.568 115.642  0.00  0.00    -0.090 HD
ENDBRANCH   5  18
BRANCH   3  22
ATOM     22  C   LIG d   1       7.625  77.626 115.343  0.00  0.00     0.382 C 
ATOM     23  O   LIG d   1       7.213  78.481 116.163  0.00  0.00    -0.241 OA
ATOM     24  O   LIG d   1       6.803  76.958 114.688  0.00  0.00    -0.241 OA
ENDBRANCH   3  22
TORSDOF 7
ENDMDL
MODEL 7
REMARK VINA RESULT:      -4.7      9.986     12.143
REMARK  7 active torsions:
REMARK  status: ('A' for Active; 'I' for Inactive)
REMARK    1  A    between atoms: C_2  and  C_3 
REMARK    2  A    between atoms: C_3  and  O_6 
REMARK    3  A    between atoms: C_3  and  C_4 
REMARK    4  A    between atoms: C_7  and  O_6 
REMARK    5  A    between atoms: C_9  and  C_10 
REMARK    6  A    between atoms: N_15  and  C_14 
REMARK    7  A    between atoms: N_20  and  C_19 
REMARK       I    between atoms: C_22  and  N_20 
ROOT
ATOM      1  C   LIG d   1      -2.743  78.325 115.719  0.00  0.00     0.161 C 
ATOM      2  C   LIG d   1      -1.426  78.567 116.144  0.00  0.00     0.016 C 
ATOM      3  C   LIG d   1      -0.613  77.586 116.757  0.00  0.00     0.038 C 
ATOM      4  C   LIG d   1      -1.013  76.244 116.851  0.00  0.00     0.028 C 
ATOM      5  C   LIG d   1      -2.527  76.065 116.894  0.00  0.00    -0.047 C 
ATOM      6  C   LIG d   1      -3.157  76.838 115.713  0.00  0.00     0.091 C 
ENDROOT
BRANCH   1   7
ATOM      7  O   LIG d   1      -2.952  78.909 114.419  0.00  0.00    -0.368 OA
BRANCH   7   8
ATOM      8  C   LIG d   1      -2.005  78.530 113.390  0.00  0.00     0.119 C 
BRANCH   8   9
ATOM      9  C   LIG d   1      -1.669  79.798 112.581  0.00  0.00     0.028 C 
ATOM     10  C   LIG d   1      -2.822  80.817 112.580  0.00  0.00     0.006 C 
ENDBRANCH   8   9
BRANCH   8  11
ATOM     11  C   LIG d   1      -2.633  77.562 112.384  0.00  0.00     0.028 C 
ATOM     12  C   LIG d   1      -2.244  77.877 110.930  0.00  0.00     0.006 C 
ENDBRANCH   8  11
ENDBRANCH   7   8
ENDBRANCH   1   7
BRANCH   6  13
ATOM     13  N   LIG d   1      -4.642  76.785 115.729  0.00  0.00    -0.311 N 
ATOM     14  C   LIG d   1      -5.354  75.934 114.992  0.00  0.00     0.210 C 
ATOM     15  C   LIG d   1      -6.873  76.060 115.143  0.00  0.00     0.109 C 
ATOM     16  O   LIG d   1      -4.870  75.064 114.251  0.00  0.00    -0.276 OA
ATOM     17  H   LIG d   1      -5.116  77.435 116.325  0.00  0.00     0.149 HD
ENDBRANCH   6  13
BRANCH   5  18
ATOM     18  N   LIG d   1      -2.806  74.617 116.852  0.00  0.00     0.381 N 
ATOM     19  H   LIG d   1      -2.135  74.160 116.267  0.00  0.00    -0.090 HD
ATOM     20  H   LIG d   1      -3.719  74.474 116.457  0.00  0.00    -0.090 HD
ATOM     21  H   LIG d   1      -2.770  74.237 117.772  0.00  0.00    -0.090 HD
ENDBRANCH   5  18
BRANCH   3  22
ATOM     22  C   LIG d   1       0.600  77.952 117.320  0.00  0.00     0.382 C 
ATOM     23  O   LIG d   1       1.253  77.122 117.997  0.00  0.00    -0.241 OA
ATOM     24  O   LIG d   1       1.027  79.116 117.198  0.00  0.00    -0.241 OA
ENDBRANCH   3  22
TORSDOF 7
ENDMDL
MODEL 8
REMARK VINA RESULT:      -4.5     31.776     34.679
REMARK  7 active torsions:
REMARK  status: ('A' for Active; 'I' for Inactive)
REMARK    1  A    between atoms: C_2  and  C_3 
REMARK    2  A    between atoms: C_3  and  O_6 
REMARK    3  A    between atoms: C_3  and  C_4 
REMARK    4  A    between atoms: C_7  and  O_6 
REMARK    5  A    between atoms: C_9  and  C_10 
REMARK    6  A    between atoms: N_15  and  C_14 
REMARK    7  A    between atoms: N_20  and  C_19 
REMARK       I    between atoms: C_22  and  N_20 
ROOT
ATOM      1  C   LIG d   1     -13.143  57.043 114.199  0.00  0.00     0.161 C 
ATOM      2  C   LIG d   1     -12.076  57.950 114.312  0.00  0.00     0.016 C 
ATOM      3  C   LIG d   1     -11.204  58.263 113.244  0.00  0.00     0.038 C 
ATOM      4  C   LIG d   1     -11.433  57.801 111.940  0.00  0.00     0.028 C 
ATOM      5  C   LIG d   1     -12.202  56.485 111.890  0.00  0.00    -0.047 C 
ATOM      6  C   LIG d   1     -13.476  56.614 112.754  0.00  0.00     0.091 C 
ENDROOT
BRANCH   1   7
ATOM      7  O   LIG d   1     -14.313  57.583 114.844  0.00  0.00    -0.368 OA
BRANCH   7   8
ATOM      8  C   LIG d   1     -15.040  56.675 115.708  0.00  0.00     0.119 C 
BRANCH   8   9
ATOM      9  C   LIG d   1     -16.543  56.878 115.433  0.00  0.00     0.028 C 
ATOM     10  C   LIG d   1     -16.806  57.994 114.408  0.00  0.00     0.006 C 
ENDBRANCH   8   9
BRANCH   8  11
ATOM     11  C   LIG d   1     -14.845  57.034 117.184  0.00  0.00     0.028 C 
ATOM     12  C   LIG d   1     -13.711  56.236 117.847  0.00  0.00     0.006 C 
ENDBRANCH   8  11
ENDBRANCH   7   8
ENDBRANCH   1   7
BRANCH   6  13
ATOM     13  N   LIG d   1     -14.243  55.343 112.828  0.00  0.00    -0.311 N 
ATOM     14  C   LIG d   1     -15.432  55.170 112.255  0.00  0.00     0.210 C 
ATOM     15  C   LIG d   1     -16.059  53.789 112.471  0.00  0.00     0.109 C 
ATOM     16  O   LIG d   1     -16.014  56.019 111.562  0.00  0.00    -0.276 OA
ATOM     17  H   LIG d   1     -13.831  54.592 113.345  0.00  0.00     0.149 HD
ENDBRANCH   6  13
BRANCH   5  18
ATOM     18  N   LIG d   1     -12.491  56.191 110.473  0.00  0.00     0.381 N 
ATOM     19  H   LIG d   1     -11.823  56.652 109.888  0.00  0.00    -0.090 HD
ATOM     20  H   LIG d   1     -13.405  56.544 110.248  0.00  0.00    -0.090 HD
ATOM     21  H   LIG d   1     -12.459  55.208 110.315  0.00  0.00    -0.090 HD
ENDBRANCH   5  18
BRANCH   3  22
ATOM     22  C   LIG d   1     -10.064  59.015 113.485  0.00  0.00     0.382 C 
ATOM     23  O   LIG d   1      -9.014  58.789 112.837  0.00  0.00    -0.241 OA
ATOM     24  O   LIG d   1     -10.059  59.887 114.375  0.00  0.00    -0.241 OA
ENDBRANCH   3  22
TORSDOF 7
ENDMDL
MODEL 9
REMARK VINA RESULT:      -4.4     28.866     31.348
REMARK  7 active torsions:
REMARK  status: ('A' for Active; 'I' for Inactive)
REMARK    1  A    between atoms: C_2  and  C_3 
REMARK    2  A    between atoms: C_3  and  O_6 
REMARK    3  A    between atoms: C_3  and  C_4 
REMARK    4  A    between atoms: C_7  and  O_6 
REMARK    5  A    between atoms: C_9  and  C_10 
REMARK    6  A    between atoms: N_15  and  C_14 
REMARK    7  A    between atoms: N_20  and  C_19 
REMARK       I    between atoms: C_22  and  N_20 
ROOT
ATOM      1  C   LIG d   1     -18.139  64.895 115.352  0.00  0.00     0.161 C 
ATOM      2  C   LIG d   1     -16.922  64.778 116.044  0.00  0.00     0.016 C 
ATOM      3  C   LIG d   1     -16.586  65.570 117.166  0.00  0.00     0.038 C 
ATOM      4  C   LIG d   1     -17.513  66.433 117.769  0.00  0.00     0.028 C 
ATOM      5  C   LIG d   1     -18.573  66.952 116.804  0.00  0.00    -0.047 C 
ATOM      6  C   LIG d   1     -19.207  65.753 116.062  0.00  0.00     0.091 C 
ENDROOT
BRANCH   1   7
ATOM      7  O   LIG d   1     -18.663  63.584 115.060  0.00  0.00    -0.368 OA
BRANCH   7   8
ATOM      8  C   LIG d   1     -18.257  63.003 113.796  0.00  0.00     0.119 C 
BRANCH   8   9
ATOM      9  C   LIG d   1     -19.433  63.166 112.814  0.00  0.00     0.028 C 
ATOM     10  C   LIG d   1     -19.282  64.409 111.920  0.00  0.00     0.006 C 
ENDBRANCH   8   9
BRANCH   8  11
ATOM     11  C   LIG d   1     -18.041  61.492 113.922  0.00  0.00     0.028 C 
ATOM     12  C   LIG d   1     -18.808  60.876 115.103  0.00  0.00     0.006 C 
ENDBRANCH   8  11
ENDBRANCH   7   8
ENDBRANCH   1   7
BRANCH   6  13
ATOM     13  N   LIG d   1     -20.196  66.179 115.038  0.00  0.00    -0.311 N 
ATOM     14  C   LIG d   1     -21.407  65.637 114.919  0.00  0.00     0.210 C 
ATOM     15  C   LIG d   1     -22.262  66.209 113.783  0.00  0.00     0.109 C 
ATOM     16  O   LIG d   1     -21.866  64.760 115.666  0.00  0.00    -0.276 OA
ATOM     17  H   LIG d   1     -19.917  66.907 114.410  0.00  0.00     0.149 HD
ENDBRANCH   6  13
BRANCH   5  18
ATOM     18  N   LIG d   1     -19.551  67.727 117.591  0.00  0.00     0.381 N 
ATOM     19  H   LIG d   1     -19.139  68.588 117.890  0.00  0.00    -0.090 HD
ATOM     20  H   LIG d   1     -19.803  67.198 118.407  0.00  0.00    -0.090 HD
ATOM     21  H   LIG d   1     -20.361  67.911 117.042  0.00  0.00    -0.090 HD
ENDBRANCH   5  18
BRANCH   3  22
ATOM     22  C   LIG d   1     -15.296  65.531 117.673  0.00  0.00     0.382 C 
ATOM     23  O   LIG d   1     -14.619  66.585 117.747  0.00  0.00    -0.241 OA
ATOM     24  O   LIG d   1     -14.784  64.448 118.016  0.00  0.00    -0.241 OA
ENDBRANCH   3  22
TORSDOF 7
ENDMDL
