MODEL 1
REMARK VINA RESULT:      -5.6      0.000      0.000
REMARK  7 active torsions:
REMARK  status: ('A' for Active; 'I' for Inactive)
REMARK    1  A    between atoms: C_2  and  C_3 
REMARK    2  A    between atoms: C_3  and  O_6 
REMARK    3  A    between atoms: C_3  and  C_4 
REMARK    4  A    between atoms: C_7  and  O_6 
REMARK    5  A    between atoms: C_9  and  C_10 
REMARK    6  A    between atoms: N_15  and  C_14 
REMARK    7  A    between atoms: N_20  and  C_19 
REMARK       I    between atoms: C_22  and  N_20 
ROOT
ATOM      1  C   LIG d   1       1.815  84.340 110.646  0.00  0.00     0.161 C 
ATOM      2  C   LIG d   1       0.915  85.379 110.936  0.00  0.00     0.016 C 
ATOM      3  C   LIG d   1      -0.349  85.169 111.533  0.00  0.00     0.038 C 
ATOM      4  C   LIG d   1      -0.739  83.914 112.022  0.00  0.00     0.028 C 
ATOM      5  C   LIG d   1      -0.075  82.748 111.296  0.00  0.00    -0.047 C 
ATOM      6  C   LIG d   1       1.453  82.978 111.273  0.00  0.00     0.091 C 
ENDROOT
BRANCH   1   7
ATOM      7  O   LIG d   1       3.149  84.729 111.027  0.00  0.00    -0.368 OA
BRANCH   7   8
ATOM      8  C   LIG d   1       3.259  85.546 112.219  0.00  0.00     0.119 C 
BRANCH   8   9
ATOM      9  C   LIG d   1       4.110  86.779 111.858  0.00  0.00     0.028 C 
ATOM     10  C   LIG d   1       4.797  87.399 113.087  0.00  0.00     0.006 C 
ENDBRANCH   8   9
BRANCH   8  11
ATOM     11  C   LIG d   1       4.040  84.823 113.320  0.00  0.00     0.028 C 
ATOM     12  C   LIG d   1       3.126  84.163 114.364  0.00  0.00     0.006 C 
ENDBRANCH   8  11
ENDBRANCH   7   8
ENDBRANCH   1   7
BRANCH   6  13
ATOM     13  N   LIG d   1       2.173  81.926 110.508  0.00  0.00    -0.311 N 
ATOM     14  C   LIG d   1       2.522  80.751 111.028  0.00  0.00     0.210 C 
ATOM     15  C   LIG d   1       3.275  79.819 110.073  0.00  0.00     0.109 C 
ATOM     16  O   LIG d   1       2.252  80.379 112.180  0.00  0.00    -0.276 OA
ATOM     17  H   LIG d   1       2.404  82.132 109.556  0.00  0.00     0.149 HD
ENDBRANCH   6  13
BRANCH   5  18
ATOM     18  N   LIG d   1      -0.463  81.509 111.995  0.00  0.00     0.381 N 
ATOM     19  H   LIG d   1      -1.348  81.636 112.444  0.00  0.00    -0.090 HD
ATOM     20  H   LIG d   1       0.223  81.305 112.700  0.00  0.00    -0.090 HD
ATOM     21  H   LIG d   1      -0.518  80.754 111.346  0.00  0.00    -0.090 HD
ENDBRANCH   5  18
BRANCH   3  22
ATOM     22  C   LIG d   1      -1.255  86.216 111.610  0.00  0.00     0.382 C 
ATOM     23  O   LIG d   1      -1.876  86.431 112.679  0.00  0.00    -0.241 OA
ATOM     24  O   LIG d   1      -1.492  86.922 110.611  0.00  0.00    -0.241 OA
ENDBRANCH   3  22
TORSDOF 7
ENDMDL
MODEL 2
REMARK VINA RESULT:      -5.5      2.571      3.956
REMARK  7 active torsions:
REMARK  status: ('A' for Active; 'I' for Inactive)
REMARK    1  A    between atoms: C_2  and  C_3 
REMARK    2  A    between atoms: C_3  and  O_6 
REMARK    3  A    between atoms: C_3  and  C_4 
REMARK    4  A    between atoms: C_7  and  O_6 
REMARK    5  A    between atoms: C_9  and  C_10 
REMARK    6  A    between atoms: N_15  and  C_14 
REMARK    7  A    between atoms: N_20  and  C_19 
REMARK       I    between atoms: C_22  and  N_20 
ROOT
ATOM      1  C   LIG d   1       1.691  83.674 113.137  0.00  0.00     0.161 C 
ATOM      2  C   LIG d   1       2.351  84.903 112.970  0.00  0.00     0.016 C 
ATOM      3  C   LIG d   1       2.013  85.838 111.965  0.00  0.00     0.038 C 
ATOM      4  C   LIG d   1       0.885  85.671 111.147  0.00  0.00     0.028 C 
ATOM      5  C   LIG d   1       0.493  84.212 110.945  0.00  0.00    -0.047 C 
ATOM      6  C   LIG d   1       0.387  83.525 112.325  0.00  0.00     0.091 C 
ENDROOT
BRANCH   1   7
ATOM      7  O   LIG d   1       1.439  83.440 114.537  0.00  0.00    -0.368 OA
BRANCH   7   8
ATOM      8  C   LIG d   1       2.461  83.902 115.454  0.00  0.00     0.119 C 
BRANCH   8   9
ATOM      9  C   LIG d   1       3.105  82.657 116.094  0.00  0.00     0.028 C 
ATOM     10  C   LIG d   1       4.148  83.020 117.164  0.00  0.00     0.006 C 
ENDBRANCH   8   9
BRANCH   8  11
ATOM     11  C   LIG d   1       1.851  84.687 116.619  0.00  0.00     0.028 C 
ATOM     12  C   LIG d   1       1.789  86.199 116.350  0.00  0.00     0.006 C 
ENDBRANCH   8  11
ENDBRANCH   7   8
ENDBRANCH   1   7
BRANCH   6  13
ATOM     13  N   LIG d   1       0.090  82.073 112.215  0.00  0.00    -0.311 N 
ATOM     14  C   LIG d   1      -1.146  81.575 112.218  0.00  0.00     0.210 C 
ATOM     15  C   LIG d   1      -1.228  80.049 112.114  0.00  0.00     0.109 C 
ATOM     16  O   LIG d   1      -2.182  82.255 112.265  0.00  0.00    -0.276 OA
ATOM     17  H   LIG d   1       0.872  81.451 112.141  0.00  0.00     0.149 HD
ENDBRANCH   6  13
BRANCH   5  18
ATOM     18  N   LIG d   1      -0.774  84.191 110.189  0.00  0.00     0.381 N 
ATOM     19  H   LIG d   1      -0.772  83.424 109.547  0.00  0.00    -0.090 HD
ATOM     20  H   LIG d   1      -0.852  85.043 109.663  0.00  0.00    -0.090 HD
ATOM     21  H   LIG d   1      -1.543  84.106 110.816  0.00  0.00    -0.090 HD
ENDBRANCH   5  18
BRANCH   3  22
ATOM     22  C   LIG d   1       2.831  86.935 111.743  0.00  0.00     0.382 C 
ATOM     23  O   LIG d   1       3.980  86.773 111.266  0.00  0.00    -0.241 OA
ATOM     24  O   LIG d   1       2.452  88.079 112.056  0.00  0.00    -0.241 OA
ENDBRANCH   3  22
TORSDOF 7
ENDMDL
MODEL 3
REMARK VINA RESULT:      -5.4     11.077     13.220
REMARK  7 active torsions:
REMARK  status: ('A' for Active; 'I' for Inactive)
REMARK    1  A    between atoms: C_2  and  C_3 
REMARK    2  A    between atoms: C_3  and  O_6 
REMARK    3  A    between atoms: C_3  and  C_4 
REMARK    4  A    between atoms: C_7  and  O_6 
REMARK    5  A    between atoms: C_9  and  C_10 
REMARK    6  A    between atoms: N_15  and  C_14 
REMARK    7  A    between atoms: N_20  and  C_19 
REMARK       I    between atoms: C_22  and  N_20 
ROOT
ATOM      1  C   LIG d   1      -6.801  75.813 117.269  0.00  0.00     0.161 C 
ATOM      2  C   LIG d   1      -7.949  76.556 117.590  0.00  0.00     0.016 C 
ATOM      3  C   LIG d   1      -7.994  77.969 117.568  0.00  0.00     0.038 C 
ATOM      4  C   LIG d   1      -6.929  78.737 117.075  0.00  0.00     0.028 C 
ATOM      5  C   LIG d   1      -5.573  78.054 117.217  0.00  0.00    -0.047 C 
ATOM      6  C   LIG d   1      -5.663  76.630 116.622  0.00  0.00     0.091 C 
ENDROOT
BRANCH   1   7
ATOM      7  O   LIG d   1      -7.158  74.698 116.429  0.00  0.00    -0.368 OA
BRANCH   7   8
ATOM      8  C   LIG d   1      -7.109  73.390 117.050  0.00  0.00     0.119 C 
BRANCH   8   9
ATOM      9  C   LIG d   1      -6.620  72.390 115.984  0.00  0.00     0.028 C 
ATOM     10  C   LIG d   1      -5.322  72.849 115.300  0.00  0.00     0.006 C 
ENDBRANCH   8   9
BRANCH   8  11
ATOM     11  C   LIG d   1      -8.507  72.909 117.447  0.00  0.00     0.028 C 
ATOM     12  C   LIG d   1      -9.628  73.667 116.718  0.00  0.00     0.006 C 
ENDBRANCH   8  11
ENDBRANCH   7   8
ENDBRANCH   1   7
BRANCH   6  13
ATOM     13  N   LIG d   1      -4.402  75.862 116.796  0.00  0.00    -0.311 N 
ATOM     14  C   LIG d   1      -3.429  75.835 115.887  0.00  0.00     0.210 C 
ATOM     15  C   LIG d   1      -2.224  74.964 116.257  0.00  0.00     0.109 C 
ATOM     16  O   LIG d   1      -3.435  76.474 114.824  0.00  0.00    -0.276 OA
ATOM     17  H   LIG d   1      -4.300  75.339 117.643  0.00  0.00     0.149 HD
ENDBRANCH   6  13
BRANCH   5  18
ATOM     18  N   LIG d   1      -4.573  78.901 116.540  0.00  0.00     0.381 N 
ATOM     19  H   LIG d   1      -5.021  79.705 116.147  0.00  0.00    -0.090 HD
ATOM     20  H   LIG d   1      -4.155  78.377 115.793  0.00  0.00    -0.090 HD
ATOM     21  H   LIG d   1      -3.873  79.187 117.189  0.00  0.00    -0.090 HD
ENDBRANCH   5  18
BRANCH   3  22
ATOM     22  C   LIG d   1      -9.100  78.629 118.082  0.00  0.00     0.382 C 
ATOM     23  O   LIG d   1     -10.167  78.002 118.282  0.00  0.00    -0.241 OA
ATOM     24  O   LIG d   1      -9.056  79.854 118.305  0.00  0.00    -0.241 OA
ENDBRANCH   3  22
TORSDOF 7
ENDMDL
MODEL 4
REMARK VINA RESULT:      -5.3      9.653     11.726
REMARK  7 active torsions:
REMARK  status: ('A' for Active; 'I' for Inactive)
REMARK    1  A    between atoms: C_2  and  C_3 
REMARK    2  A    between atoms: C_3  and  O_6 
REMARK    3  A    between atoms: C_3  and  C_4 
REMARK    4  A    between atoms: C_7  and  O_6 
REMARK    5  A    between atoms: C_9  and  C_10 
REMARK    6  A    between atoms: N_15  and  C_14 
REMARK    7  A    between atoms: N_20  and  C_19 
REMARK       I    between atoms: C_22  and  N_20 
ROOT
ATOM      1  C   LIG d   1      -5.606  76.989 116.160  0.00  0.00     0.161 C 
ATOM      2  C   LIG d   1      -6.966  76.665 116.292  0.00  0.00     0.016 C 
ATOM      3  C   LIG d   1      -7.885  77.446 117.029  0.00  0.00     0.038 C 
ATOM      4  C   LIG d   1      -7.535  78.695 117.563  0.00  0.00     0.028 C 
ATOM      5  C   LIG d   1      -6.049  78.821 117.885  0.00  0.00    -0.047 C 
ATOM      6  C   LIG d   1      -5.230  78.406 116.642  0.00  0.00     0.091 C 
ENDROOT
BRANCH   1   7
ATOM      7  O   LIG d   1      -5.188  76.798 114.794  0.00  0.00    -0.368 OA
BRANCH   7   8
ATOM      8  C   LIG d   1      -4.247  75.722 114.560  0.00  0.00     0.119 C 
BRANCH   8   9
ATOM      9  C   LIG d   1      -5.050  74.505 114.062  0.00  0.00     0.028 C 
ATOM     10  C   LIG d   1      -5.243  73.442 115.156  0.00  0.00     0.006 C 
ENDBRANCH   8   9
BRANCH   8  11
ATOM     11  C   LIG d   1      -3.586  75.266 115.864  0.00  0.00     0.028 C 
ATOM     12  C   LIG d   1      -2.054  75.199 115.765  0.00  0.00     0.006 C 
ENDBRANCH   8  11
ENDBRANCH   7   8
ENDBRANCH   1   7
BRANCH   6  13
ATOM     13  N   LIG d   1      -3.766  78.420 116.898  0.00  0.00    -0.311 N 
ATOM     14  C   LIG d   1      -2.873  78.884 116.025  0.00  0.00     0.210 C 
ATOM     15  C   LIG d   1      -1.413  78.787 116.480  0.00  0.00     0.109 C 
ATOM     16  O   LIG d   1      -3.154  79.396 114.931  0.00  0.00    -0.276 OA
ATOM     17  H   LIG d   1      -3.452  78.051 117.775  0.00  0.00     0.149 HD
ENDBRANCH   6  13
BRANCH   5  18
ATOM     18  N   LIG d   1      -5.801  80.214 118.303  0.00  0.00     0.381 N 
ATOM     19  H   LIG d   1      -4.841  80.323 118.564  0.00  0.00    -0.090 HD
ATOM     20  H   LIG d   1      -6.371  80.419 119.105  0.00  0.00    -0.090 HD
ATOM     21  H   LIG d   1      -6.023  80.838 117.559  0.00  0.00    -0.090 HD
ENDBRANCH   5  18
BRANCH   3  22
ATOM     22  C   LIG d   1      -9.161  76.960 117.273  0.00  0.00     0.382 C 
ATOM     23  O   LIG d   1      -9.964  77.628 117.968  0.00  0.00    -0.241 OA
ATOM     24  O   LIG d   1      -9.503  75.842 116.843  0.00  0.00    -0.241 OA
ENDBRANCH   3  22
TORSDOF 7
ENDMDL
MODEL 5
REMARK VINA RESULT:      -5.0      9.029     11.270
REMARK  7 active torsions:
REMARK  status: ('A' for Active; 'I' for Inactive)
REMARK    1  A    between atoms: C_2  and  C_3 
REMARK    2  A    between atoms: C_3  and  O_6 
REMARK    3  A    between atoms: C_3  and  C_4 
REMARK    4  A    between atoms: C_7  and  O_6 
REMARK    5  A    between atoms: C_9  and  C_10 
REMARK    6  A    between atoms: N_15  and  C_14 
REMARK    7  A    between atoms: N_20  and  C_19 
REMARK       I    between atoms: C_22  and  N_20 
ROOT
ATOM      1  C   LIG d   1      -3.897  76.132 117.008  0.00  0.00     0.161 C 
ATOM      2  C   LIG d   1      -5.028  76.953 117.148  0.00  0.00     0.016 C 
ATOM      3  C   LIG d   1      -5.037  78.329 116.820  0.00  0.00     0.038 C 
ATOM      4  C   LIG d   1      -3.950  78.946 116.183  0.00  0.00     0.028 C 
ATOM      5  C   LIG d   1      -2.613  78.279 116.485  0.00  0.00    -0.047 C 
ATOM      6  C   LIG d   1      -2.735  76.762 116.211  0.00  0.00     0.091 C 
ENDROOT
BRANCH   1   7
ATOM      7  O   LIG d   1      -4.278  74.870 116.425  0.00  0.00    -0.368 OA
BRANCH   7   8
ATOM      8  C   LIG d   1      -5.469  74.883 115.600  0.00  0.00     0.119 C 
BRANCH   8   9
ATOM      9  C   LIG d   1      -6.271  73.608 115.924  0.00  0.00     0.028 C 
ATOM     10  C   LIG d   1      -7.392  73.864 116.946  0.00  0.00     0.006 C 
ENDBRANCH   8   9
BRANCH   8  11
ATOM     11  C   LIG d   1      -5.117  74.774 114.113  0.00  0.00     0.028 C 
ATOM     12  C   LIG d   1      -5.412  76.066 113.335  0.00  0.00     0.006 C 
ENDBRANCH   8  11
ENDBRANCH   7   8
ENDBRANCH   1   7
BRANCH   6  13
ATOM     13  N   LIG d   1      -1.496  76.021 116.560  0.00  0.00    -0.311 N 
ATOM     14  C   LIG d   1      -0.850  75.228 115.707  0.00  0.00     0.210 C 
ATOM     15  C   LIG d   1       0.396  74.543 116.277  0.00  0.00     0.109 C 
ATOM     16  O   LIG d   1      -1.173  75.053 114.522  0.00  0.00    -0.276 OA
ATOM     17  H   LIG d   1      -1.146  76.130 117.492  0.00  0.00     0.149 HD
ENDBRANCH   6  13
BRANCH   5  18
ATOM     18  N   LIG d   1      -1.589  78.936 115.651  0.00  0.00     0.381 N 
ATOM     19  H   LIG d   1      -0.676  78.681 115.971  0.00  0.00    -0.090 HD
ATOM     20  H   LIG d   1      -1.687  79.932 115.740  0.00  0.00    -0.090 HD
ATOM     21  H   LIG d   1      -1.701  78.668 114.698  0.00  0.00    -0.090 HD
ENDBRANCH   5  18
BRANCH   3  22
ATOM     22  C   LIG d   1      -6.129  79.111 117.167  0.00  0.00     0.382 C 
ATOM     23  O   LIG d   1      -6.058  80.360 117.077  0.00  0.00    -0.241 OA
ATOM     24  O   LIG d   1      -7.167  78.585 117.610  0.00  0.00    -0.241 OA
ENDBRANCH   3  22
TORSDOF 7
ENDMDL
MODEL 6
REMARK VINA RESULT:      -4.9      2.786      4.570
REMARK  7 active torsions:
REMARK  status: ('A' for Active; 'I' for Inactive)
REMARK    1  A    between atoms: C_2  and  C_3 
REMARK    2  A    between atoms: C_3  and  O_6 
REMARK    3  A    between atoms: C_3  and  C_4 
REMARK    4  A    between atoms: C_7  and  O_6 
REMARK    5  A    between atoms: C_9  and  C_10 
REMARK    6  A    between atoms: N_15  and  C_14 
REMARK    7  A    between atoms: N_20  and  C_19 
REMARK       I    between atoms: C_22  and  N_20 
ROOT
ATOM      1  C   LIG d   1       1.966  85.220 113.724  0.00  0.00     0.161 C 
ATOM      2  C   LIG d   1       0.756  84.637 113.315  0.00  0.00     0.016 C 
ATOM      3  C   LIG d   1       0.506  84.207 111.992  0.00  0.00     0.038 C 
ATOM      4  C   LIG d   1       1.513  84.194 111.014  0.00  0.00     0.028 C 
ATOM      5  C   LIG d   1       2.597  85.240 111.248  0.00  0.00    -0.047 C 
ATOM      6  C   LIG d   1       3.115  85.112 112.699  0.00  0.00     0.091 C 
ENDROOT
BRANCH   1   7
ATOM      7  O   LIG d   1       2.372  84.667 114.991  0.00  0.00    -0.368 OA
BRANCH   7   8
ATOM      8  C   LIG d   1       2.265  85.549 116.135  0.00  0.00     0.119 C 
BRANCH   8   9
ATOM      9  C   LIG d   1       1.525  86.819 115.674  0.00  0.00     0.028 C 
ATOM     10  C   LIG d   1       2.208  88.107 116.162  0.00  0.00     0.006 C 
ENDBRANCH   8   9
BRANCH   8  11
ATOM     11  C   LIG d   1       3.644  86.030 116.599  0.00  0.00     0.028 C 
ATOM     12  C   LIG d   1       4.751  84.992 116.353  0.00  0.00     0.006 C 
ENDBRANCH   8  11
ENDBRANCH   7   8
ENDBRANCH   1   7
BRANCH   6  13
ATOM     13  N   LIG d   1       4.119  86.154 113.037  0.00  0.00    -0.311 N 
ATOM     14  C   LIG d   1       3.894  87.460 112.901  0.00  0.00     0.210 C 
ATOM     15  C   LIG d   1       5.071  88.362 113.288  0.00  0.00     0.109 C 
ATOM     16  O   LIG d   1       2.821  87.958 112.529  0.00  0.00    -0.276 OA
ATOM     17  H   LIG d   1       5.007  85.839 113.376  0.00  0.00     0.149 HD
ENDBRANCH   6  13
BRANCH   5  18
ATOM     18  N   LIG d   1       3.650  85.024 110.237  0.00  0.00     0.381 N 
ATOM     19  H   LIG d   1       3.588  84.093 109.878  0.00  0.00    -0.090 HD
ATOM     20  H   LIG d   1       4.548  85.135 110.674  0.00  0.00    -0.090 HD
ATOM     21  H   LIG d   1       3.550  85.682 109.495  0.00  0.00    -0.090 HD
ENDBRANCH   5  18
BRANCH   3  22
ATOM     22  C   LIG d   1      -0.774  83.822 111.624  0.00  0.00     0.382 C 
ATOM     23  O   LIG d   1      -1.533  83.284 112.466  0.00  0.00    -0.241 OA
ATOM     24  O   LIG d   1      -1.164  83.965 110.449  0.00  0.00    -0.241 OA
ENDBRANCH   3  22
TORSDOF 7
ENDMDL
MODEL 7
REMARK VINA RESULT:      -4.7     10.212     12.193
REMARK  7 active torsions:
REMARK  status: ('A' for Active; 'I' for Inactive)
REMARK    1  A    between atoms: C_2  and  C_3 
REMARK    2  A    between atoms: C_3  and  O_6 
REMARK    3  A    between atoms: C_3  and  C_4 
REMARK    4  A    between atoms: C_7  and  O_6 
REMARK    5  A    between atoms: C_9  and  C_10 
REMARK    6  A    between atoms: N_15  and  C_14 
REMARK    7  A    between atoms: N_20  and  C_19 
REMARK       I    between atoms: C_22  and  N_20 
ROOT
ATOM      1  C   LIG d   1      10.801  77.955 115.123  0.00  0.00     0.161 C 
ATOM      2  C   LIG d   1       9.459  77.930 115.536  0.00  0.00     0.016 C 
ATOM      3  C   LIG d   1       8.709  76.739 115.674  0.00  0.00     0.038 C 
ATOM      4  C   LIG d   1       9.300  75.472 115.553  0.00  0.00     0.028 C 
ATOM      5  C   LIG d   1      10.525  75.460 114.644  0.00  0.00    -0.047 C 
ATOM      6  C   LIG d   1      11.495  76.576 115.094  0.00  0.00     0.091 C 
ENDROOT
BRANCH   1   7
ATOM      7  O   LIG d   1      11.548  78.874 115.945  0.00  0.00    -0.368 OA
BRANCH   7   8
ATOM      8  C   LIG d   1      12.016  80.078 115.290  0.00  0.00     0.119 C 
BRANCH   8   9
ATOM      9  C   LIG d   1      11.388  81.279 116.024  0.00  0.00     0.028 C 
ATOM     10  C   LIG d   1       9.985  81.621 115.496  0.00  0.00     0.006 C 
ENDBRANCH   8   9
BRANCH   8  11
ATOM     11  C   LIG d   1      11.499  80.167 113.851  0.00  0.00     0.028 C 
ATOM     12  C   LIG d   1      12.625  80.098 112.808  0.00  0.00     0.006 C 
ENDBRANCH   8  11
ENDBRANCH   7   8
ENDBRANCH   1   7
BRANCH   6  13
ATOM     13  N   LIG d   1      12.681  76.689 114.207  0.00  0.00    -0.311 N 
ATOM     14  C   LIG d   1      13.925  76.832 114.660  0.00  0.00     0.210 C 
ATOM     15  C   LIG d   1      15.000  76.948 113.575  0.00  0.00     0.109 C 
ATOM     16  O   LIG d   1      14.245  76.841 115.859  0.00  0.00    -0.276 OA
ATOM     17  H   LIG d   1      12.517  76.659 113.219  0.00  0.00     0.149 HD
ENDBRANCH   6  13
BRANCH   5  18
ATOM     18  N   LIG d   1      11.121  74.112 114.718  0.00  0.00     0.381 N 
ATOM     19  H   LIG d   1      10.400  73.430 114.849  0.00  0.00    -0.090 HD
ATOM     20  H   LIG d   1      11.740  74.073 115.509  0.00  0.00    -0.090 HD
ATOM     21  H   LIG d   1      11.625  73.917 113.882  0.00  0.00    -0.090 HD
ENDBRANCH   5  18
BRANCH   3  22
ATOM     22  C   LIG d   1       7.342  76.809 115.896  0.00  0.00     0.382 C 
ATOM     23  O   LIG d   1       6.611  77.458 115.109  0.00  0.00    -0.241 OA
ATOM     24  O   LIG d   1       6.837  76.270 116.899  0.00  0.00    -0.241 OA
ENDBRANCH   3  22
TORSDOF 7
ENDMDL
MODEL 8
REMARK VINA RESULT:      -4.6      2.983      5.427
REMARK  7 active torsions:
REMARK  status: ('A' for Active; 'I' for Inactive)
REMARK    1  A    between atoms: C_2  and  C_3 
REMARK    2  A    between atoms: C_3  and  O_6 
REMARK    3  A    between atoms: C_3  and  C_4 
REMARK    4  A    between atoms: C_7  and  O_6 
REMARK    5  A    between atoms: C_9  and  C_10 
REMARK    6  A    between atoms: N_15  and  C_14 
REMARK    7  A    between atoms: N_20  and  C_19 
REMARK       I    between atoms: C_22  and  N_20 
ROOT
ATOM      1  C   LIG d   1       3.309  85.149 114.010  0.00  0.00     0.161 C 
ATOM      2  C   LIG d   1       4.245  86.169 114.246  0.00  0.00     0.016 C 
ATOM      3  C   LIG d   1       4.296  87.367 113.497  0.00  0.00     0.038 C 
ATOM      4  C   LIG d   1       3.312  87.693 112.552  0.00  0.00     0.028 C 
ATOM      5  C   LIG d   1       2.643  86.473 111.928  0.00  0.00    -0.047 C 
ATOM      6  C   LIG d   1       2.158  85.535 113.057  0.00  0.00     0.091 C 
ENDROOT
BRANCH   1   7
ATOM      7  O   LIG d   1       2.782  84.669 115.262  0.00  0.00    -0.368 OA
BRANCH   7   8
ATOM      8  C   LIG d   1       3.283  83.387 115.715  0.00  0.00     0.119 C 
BRANCH   8   9
ATOM      9  C   LIG d   1       2.131  82.671 116.446  0.00  0.00     0.028 C 
ATOM     10  C   LIG d   1       2.286  81.141 116.430  0.00  0.00     0.006 C 
ENDBRANCH   8   9
BRANCH   8  11
ATOM     11  C   LIG d   1       4.385  83.559 116.765  0.00  0.00     0.028 C 
ATOM     12  C   LIG d   1       3.921  84.365 117.989  0.00  0.00     0.006 C 
ENDBRANCH   8  11
ENDBRANCH   7   8
ENDBRANCH   1   7
BRANCH   6  13
ATOM     13  N   LIG d   1       1.566  84.276 112.532  0.00  0.00    -0.311 N 
ATOM     14  C   LIG d   1       0.258  84.098 112.358  0.00  0.00     0.210 C 
ATOM     15  C   LIG d   1      -0.142  82.719 111.826  0.00  0.00     0.109 C 
ATOM     16  O   LIG d   1      -0.607  84.963 112.563  0.00  0.00    -0.276 OA
ATOM     17  H   LIG d   1       2.199  83.533 112.310  0.00  0.00     0.149 HD
ENDBRANCH   6  13
BRANCH   5  18
ATOM     18  N   LIG d   1       1.548  86.957 111.067  0.00  0.00     0.381 N 
ATOM     19  H   LIG d   1       1.068  86.179 110.660  0.00  0.00    -0.090 HD
ATOM     20  H   LIG d   1       1.938  87.511 110.325  0.00  0.00    -0.090 HD
ATOM     21  H   LIG d   1       0.911  87.506 111.602  0.00  0.00    -0.090 HD
ENDBRANCH   5  18
BRANCH   3  22
ATOM     22  C   LIG d   1       5.364  88.235 113.662  0.00  0.00     0.382 C 
ATOM     23  O   LIG d   1       6.207  88.028 114.569  0.00  0.00    -0.241 OA
ATOM     24  O   LIG d   1       5.472  89.248 112.945  0.00  0.00    -0.241 OA
ENDBRANCH   3  22
TORSDOF 7
ENDMDL
MODEL 9
REMARK VINA RESULT:      -4.5      8.188     11.160
REMARK  7 active torsions:
REMARK  status: ('A' for Active; 'I' for Inactive)
REMARK    1  A    between atoms: C_2  and  C_3 
REMARK    2  A    between atoms: C_3  and  O_6 
REMARK    3  A    between atoms: C_3  and  C_4 
REMARK    4  A    between atoms: C_7  and  O_6 
REMARK    5  A    between atoms: C_9  and  C_10 
REMARK    6  A    between atoms: N_15  and  C_14 
REMARK    7  A    between atoms: N_20  and  C_19 
REMARK       I    between atoms: C_22  and  N_20 
ROOT
ATOM      1  C   LIG d   1      -2.830  76.532 115.443  0.00  0.00     0.161 C 
ATOM      2  C   LIG d   1      -2.321  75.537 116.295  0.00  0.00     0.016 C 
ATOM      3  C   LIG d   1      -1.092  75.656 116.984  0.00  0.00     0.038 C 
ATOM      4  C   LIG d   1      -0.356  76.851 116.986  0.00  0.00     0.028 C 
ATOM      5  C   LIG d   1      -0.576  77.700 115.739  0.00  0.00    -0.047 C 
ATOM      6  C   LIG d   1      -2.095  77.887 115.520  0.00  0.00     0.091 C 
ENDROOT
BRANCH   1   7
ATOM      7  O   LIG d   1      -4.239  76.711 115.688  0.00  0.00    -0.368 OA
BRANCH   7   8
ATOM      8  C   LIG d   1      -5.023  75.500 115.816  0.00  0.00     0.119 C 
BRANCH   8   9
ATOM      9  C   LIG d   1      -5.322  74.990 114.392  0.00  0.00     0.028 C 
ATOM     10  C   LIG d   1      -5.976  76.066 113.509  0.00  0.00     0.006 C 
ENDBRANCH   8   9
BRANCH   8  11
ATOM     11  C   LIG d   1      -6.392  75.785 116.440  0.00  0.00     0.028 C 
ATOM     12  C   LIG d   1      -7.140  74.505 116.846  0.00  0.00     0.006 C 
ENDBRANCH   8  11
ENDBRANCH   7   8
ENDBRANCH   1   7
BRANCH   6  13
ATOM     13  N   LIG d   1      -2.400  78.635 114.273  0.00  0.00    -0.311 N 
ATOM     14  C   LIG d   1      -2.163  78.156 113.054  0.00  0.00     0.210 C 
ATOM     15  C   LIG d   1      -2.534  79.099 111.905  0.00  0.00     0.109 C 
ATOM     16  O   LIG d   1      -1.710  77.027 112.813  0.00  0.00    -0.276 OA
ATOM     17  H   LIG d   1      -2.799  79.548 114.375  0.00  0.00     0.149 HD
ENDBRANCH   6  13
BRANCH   5  18
ATOM     18  N   LIG d   1       0.141  78.974 115.935  0.00  0.00     0.381 N 
ATOM     19  H   LIG d   1       0.252  79.153 116.913  0.00  0.00    -0.090 HD
ATOM     20  H   LIG d   1      -0.405  79.718 115.538  0.00  0.00    -0.090 HD
ATOM     21  H   LIG d   1       1.033  78.934 115.494  0.00  0.00    -0.090 HD
ENDBRANCH   5  18
BRANCH   3  22
ATOM     22  C   LIG d   1      -0.568  74.559 117.650  0.00  0.00     0.382 C 
ATOM     23  O   LIG d   1       0.496  74.672 118.304  0.00  0.00    -0.241 OA
ATOM     24  O   LIG d   1      -1.122  73.446 117.567  0.00  0.00    -0.241 OA
ENDBRANCH   3  22
TORSDOF 7
ENDMDL
