MODEL 1
REMARK VINA RESULT:      -5.3      0.000      0.000
REMARK  7 active torsions:
REMARK  status: ('A' for Active; 'I' for Inactive)
REMARK    1  A    between atoms: C_2  and  C_3 
REMARK    2  A    between atoms: C_3  and  O_6 
REMARK    3  A    between atoms: C_3  and  C_4 
REMARK    4  A    between atoms: C_7  and  O_6 
REMARK    5  A    between atoms: C_9  and  C_10 
REMARK    6  A    between atoms: N_15  and  C_14 
REMARK    7  A    between atoms: N_20  and  C_19 
REMARK       I    between atoms: C_22  and  N_20 
ROOT
ATOM      1  C   LIG d   1       3.967  86.503 113.046  0.00  0.00     0.161 C 
ATOM      2  C   LIG d   1       3.720  87.803 113.518  0.00  0.00     0.016 C 
ATOM      3  C   LIG d   1       2.730  88.654 112.973  0.00  0.00     0.038 C 
ATOM      4  C   LIG d   1       1.813  88.203 112.012  0.00  0.00     0.028 C 
ATOM      5  C   LIG d   1       2.348  87.064 111.151  0.00  0.00    -0.047 C 
ATOM      6  C   LIG d   1       2.902  85.955 112.074  0.00  0.00     0.091 C 
ENDROOT
BRANCH   1   7
ATOM      7  O   LIG d   1       4.139  85.605 114.160  0.00  0.00    -0.368 OA
BRANCH   7   8
ATOM      8  C   LIG d   1       2.968  84.848 114.555  0.00  0.00     0.119 C 
BRANCH   8   9
ATOM      9  C   LIG d   1       2.532  85.359 115.941  0.00  0.00     0.028 C 
ATOM     10  C   LIG d   1       1.427  86.425 115.853  0.00  0.00     0.006 C 
ENDBRANCH   8   9
BRANCH   8  11
ATOM     11  C   LIG d   1       3.304  83.367 114.756  0.00  0.00     0.028 C 
ATOM     12  C   LIG d   1       2.201  82.430 114.237  0.00  0.00     0.006 C 
ENDBRANCH   8  11
ENDBRANCH   7   8
ENDBRANCH   1   7
BRANCH   6  13
ATOM     13  N   LIG d   1       3.522  84.840 111.311  0.00  0.00    -0.311 N 
ATOM     14  C   LIG d   1       2.839  83.784 110.872  0.00  0.00     0.210 C 
ATOM     15  C   LIG d   1       3.675  82.739 110.124  0.00  0.00     0.109 C 
ATOM     16  O   LIG d   1       1.616  83.628 111.002  0.00  0.00    -0.276 OA
ATOM     17  H   LIG d   1       4.505  84.900 111.133  0.00  0.00     0.149 HD
ENDBRANCH   6  13
BRANCH   5  18
ATOM     18  N   LIG d   1       1.244  86.601 110.288  0.00  0.00     0.381 N 
ATOM     19  H   LIG d   1       0.965  85.679 110.561  0.00  0.00    -0.090 HD
ATOM     20  H   LIG d   1       1.568  86.564 109.338  0.00  0.00    -0.090 HD
ATOM     21  H   LIG d   1       0.471  87.224 110.360  0.00  0.00    -0.090 HD
ENDBRANCH   5  18
BRANCH   3  22
ATOM     22  C   LIG d   1       2.677  89.984 113.361  0.00  0.00     0.382 C 
ATOM     23  O   LIG d   1       2.810  90.290 114.570  0.00  0.00    -0.241 OA
ATOM     24  O   LIG d   1       2.454  90.878 112.523  0.00  0.00    -0.241 OA
ENDBRANCH   3  22
TORSDOF 7
ENDMDL
MODEL 2
REMARK VINA RESULT:      -5.2      1.055      1.713
REMARK  7 active torsions:
REMARK  status: ('A' for Active; 'I' for Inactive)
REMARK    1  A    between atoms: C_2  and  C_3 
REMARK    2  A    between atoms: C_3  and  O_6 
REMARK    3  A    between atoms: C_3  and  C_4 
REMARK    4  A    between atoms: C_7  and  O_6 
REMARK    5  A    between atoms: C_9  and  C_10 
REMARK    6  A    between atoms: N_15  and  C_14 
REMARK    7  A    between atoms: N_20  and  C_19 
REMARK       I    between atoms: C_22  and  N_20 
ROOT
ATOM      1  C   LIG d   1       3.910  86.482 113.011  0.00  0.00     0.161 C 
ATOM      2  C   LIG d   1       3.690  87.787 113.482  0.00  0.00     0.016 C 
ATOM      3  C   LIG d   1       2.710  88.654 112.945  0.00  0.00     0.038 C 
ATOM      4  C   LIG d   1       1.777  88.218 111.993  0.00  0.00     0.028 C 
ATOM      5  C   LIG d   1       2.284  87.069 111.129  0.00  0.00    -0.047 C 
ATOM      6  C   LIG d   1       2.827  85.951 112.048  0.00  0.00     0.091 C 
ENDROOT
BRANCH   1   7
ATOM      7  O   LIG d   1       4.076  85.582 114.124  0.00  0.00    -0.368 OA
BRANCH   7   8
ATOM      8  C   LIG d   1       3.681  86.093 115.421  0.00  0.00     0.119 C 
BRANCH   8   9
ATOM      9  C   LIG d   1       4.630  85.479 116.469  0.00  0.00     0.028 C 
ATOM     10  C   LIG d   1       5.592  86.518 117.068  0.00  0.00     0.006 C 
ENDBRANCH   8   9
BRANCH   8  11
ATOM     11  C   LIG d   1       2.281  85.607 115.808  0.00  0.00     0.028 C 
ATOM     12  C   LIG d   1       1.374  86.742 116.310  0.00  0.00     0.006 C 
ENDBRANCH   8  11
ENDBRANCH   7   8
ENDBRANCH   1   7
BRANCH   6  13
ATOM     13  N   LIG d   1       3.420  84.825 111.282  0.00  0.00    -0.311 N 
ATOM     14  C   LIG d   1       2.945  83.581 111.320  0.00  0.00     0.210 C 
ATOM     15  C   LIG d   1       3.717  82.567 110.470  0.00  0.00     0.109 C 
ATOM     16  O   LIG d   1       1.938  83.228 111.953  0.00  0.00    -0.276 OA
ATOM     17  H   LIG d   1       4.222  85.029 110.717  0.00  0.00     0.149 HD
ENDBRANCH   6  13
BRANCH   5  18
ATOM     18  N   LIG d   1       1.165  86.624 110.277  0.00  0.00     0.381 N 
ATOM     19  H   LIG d   1       0.475  87.346 110.220  0.00  0.00    -0.090 HD
ATOM     20  H   LIG d   1       0.740  85.815 110.695  0.00  0.00    -0.090 HD
ATOM     21  H   LIG d   1       1.498  86.400 109.365  0.00  0.00    -0.090 HD
ENDBRANCH   5  18
BRANCH   3  22
ATOM     22  C   LIG d   1       2.684  89.985 113.332  0.00  0.00     0.382 C 
ATOM     23  O   LIG d   1       2.807  90.289 114.543  0.00  0.00    -0.241 OA
ATOM     24  O   LIG d   1       2.496  90.884 112.490  0.00  0.00    -0.241 OA
ENDBRANCH   3  22
TORSDOF 7
ENDMDL
MODEL 3
REMARK VINA RESULT:      -5.2      2.018      4.081
REMARK  7 active torsions:
REMARK  status: ('A' for Active; 'I' for Inactive)
REMARK    1  A    between atoms: C_2  and  C_3 
REMARK    2  A    between atoms: C_3  and  O_6 
REMARK    3  A    between atoms: C_3  and  C_4 
REMARK    4  A    between atoms: C_7  and  O_6 
REMARK    5  A    between atoms: C_9  and  C_10 
REMARK    6  A    between atoms: N_15  and  C_14 
REMARK    7  A    between atoms: N_20  and  C_19 
REMARK       I    between atoms: C_22  and  N_20 
ROOT
ATOM      1  C   LIG d   1       2.201  86.274 113.014  0.00  0.00     0.161 C 
ATOM      2  C   LIG d   1       2.248  87.674 112.900  0.00  0.00     0.016 C 
ATOM      3  C   LIG d   1       2.928  88.507 113.818  0.00  0.00     0.038 C 
ATOM      4  C   LIG d   1       3.740  87.983 114.834  0.00  0.00     0.028 C 
ATOM      5  C   LIG d   1       3.315  86.592 115.292  0.00  0.00    -0.047 C 
ATOM      6  C   LIG d   1       3.173  85.678 114.053  0.00  0.00     0.091 C 
ENDROOT
BRANCH   1   7
ATOM      7  O   LIG d   1       2.416  85.671 111.723  0.00  0.00    -0.368 OA
BRANCH   7   8
ATOM      8  C   LIG d   1       1.284  84.971 111.151  0.00  0.00     0.119 C 
BRANCH   8   9
ATOM      9  C   LIG d   1       1.829  83.719 110.436  0.00  0.00     0.028 C 
ATOM     10  C   LIG d   1       3.318  83.474 110.733  0.00  0.00     0.006 C 
ENDBRANCH   8   9
BRANCH   8  11
ATOM     11  C   LIG d   1       0.610  85.802 110.055  0.00  0.00     0.028 C 
ATOM     12  C   LIG d   1      -0.828  86.207 110.415  0.00  0.00     0.006 C 
ENDBRANCH   8  11
ENDBRANCH   7   8
ENDBRANCH   1   7
BRANCH   6  13
ATOM     13  N   LIG d   1       2.679  84.321 114.404  0.00  0.00    -0.311 N 
ATOM     14  C   LIG d   1       3.476  83.329 114.799  0.00  0.00     0.210 C 
ATOM     15  C   LIG d   1       2.765  82.005 115.092  0.00  0.00     0.109 C 
ATOM     16  O   LIG d   1       4.701  83.431 114.965  0.00  0.00    -0.276 OA
ATOM     17  H   LIG d   1       1.694  84.160 114.328  0.00  0.00     0.149 HD
ENDBRANCH   6  13
BRANCH   5  18
ATOM     18  N   LIG d   1       4.326  86.111 116.253  0.00  0.00     0.381 N 
ATOM     19  H   LIG d   1       3.892  85.516 116.931  0.00  0.00    -0.090 HD
ATOM     20  H   LIG d   1       4.720  86.901 116.732  0.00  0.00    -0.090 HD
ATOM     21  H   LIG d   1       5.042  85.612 115.773  0.00  0.00    -0.090 HD
ENDBRANCH   5  18
BRANCH   3  22
ATOM     22  C   LIG d   1       2.767  89.883 113.747  0.00  0.00     0.382 C 
ATOM     23  O   LIG d   1       2.642  90.554 114.799  0.00  0.00    -0.241 OA
ATOM     24  O   LIG d   1       2.700  90.455 112.642  0.00  0.00    -0.241 OA
ENDBRANCH   3  22
TORSDOF 7
ENDMDL
MODEL 4
REMARK VINA RESULT:      -4.5     27.369     28.622
REMARK  7 active torsions:
REMARK  status: ('A' for Active; 'I' for Inactive)
REMARK    1  A    between atoms: C_2  and  C_3 
REMARK    2  A    between atoms: C_3  and  O_6 
REMARK    3  A    between atoms: C_3  and  C_4 
REMARK    4  A    between atoms: C_7  and  O_6 
REMARK    5  A    between atoms: C_9  and  C_10 
REMARK    6  A    between atoms: N_15  and  C_14 
REMARK    7  A    between atoms: N_20  and  C_19 
REMARK       I    between atoms: C_22  and  N_20 
ROOT
ATOM      1  C   LIG d   1     -25.995  85.607 113.973  0.00  0.00     0.161 C 
ATOM      2  C   LIG d   1     -24.935  86.528 113.935  0.00  0.00     0.016 C 
ATOM      3  C   LIG d   1     -23.581  86.150 113.786  0.00  0.00     0.038 C 
ATOM      4  C   LIG d   1     -23.206  84.827 113.511  0.00  0.00     0.028 C 
ATOM      5  C   LIG d   1     -24.195  83.795 114.043  0.00  0.00    -0.047 C 
ATOM      6  C   LIG d   1     -25.616  84.168 113.563  0.00  0.00     0.091 C 
ENDROOT
BRANCH   1   7
ATOM      7  O   LIG d   1     -27.088  86.086 113.165  0.00  0.00    -0.368 OA
BRANCH   7   8
ATOM      8  C   LIG d   1     -26.781  87.172 112.256  0.00  0.00     0.119 C 
BRANCH   8   9
ATOM      9  C   LIG d   1     -27.848  88.264 112.462  0.00  0.00     0.028 C 
ATOM     10  C   LIG d   1     -27.541  89.542 111.663  0.00  0.00     0.006 C 
ENDBRANCH   8   9
BRANCH   8  11
ATOM     11  C   LIG d   1     -26.926  86.733 110.796  0.00  0.00     0.028 C 
ATOM     12  C   LIG d   1     -28.275  86.057 110.508  0.00  0.00     0.006 C 
ENDBRANCH   8  11
ENDBRANCH   7   8
ENDBRANCH   1   7
BRANCH   6  13
ATOM     13  N   LIG d   1     -26.656  83.257 114.109  0.00  0.00    -0.311 N 
ATOM     14  C   LIG d   1     -27.039  82.135 113.502  0.00  0.00     0.210 C 
ATOM     15  C   LIG d   1     -28.140  81.352 114.224  0.00  0.00     0.109 C 
ATOM     16  O   LIG d   1     -26.549  81.697 112.450  0.00  0.00    -0.276 OA
ATOM     17  H   LIG d   1     -27.084  83.520 114.975  0.00  0.00     0.149 HD
ENDBRANCH   6  13
BRANCH   5  18
ATOM     18  N   LIG d   1     -23.754  82.469 113.568  0.00  0.00     0.381 N 
ATOM     19  H   LIG d   1     -23.758  82.449 112.567  0.00  0.00    -0.090 HD
ATOM     20  H   LIG d   1     -24.399  81.774 113.899  0.00  0.00    -0.090 HD
ATOM     21  H   LIG d   1     -22.839  82.273 113.907  0.00  0.00    -0.090 HD
ENDBRANCH   5  18
BRANCH   3  22
ATOM     22  C   LIG d   1     -22.581  87.097 113.951  0.00  0.00     0.382 C 
ATOM     23  O   LIG d   1     -22.787  88.107 114.667  0.00  0.00    -0.241 OA
ATOM     24  O   LIG d   1     -21.492  86.976 113.358  0.00  0.00    -0.241 OA
ENDBRANCH   3  22
TORSDOF 7
ENDMDL
MODEL 5
REMARK VINA RESULT:      -4.4      2.000      2.648
REMARK  7 active torsions:
REMARK  status: ('A' for Active; 'I' for Inactive)
REMARK    1  A    between atoms: C_2  and  C_3 
REMARK    2  A    between atoms: C_3  and  O_6 
REMARK    3  A    between atoms: C_3  and  C_4 
REMARK    4  A    between atoms: C_7  and  O_6 
REMARK    5  A    between atoms: C_9  and  C_10 
REMARK    6  A    between atoms: N_15  and  C_14 
REMARK    7  A    between atoms: N_20  and  C_19 
REMARK       I    between atoms: C_22  and  N_20 
ROOT
ATOM      1  C   LIG d   1       2.142  85.267 113.661  0.00  0.00     0.161 C 
ATOM      2  C   LIG d   1       2.426  86.642 113.712  0.00  0.00     0.016 C 
ATOM      3  C   LIG d   1       2.081  87.546 112.681  0.00  0.00     0.038 C 
ATOM      4  C   LIG d   1       1.290  87.159 111.589  0.00  0.00     0.028 C 
ATOM      5  C   LIG d   1       1.413  85.678 111.247  0.00  0.00    -0.047 C 
ATOM      6  C   LIG d   1       1.182  84.846 112.529  0.00  0.00     0.091 C 
ENDROOT
BRANCH   1   7
ATOM      7  O   LIG d   1       1.637  84.825 114.937  0.00  0.00    -0.368 OA
BRANCH   7   8
ATOM      8  C   LIG d   1       2.580  84.130 115.790  0.00  0.00     0.119 C 
BRANCH   8   9
ATOM      9  C   LIG d   1       2.225  82.631 115.747  0.00  0.00     0.028 C 
ATOM     10  C   LIG d   1       2.911  81.834 116.869  0.00  0.00     0.006 C 
ENDBRANCH   8   9
BRANCH   8  11
ATOM     11  C   LIG d   1       2.416  84.544 117.255  0.00  0.00     0.028 C 
ATOM     12  C   LIG d   1       1.247  85.518 117.472  0.00  0.00     0.006 C 
ENDBRANCH   8  11
ENDBRANCH   7   8
ENDBRANCH   1   7
BRANCH   6  13
ATOM     13  N   LIG d   1       1.367  83.389 112.301  0.00  0.00    -0.311 N 
ATOM     14  C   LIG d   1       0.361  82.553 112.053  0.00  0.00     0.210 C 
ATOM     15  C   LIG d   1       0.769  81.088 111.867  0.00  0.00     0.109 C 
ATOM     16  O   LIG d   1      -0.827  82.890 111.936  0.00  0.00    -0.276 OA
ATOM     17  H   LIG d   1       2.303  83.036 112.347  0.00  0.00     0.149 HD
ENDBRANCH   6  13
BRANCH   5  18
ATOM     18  N   LIG d   1       0.435  85.384 110.183  0.00  0.00     0.381 N 
ATOM     19  H   LIG d   1      -0.456  85.178 110.589  0.00  0.00    -0.090 HD
ATOM     20  H   LIG d   1       0.743  84.575 109.673  0.00  0.00    -0.090 HD
ATOM     21  H   LIG d   1       0.355  86.163 109.568  0.00  0.00    -0.090 HD
ENDBRANCH   5  18
BRANCH   3  22
ATOM     22  C   LIG d   1       2.564  88.846 112.717  0.00  0.00     0.382 C 
ATOM     23  O   LIG d   1       3.788  89.065 112.546  0.00  0.00    -0.241 OA
ATOM     24  O   LIG d   1       1.799  89.797 112.962  0.00  0.00    -0.241 OA
ENDBRANCH   3  22
TORSDOF 7
ENDMDL
MODEL 6
REMARK VINA RESULT:      -4.4      2.944      6.355
REMARK  7 active torsions:
REMARK  status: ('A' for Active; 'I' for Inactive)
REMARK    1  A    between atoms: C_2  and  C_3 
REMARK    2  A    between atoms: C_3  and  O_6 
REMARK    3  A    between atoms: C_3  and  C_4 
REMARK    4  A    between atoms: C_7  and  O_6 
REMARK    5  A    between atoms: C_9  and  C_10 
REMARK    6  A    between atoms: N_15  and  C_14 
REMARK    7  A    between atoms: N_20  and  C_19 
REMARK       I    between atoms: C_22  and  N_20 
ROOT
ATOM      1  C   LIG d   1       3.771  86.970 115.188  0.00  0.00     0.161 C 
ATOM      2  C   LIG d   1       3.679  85.584 114.976  0.00  0.00     0.016 C 
ATOM      3  C   LIG d   1       2.706  84.766 115.593  0.00  0.00     0.038 C 
ATOM      4  C   LIG d   1       1.656  85.305 116.352  0.00  0.00     0.028 C 
ATOM      5  C   LIG d   1       2.004  86.639 117.004  0.00  0.00    -0.047 C 
ATOM      6  C   LIG d   1       2.567  87.593 115.925  0.00  0.00     0.091 C 
ENDROOT
BRANCH   1   7
ATOM      7  O   LIG d   1       3.993  87.643 113.933  0.00  0.00    -0.368 OA
BRANCH   7   8
ATOM      8  C   LIG d   1       3.041  87.355 112.879  0.00  0.00     0.119 C 
BRANCH   8   9
ATOM      9  C   LIG d   1       3.841  86.891 111.647  0.00  0.00     0.028 C 
ATOM     10  C   LIG d   1       3.262  85.612 111.018  0.00  0.00     0.006 C 
ENDBRANCH   8   9
BRANCH   8  11
ATOM     11  C   LIG d   1       2.306  88.622 112.431  0.00  0.00     0.028 C 
ATOM     12  C   LIG d   1       2.919  89.905 113.014  0.00  0.00     0.006 C 
ENDBRANCH   8  11
ENDBRANCH   7   8
ENDBRANCH   1   7
BRANCH   6  13
ATOM     13  N   LIG d   1       3.011  88.892 116.494  0.00  0.00    -0.311 N 
ATOM     14  C   LIG d   1       2.255  89.989 116.493  0.00  0.00     0.210 C 
ATOM     15  C   LIG d   1       2.912  91.227 117.111  0.00  0.00     0.109 C 
ATOM     16  O   LIG d   1       1.091  90.045 116.069  0.00  0.00    -0.276 OA
ATOM     17  H   LIG d   1       3.931  88.928 116.887  0.00  0.00     0.149 HD
ENDBRANCH   6  13
BRANCH   5  18
ATOM     18  N   LIG d   1       0.780  87.153 117.648  0.00  0.00     0.381 N 
ATOM     19  H   LIG d   1       0.659  88.120 117.422  0.00  0.00    -0.090 HD
ATOM     20  H   LIG d   1       0.878  87.071 118.644  0.00  0.00    -0.090 HD
ATOM     21  H   LIG d   1      -0.011  86.631 117.341  0.00  0.00    -0.090 HD
ENDBRANCH   5  18
BRANCH   3  22
ATOM     22  C   LIG d   1       2.800  83.386 115.486  0.00  0.00     0.382 C 
ATOM     23  O   LIG d   1       1.811  82.667 115.767  0.00  0.00    -0.241 OA
ATOM     24  O   LIG d   1       3.874  82.850 115.155  0.00  0.00    -0.241 OA
ENDBRANCH   3  22
TORSDOF 7
ENDMDL
MODEL 7
REMARK VINA RESULT:      -4.2      2.809      6.336
REMARK  7 active torsions:
REMARK  status: ('A' for Active; 'I' for Inactive)
REMARK    1  A    between atoms: C_2  and  C_3 
REMARK    2  A    between atoms: C_3  and  O_6 
REMARK    3  A    between atoms: C_3  and  C_4 
REMARK    4  A    between atoms: C_7  and  O_6 
REMARK    5  A    between atoms: C_9  and  C_10 
REMARK    6  A    between atoms: N_15  and  C_14 
REMARK    7  A    between atoms: N_20  and  C_19 
REMARK       I    between atoms: C_22  and  N_20 
ROOT
ATOM      1  C   LIG d   1       3.477  86.086 114.058  0.00  0.00     0.161 C 
ATOM      2  C   LIG d   1       2.862  84.929 113.552  0.00  0.00     0.016 C 
ATOM      3  C   LIG d   1       2.846  83.693 114.238  0.00  0.00     0.038 C 
ATOM      4  C   LIG d   1       3.317  83.569 115.554  0.00  0.00     0.028 C 
ATOM      5  C   LIG d   1       4.399  84.583 115.907  0.00  0.00    -0.047 C 
ATOM      6  C   LIG d   1       3.899  85.999 115.540  0.00  0.00     0.091 C 
ENDROOT
BRANCH   1   7
ATOM      7  O   LIG d   1       2.622  87.227 113.847  0.00  0.00    -0.368 OA
BRANCH   7   8
ATOM      8  C   LIG d   1       3.022  88.138 112.794  0.00  0.00     0.119 C 
BRANCH   8   9
ATOM      9  C   LIG d   1       4.445  87.741 112.354  0.00  0.00     0.028 C 
ATOM     10  C   LIG d   1       5.488  88.817 112.698  0.00  0.00     0.006 C 
ENDBRANCH   8   9
BRANCH   8  11
ATOM     11  C   LIG d   1       3.146  89.573 113.316  0.00  0.00     0.028 C 
ATOM     12  C   LIG d   1       2.711  89.713 114.784  0.00  0.00     0.006 C 
ENDBRANCH   8  11
ENDBRANCH   7   8
ENDBRANCH   1   7
BRANCH   6  13
ATOM     13  N   LIG d   1       4.930  87.043 115.776  0.00  0.00    -0.311 N 
ATOM     14  C   LIG d   1       5.003  87.762 116.894  0.00  0.00     0.210 C 
ATOM     15  C   LIG d   1       6.130  88.800 116.924  0.00  0.00     0.109 C 
ATOM     16  O   LIG d   1       4.261  87.618 117.878  0.00  0.00    -0.276 OA
ATOM     17  H   LIG d   1       5.592  87.205 115.042  0.00  0.00     0.149 HD
ENDBRANCH   6  13
BRANCH   5  18
ATOM     18  N   LIG d   1       4.700  84.431 117.344  0.00  0.00     0.381 N 
ATOM     19  H   LIG d   1       5.691  84.402 117.481  0.00  0.00    -0.090 HD
ATOM     20  H   LIG d   1       4.311  83.563 117.667  0.00  0.00    -0.090 HD
ATOM     21  H   LIG d   1       4.308  85.191 117.856  0.00  0.00    -0.090 HD
ENDBRANCH   5  18
BRANCH   3  22
ATOM     22  C   LIG d   1       2.390  82.554 113.592  0.00  0.00     0.382 C 
ATOM     23  O   LIG d   1       1.158  82.328 113.514  0.00  0.00    -0.241 OA
ATOM     24  O   LIG d   1       3.196  81.728 113.124  0.00  0.00    -0.241 OA
ENDBRANCH   3  22
TORSDOF 7
ENDMDL
MODEL 8
REMARK VINA RESULT:      -4.1     19.184     22.102
REMARK  7 active torsions:
REMARK  status: ('A' for Active; 'I' for Inactive)
REMARK    1  A    between atoms: C_2  and  C_3 
REMARK    2  A    between atoms: C_3  and  O_6 
REMARK    3  A    between atoms: C_3  and  C_4 
REMARK    4  A    between atoms: C_7  and  O_6 
REMARK    5  A    between atoms: C_9  and  C_10 
REMARK    6  A    between atoms: N_15  and  C_14 
REMARK    7  A    between atoms: N_20  and  C_19 
REMARK       I    between atoms: C_22  and  N_20 
ROOT
ATOM      1  C   LIG d   1      10.128  66.427 114.732  0.00  0.00     0.161 C 
ATOM      2  C   LIG d   1      10.335  67.810 114.600  0.00  0.00     0.016 C 
ATOM      3  C   LIG d   1      10.977  68.598 115.582  0.00  0.00     0.038 C 
ATOM      4  C   LIG d   1      11.594  68.026 116.705  0.00  0.00     0.028 C 
ATOM      5  C   LIG d   1      10.972  66.700 117.128  0.00  0.00    -0.047 C 
ATOM      6  C   LIG d   1      10.893  65.767 115.898  0.00  0.00     0.091 C 
ENDROOT
BRANCH   1   7
ATOM      7  O   LIG d   1      10.441  65.766 113.490  0.00  0.00    -0.368 OA
BRANCH   7   8
ATOM      8  C   LIG d   1       9.364  65.011 112.881  0.00  0.00     0.119 C 
BRANCH   8   9
ATOM      9  C   LIG d   1       9.867  63.568 112.679  0.00  0.00     0.028 C 
ATOM     10  C   LIG d   1      11.390  63.447 112.859  0.00  0.00     0.006 C 
ENDBRANCH   8   9
BRANCH   8  11
ATOM     11  C   LIG d   1       9.045  65.529 111.476  0.00  0.00     0.028 C 
ATOM     12  C   LIG d   1       8.627  64.411 110.509  0.00  0.00     0.006 C 
ENDBRANCH   8  11
ENDBRANCH   7   8
ENDBRANCH   1   7
BRANCH   6  13
ATOM     13  N   LIG d   1      10.219  64.479 116.206  0.00  0.00    -0.311 N 
ATOM     14  C   LIG d   1      10.877  63.366 116.528  0.00  0.00     0.210 C 
ATOM     15  C   LIG d   1       9.991  62.144 116.787  0.00  0.00     0.109 C 
ATOM     16  O   LIG d   1      12.108  63.283 116.654  0.00  0.00    -0.276 OA
ATOM     17  H   LIG d   1       9.219  64.464 116.158  0.00  0.00     0.149 HD
ENDBRANCH   6  13
BRANCH   5  18
ATOM     18  N   LIG d   1      11.797  66.149 118.220  0.00  0.00     0.381 N 
ATOM     19  H   LIG d   1      11.332  66.283 119.096  0.00  0.00    -0.090 HD
ATOM     20  H   LIG d   1      12.671  66.643 118.248  0.00  0.00    -0.090 HD
ATOM     21  H   LIG d   1      11.960  65.178 118.067  0.00  0.00    -0.090 HD
ENDBRANCH   5  18
BRANCH   3  22
ATOM     22  C   LIG d   1      10.971  69.980 115.467  0.00  0.00     0.382 C 
ATOM     23  O   LIG d   1      10.459  70.523 114.458  0.00  0.00    -0.241 OA
ATOM     24  O   LIG d   1      11.510  70.689 116.338  0.00  0.00    -0.241 OA
ENDBRANCH   3  22
TORSDOF 7
ENDMDL
MODEL 9
REMARK VINA RESULT:      -4.0     32.717     33.906
REMARK  7 active torsions:
REMARK  status: ('A' for Active; 'I' for Inactive)
REMARK    1  A    between atoms: C_2  and  C_3 
REMARK    2  A    between atoms: C_3  and  O_6 
REMARK    3  A    between atoms: C_3  and  C_4 
REMARK    4  A    between atoms: C_7  and  O_6 
REMARK    5  A    between atoms: C_9  and  C_10 
REMARK    6  A    between atoms: N_15  and  C_14 
REMARK    7  A    between atoms: N_20  and  C_19 
REMARK       I    between atoms: C_22  and  N_20 
ROOT
ATOM      1  C   LIG d   1     -12.875  56.257 115.007  0.00  0.00     0.161 C 
ATOM      2  C   LIG d   1     -14.139  56.826 114.780  0.00  0.00     0.016 C 
ATOM      3  C   LIG d   1     -14.499  57.465 113.571  0.00  0.00     0.038 C 
ATOM      4  C   LIG d   1     -13.663  57.445 112.445  0.00  0.00     0.028 C 
ATOM      5  C   LIG d   1     -12.183  57.324 112.791  0.00  0.00    -0.047 C 
ATOM      6  C   LIG d   1     -11.989  56.128 113.750  0.00  0.00     0.091 C 
ENDROOT
BRANCH   1   7
ATOM      7  O   LIG d   1     -13.024  54.975 115.648  0.00  0.00    -0.368 OA
BRANCH   7   8
ATOM      8  C   LIG d   1     -12.482  54.866 116.987  0.00  0.00     0.119 C 
BRANCH   8   9
ATOM      9  C   LIG d   1     -13.650  54.528 117.934  0.00  0.00     0.028 C 
ATOM     10  C   LIG d   1     -14.486  55.766 118.300  0.00  0.00     0.006 C 
ENDBRANCH   8   9
BRANCH   8  11
ATOM     11  C   LIG d   1     -11.937  56.210 117.480  0.00  0.00     0.028 C 
ATOM     12  C   LIG d   1     -10.451  56.145 117.866  0.00  0.00     0.006 C 
ENDBRANCH   8  11
ENDBRANCH   7   8
ENDBRANCH   1   7
BRANCH   6  13
ATOM     13  N   LIG d   1     -10.581  55.990 114.206  0.00  0.00    -0.311 N 
ATOM     14  C   LIG d   1      -9.965  54.816 114.338  0.00  0.00     0.210 C 
ATOM     15  C   LIG d   1      -8.520  54.898 114.840  0.00  0.00     0.109 C 
ATOM     16  O   LIG d   1     -10.467  53.718 114.056  0.00  0.00    -0.276 OA
ATOM     17  H   LIG d   1     -10.088  56.833 114.426  0.00  0.00     0.149 HD
ENDBRANCH   6  13
BRANCH   5  18
ATOM     18  N   LIG d   1     -11.440  57.177 111.525  0.00  0.00     0.381 N 
ATOM     19  H   LIG d   1     -12.083  57.069 110.766  0.00  0.00    -0.090 HD
ATOM     20  H   LIG d   1     -10.871  56.350 111.576  0.00  0.00    -0.090 HD
ATOM     21  H   LIG d   1     -10.865  57.976 111.372  0.00  0.00    -0.090 HD
ENDBRANCH   5  18
BRANCH   3  22
ATOM     22  C   LIG d   1     -15.692  58.168 113.494  0.00  0.00     0.382 C 
ATOM     23  O   LIG d   1     -16.587  57.798 112.697  0.00  0.00    -0.241 OA
ATOM     24  O   LIG d   1     -15.867  59.193 114.179  0.00  0.00    -0.241 OA
ENDBRANCH   3  22
TORSDOF 7
ENDMDL
