MODEL 1
REMARK VINA RESULT:      -5.6      0.000      0.000
REMARK  7 active torsions:
REMARK  status: ('A' for Active; 'I' for Inactive)
REMARK    1  A    between atoms: C_2  and  C_3 
REMARK    2  A    between atoms: C_3  and  O_6 
REMARK    3  A    between atoms: C_3  and  C_4 
REMARK    4  A    between atoms: C_7  and  O_6 
REMARK    5  A    between atoms: C_9  and  C_10 
REMARK    6  A    between atoms: N_15  and  C_14 
REMARK    7  A    between atoms: N_20  and  C_19 
REMARK       I    between atoms: C_22  and  N_20 
ROOT
ATOM      1  C   LIG d   1       2.479  86.553 112.174  0.00  0.00     0.161 C 
ATOM      2  C   LIG d   1       3.381  87.628 112.093  0.00  0.00     0.016 C 
ATOM      3  C   LIG d   1       3.901  88.294 113.226  0.00  0.00     0.038 C 
ATOM      4  C   LIG d   1       3.671  87.831 114.529  0.00  0.00     0.028 C 
ATOM      5  C   LIG d   1       2.364  87.060 114.676  0.00  0.00    -0.047 C 
ATOM      6  C   LIG d   1       2.303  85.963 113.589  0.00  0.00     0.091 C 
ENDROOT
BRANCH   1   7
ATOM      7  O   LIG d   1       2.864  85.521 111.244  0.00  0.00    -0.368 OA
BRANCH   7   8
ATOM      8  C   LIG d   1       2.026  85.376 110.071  0.00  0.00     0.119 C 
BRANCH   8   9
ATOM      9  C   LIG d   1       0.897  86.419 110.176  0.00  0.00     0.028 C 
ATOM     10  C   LIG d   1      -0.500  85.787 110.057  0.00  0.00     0.006 C 
ENDBRANCH   8   9
BRANCH   8  11
ATOM     11  C   LIG d   1       1.321  84.016 110.055  0.00  0.00     0.028 C 
ATOM     12  C   LIG d   1       2.287  82.842 110.282  0.00  0.00     0.006 C 
ENDBRANCH   8  11
ENDBRANCH   7   8
ENDBRANCH   1   7
BRANCH   6  13
ATOM     13  N   LIG d   1       1.019  85.216 113.607  0.00  0.00    -0.311 N 
ATOM     14  C   LIG d   1       0.944  83.887 113.669  0.00  0.00     0.210 C 
ATOM     15  C   LIG d   1      -0.479  83.319 113.657  0.00  0.00     0.109 C 
ATOM     16  O   LIG d   1       1.919  83.128 113.765  0.00  0.00    -0.276 OA
ATOM     17  H   LIG d   1       0.177  85.756 113.564  0.00  0.00     0.149 HD
ENDBRANCH   6  13
BRANCH   5  18
ATOM     18  N   LIG d   1       2.317  86.518 116.047  0.00  0.00     0.381 N 
ATOM     19  H   LIG d   1       3.244  86.315 116.363  0.00  0.00    -0.090 HD
ATOM     20  H   LIG d   1       1.792  85.661 116.041  0.00  0.00    -0.090 HD
ATOM     21  H   LIG d   1       1.886  87.175 116.659  0.00  0.00    -0.090 HD
ENDBRANCH   5  18
BRANCH   3  22
ATOM     22  C   LIG d   1       4.630  89.463 113.061  0.00  0.00     0.382 C 
ATOM     23  O   LIG d   1       4.050  90.520 112.716  0.00  0.00    -0.241 OA
ATOM     24  O   LIG d   1       5.867  89.462 113.210  0.00  0.00    -0.241 OA
ENDBRANCH   3  22
TORSDOF 7
ENDMDL
MODEL 2
REMARK VINA RESULT:      -5.3      3.541      6.969
REMARK  7 active torsions:
REMARK  status: ('A' for Active; 'I' for Inactive)
REMARK    1  A    between atoms: C_2  and  C_3 
REMARK    2  A    between atoms: C_3  and  O_6 
REMARK    3  A    between atoms: C_3  and  C_4 
REMARK    4  A    between atoms: C_7  and  O_6 
REMARK    5  A    between atoms: C_9  and  C_10 
REMARK    6  A    between atoms: N_15  and  C_14 
REMARK    7  A    between atoms: N_20  and  C_19 
REMARK       I    between atoms: C_22  and  N_20 
ROOT
ATOM      1  C   LIG d   1      -0.004  83.315 112.273  0.00  0.00     0.161 C 
ATOM      2  C   LIG d   1      -1.124  82.638 112.784  0.00  0.00     0.016 C 
ATOM      3  C   LIG d   1      -1.400  81.278 112.516  0.00  0.00     0.038 C 
ATOM      4  C   LIG d   1      -0.489  80.456 111.836  0.00  0.00     0.028 C 
ATOM      5  C   LIG d   1       0.412  81.219 110.871  0.00  0.00    -0.047 C 
ATOM      6  C   LIG d   1       1.059  82.406 111.621  0.00  0.00     0.091 C 
ENDROOT
BRANCH   1   7
ATOM      7  O   LIG d   1       0.593  84.122 113.307  0.00  0.00    -0.368 OA
BRANCH   7   8
ATOM      8  C   LIG d   1       0.601  85.552 113.074  0.00  0.00     0.119 C 
BRANCH   8   9
ATOM      9  C   LIG d   1       0.308  86.242 114.420  0.00  0.00     0.028 C 
ATOM     10  C   LIG d   1      -1.011  85.764 115.049  0.00  0.00     0.006 C 
ENDBRANCH   8   9
BRANCH   8  11
ATOM     11  C   LIG d   1      -0.542  85.972 112.145  0.00  0.00     0.028 C 
ATOM     12  C   LIG d   1      -0.045  86.582 110.825  0.00  0.00     0.006 C 
ENDBRANCH   8  11
ENDBRANCH   7   8
ENDBRANCH   1   7
BRANCH   6  13
ATOM     13  N   LIG d   1       1.891  83.255 110.728  0.00  0.00    -0.311 N 
ATOM     14  C   LIG d   1       2.999  83.874 111.130  0.00  0.00     0.210 C 
ATOM     15  C   LIG d   1       3.695  84.716 110.055  0.00  0.00     0.109 C 
ATOM     16  O   LIG d   1       3.490  83.781 112.265  0.00  0.00    -0.276 OA
ATOM     17  H   LIG d   1       1.582  83.360 109.782  0.00  0.00     0.149 HD
ENDBRANCH   6  13
BRANCH   5  18
ATOM     18  N   LIG d   1       1.401  80.265 110.336  0.00  0.00     0.381 N 
ATOM     19  H   LIG d   1       1.899  80.684 109.576  0.00  0.00    -0.090 HD
ATOM     20  H   LIG d   1       0.917  79.456 109.987  0.00  0.00    -0.090 HD
ATOM     21  H   LIG d   1       2.038  79.996 111.053  0.00  0.00    -0.090 HD
ENDBRANCH   5  18
BRANCH   3  22
ATOM     22  C   LIG d   1      -2.619  80.736 112.895  0.00  0.00     0.382 C 
ATOM     23  O   LIG d   1      -2.663  79.848 113.781  0.00  0.00    -0.241 OA
ATOM     24  O   LIG d   1      -3.672  81.093 112.332  0.00  0.00    -0.241 OA
ENDBRANCH   3  22
TORSDOF 7
ENDMDL
MODEL 3
REMARK VINA RESULT:      -5.1      1.758      4.999
REMARK  7 active torsions:
REMARK  status: ('A' for Active; 'I' for Inactive)
REMARK    1  A    between atoms: C_2  and  C_3 
REMARK    2  A    between atoms: C_3  and  O_6 
REMARK    3  A    between atoms: C_3  and  C_4 
REMARK    4  A    between atoms: C_7  and  O_6 
REMARK    5  A    between atoms: C_9  and  C_10 
REMARK    6  A    between atoms: N_15  and  C_14 
REMARK    7  A    between atoms: N_20  and  C_19 
REMARK       I    between atoms: C_22  and  N_20 
ROOT
ATOM      1  C   LIG d   1       2.755  86.128 113.546  0.00  0.00     0.161 C 
ATOM      2  C   LIG d   1       1.627  85.299 113.673  0.00  0.00     0.016 C 
ATOM      3  C   LIG d   1       0.591  85.534 114.606  0.00  0.00     0.038 C 
ATOM      4  C   LIG d   1       0.537  86.704 115.377  0.00  0.00     0.028 C 
ATOM      5  C   LIG d   1       1.908  87.317 115.644  0.00  0.00    -0.047 C 
ATOM      6  C   LIG d   1       2.660  87.470 114.302  0.00  0.00     0.091 C 
ENDROOT
BRANCH   1   7
ATOM      7  O   LIG d   1       3.039  86.357 112.152  0.00  0.00    -0.368 OA
BRANCH   7   8
ATOM      8  C   LIG d   1       2.271  85.570 111.208  0.00  0.00     0.119 C 
BRANCH   8   9
ATOM      9  C   LIG d   1       3.273  84.830 110.300  0.00  0.00     0.028 C 
ATOM     10  C   LIG d   1       2.874  83.365 110.058  0.00  0.00     0.006 C 
ENDBRANCH   8   9
BRANCH   8  11
ATOM     11  C   LIG d   1       1.457  86.464 110.269  0.00  0.00     0.028 C 
ATOM     12  C   LIG d   1      -0.023  86.058 110.194  0.00  0.00     0.006 C 
ENDBRANCH   8  11
ENDBRANCH   7   8
ENDBRANCH   1   7
BRANCH   6  13
ATOM     13  N   LIG d   1       4.042  87.984 114.481  0.00  0.00    -0.311 N 
ATOM     14  C   LIG d   1       4.382  89.257 114.288  0.00  0.00     0.210 C 
ATOM     15  C   LIG d   1       5.865  89.571 114.509  0.00  0.00     0.109 C 
ATOM     16  O   LIG d   1       3.590  90.163 113.987  0.00  0.00    -0.276 OA
ATOM     17  H   LIG d   1       4.743  87.323 114.756  0.00  0.00     0.149 HD
ENDBRANCH   6  13
BRANCH   5  18
ATOM     18  N   LIG d   1       1.695  88.601 116.337  0.00  0.00     0.381 N 
ATOM     19  H   LIG d   1       1.000  89.135 115.855  0.00  0.00    -0.090 HD
ATOM     20  H   LIG d   1       2.555  89.121 116.329  0.00  0.00    -0.090 HD
ATOM     21  H   LIG d   1       1.406  88.438 117.277  0.00  0.00    -0.090 HD
ENDBRANCH   5  18
BRANCH   3  22
ATOM     22  C   LIG d   1      -0.387  84.570 114.803  0.00  0.00     0.382 C 
ATOM     23  O   LIG d   1      -0.076  83.448 115.270  0.00  0.00    -0.241 OA
ATOM     24  O   LIG d   1      -1.568  84.794 114.478  0.00  0.00    -0.241 OA
ENDBRANCH   3  22
TORSDOF 7
ENDMDL
MODEL 4
REMARK VINA RESULT:      -5.0      4.134      5.999
REMARK  7 active torsions:
REMARK  status: ('A' for Active; 'I' for Inactive)
REMARK    1  A    between atoms: C_2  and  C_3 
REMARK    2  A    between atoms: C_3  and  O_6 
REMARK    3  A    between atoms: C_3  and  C_4 
REMARK    4  A    between atoms: C_7  and  O_6 
REMARK    5  A    between atoms: C_9  and  C_10 
REMARK    6  A    between atoms: N_15  and  C_14 
REMARK    7  A    between atoms: N_20  and  C_19 
REMARK       I    between atoms: C_22  and  N_20 
ROOT
ATOM      1  C   LIG d   1       0.994  81.938 113.455  0.00  0.00     0.161 C 
ATOM      2  C   LIG d   1       1.867  82.890 112.902  0.00  0.00     0.016 C 
ATOM      3  C   LIG d   1       2.100  83.019 111.513  0.00  0.00     0.038 C 
ATOM      4  C   LIG d   1       1.356  82.298 110.567  0.00  0.00     0.028 C 
ATOM      5  C   LIG d   1       0.827  80.969 111.096  0.00  0.00    -0.047 C 
ATOM      6  C   LIG d   1       0.091  81.218 112.432  0.00  0.00     0.091 C 
ENDROOT
BRANCH   1   7
ATOM      7  O   LIG d   1       0.195  82.548 114.487  0.00  0.00    -0.368 OA
BRANCH   7   8
ATOM      8  C   LIG d   1      -0.998  83.241 114.044  0.00  0.00     0.119 C 
BRANCH   8   9
ATOM      9  C   LIG d   1      -0.707  84.753 114.113  0.00  0.00     0.028 C 
ATOM     10  C   LIG d   1      -1.820  85.532 114.833  0.00  0.00     0.006 C 
ENDBRANCH   8   9
BRANCH   8  11
ATOM     11  C   LIG d   1      -2.167  83.009 115.005  0.00  0.00     0.028 C 
ATOM     12  C   LIG d   1      -2.000  81.736 115.850  0.00  0.00     0.006 C 
ENDBRANCH   8  11
ENDBRANCH   7   8
ENDBRANCH   1   7
BRANCH   6  13
ATOM     13  N   LIG d   1      -0.385  79.958 113.060  0.00  0.00    -0.311 N 
ATOM     14  C   LIG d   1      -1.633  79.507 112.945  0.00  0.00     0.210 C 
ATOM     15  C   LIG d   1      -1.919  78.198 113.688  0.00  0.00     0.109 C 
ATOM     16  O   LIG d   1      -2.522  80.050 112.272  0.00  0.00    -0.276 OA
ATOM     17  H   LIG d   1       0.280  79.438 113.599  0.00  0.00     0.149 HD
ENDBRANCH   6  13
BRANCH   5  18
ATOM     18  N   LIG d   1      -0.042  80.389 110.055  0.00  0.00     0.381 N 
ATOM     19  H   LIG d   1      -0.759  79.837 110.482  0.00  0.00    -0.090 HD
ATOM     20  H   LIG d   1       0.510  79.789 109.467  0.00  0.00    -0.090 HD
ATOM     21  H   LIG d   1      -0.452  81.115 109.510  0.00  0.00    -0.090 HD
ENDBRANCH   5  18
BRANCH   3  22
ATOM     22  C   LIG d   1       3.115  83.848 111.061  0.00  0.00     0.382 C 
ATOM     23  O   LIG d   1       2.896  85.071 110.891  0.00  0.00    -0.241 OA
ATOM     24  O   LIG d   1       4.234  83.379 110.778  0.00  0.00    -0.241 OA
ENDBRANCH   3  22
TORSDOF 7
ENDMDL
MODEL 5
REMARK VINA RESULT:      -4.9      1.860      2.856
REMARK  7 active torsions:
REMARK  status: ('A' for Active; 'I' for Inactive)
REMARK    1  A    between atoms: C_2  and  C_3 
REMARK    2  A    between atoms: C_3  and  O_6 
REMARK    3  A    between atoms: C_3  and  C_4 
REMARK    4  A    between atoms: C_7  and  O_6 
REMARK    5  A    between atoms: C_9  and  C_10 
REMARK    6  A    between atoms: N_15  and  C_14 
REMARK    7  A    between atoms: N_20  and  C_19 
REMARK       I    between atoms: C_22  and  N_20 
ROOT
ATOM      1  C   LIG d   1       0.556  85.073 112.282  0.00  0.00     0.161 C 
ATOM      2  C   LIG d   1       1.555  85.946 111.819  0.00  0.00     0.016 C 
ATOM      3  C   LIG d   1       2.330  86.765 112.672  0.00  0.00     0.038 C 
ATOM      4  C   LIG d   1       2.261  86.654 114.069  0.00  0.00     0.028 C 
ATOM      5  C   LIG d   1       0.912  86.152 114.571  0.00  0.00    -0.047 C 
ATOM      6  C   LIG d   1       0.544  84.858 113.810  0.00  0.00     0.091 C 
ENDROOT
BRANCH   1   7
ATOM      7  O   LIG d   1       0.657  83.809 111.598  0.00  0.00    -0.368 OA
BRANCH   7   8
ATOM      8  C   LIG d   1       1.932  83.129 111.700  0.00  0.00     0.119 C 
BRANCH   8   9
ATOM      9  C   LIG d   1       2.394  82.794 110.268  0.00  0.00     0.028 C 
ATOM     10  C   LIG d   1       3.910  82.976 110.082  0.00  0.00     0.006 C 
ENDBRANCH   8   9
BRANCH   8  11
ATOM     11  C   LIG d   1       1.789  81.778 112.406  0.00  0.00     0.028 C 
ATOM     12  C   LIG d   1       0.392  81.161 112.234  0.00  0.00     0.006 C 
ENDBRANCH   8  11
ENDBRANCH   7   8
ENDBRANCH   1   7
BRANCH   6  13
ATOM     13  N   LIG d   1      -0.801  84.345 114.180  0.00  0.00    -0.311 N 
ATOM     14  C   LIG d   1      -1.005  83.456 115.151  0.00  0.00     0.210 C 
ATOM     15  C   LIG d   1      -2.467  83.047 115.356  0.00  0.00     0.109 C 
ATOM     16  O   LIG d   1      -0.118  82.991 115.882  0.00  0.00    -0.276 OA
ATOM     17  H   LIG d   1      -1.582  84.693 113.659  0.00  0.00     0.149 HD
ENDBRANCH   6  13
BRANCH   5  18
ATOM     18  N   LIG d   1       1.025  85.953 116.028  0.00  0.00     0.381 N 
ATOM     19  H   LIG d   1       1.797  86.480 116.383  0.00  0.00    -0.090 HD
ATOM     20  H   LIG d   1       1.197  84.980 116.211  0.00  0.00    -0.090 HD
ATOM     21  H   LIG d   1       0.183  86.239 116.478  0.00  0.00    -0.090 HD
ENDBRANCH   5  18
BRANCH   3  22
ATOM     22  C   LIG d   1       3.157  87.736 112.128  0.00  0.00     0.382 C 
ATOM     23  O   LIG d   1       4.257  87.409 111.620  0.00  0.00    -0.241 OA
ATOM     24  O   LIG d   1       2.838  88.938 112.178  0.00  0.00    -0.241 OA
ENDBRANCH   3  22
TORSDOF 7
ENDMDL
MODEL 6
REMARK VINA RESULT:      -4.9      3.148      7.044
REMARK  7 active torsions:
REMARK  status: ('A' for Active; 'I' for Inactive)
REMARK    1  A    between atoms: C_2  and  C_3 
REMARK    2  A    between atoms: C_3  and  O_6 
REMARK    3  A    between atoms: C_3  and  C_4 
REMARK    4  A    between atoms: C_7  and  O_6 
REMARK    5  A    between atoms: C_9  and  C_10 
REMARK    6  A    between atoms: N_15  and  C_14 
REMARK    7  A    between atoms: N_20  and  C_19 
REMARK       I    between atoms: C_22  and  N_20 
ROOT
ATOM      1  C   LIG d   1      -0.041  83.979 113.801  0.00  0.00     0.161 C 
ATOM      2  C   LIG d   1      -1.100  83.079 114.007  0.00  0.00     0.016 C 
ATOM      3  C   LIG d   1      -1.455  82.070 113.082  0.00  0.00     0.038 C 
ATOM      4  C   LIG d   1      -0.675  81.795 111.949  0.00  0.00     0.028 C 
ATOM      5  C   LIG d   1       0.107  83.003 111.444  0.00  0.00    -0.047 C 
ATOM      6  C   LIG d   1       0.890  83.623 112.623  0.00  0.00     0.091 C 
ENDROOT
BRANCH   1   7
ATOM      7  O   LIG d   1       0.720  84.124 115.016  0.00  0.00    -0.368 OA
BRANCH   7   8
ATOM      8  C   LIG d   1       1.139  82.894 115.657  0.00  0.00     0.119 C 
BRANCH   8   9
ATOM      9  C   LIG d   1       0.716  82.976 117.136  0.00  0.00     0.028 C 
ATOM     10  C   LIG d   1      -0.434  82.012 117.473  0.00  0.00     0.006 C 
ENDBRANCH   8   9
BRANCH   8  11
ATOM     11  C   LIG d   1       2.665  82.768 115.677  0.00  0.00     0.028 C 
ATOM     12  C   LIG d   1       3.377  84.110 115.446  0.00  0.00     0.006 C 
ENDBRANCH   8  11
ENDBRANCH   7   8
ENDBRANCH   1   7
BRANCH   6  13
ATOM     13  N   LIG d   1       1.616  84.860 112.234  0.00  0.00    -0.311 N 
ATOM     14  C   LIG d   1       2.890  84.871 111.845  0.00  0.00     0.210 C 
ATOM     15  C   LIG d   1       3.451  86.256 111.507  0.00  0.00     0.109 C 
ATOM     16  O   LIG d   1       3.599  83.862 111.716  0.00  0.00    -0.276 OA
ATOM     17  H   LIG d   1       1.107  85.721 112.279  0.00  0.00     0.149 HD
ENDBRANCH   6  13
BRANCH   5  18
ATOM     18  N   LIG d   1       0.980  82.542 110.348  0.00  0.00     0.381 N 
ATOM     19  H   LIG d   1       1.184  83.305 109.734  0.00  0.00    -0.090 HD
ATOM     20  H   LIG d   1       0.497  81.835 109.823  0.00  0.00    -0.090 HD
ATOM     21  H   LIG d   1       1.826  82.170 110.720  0.00  0.00    -0.090 HD
ENDBRANCH   5  18
BRANCH   3  22
ATOM     22  C   LIG d   1      -2.626  81.350 113.266  0.00  0.00     0.382 C 
ATOM     23  O   LIG d   1      -3.522  81.375 112.388  0.00  0.00    -0.241 OA
ATOM     24  O   LIG d   1      -2.817  80.713 114.319  0.00  0.00    -0.241 OA
ENDBRANCH   3  22
TORSDOF 7
ENDMDL
MODEL 7
REMARK VINA RESULT:      -4.9      2.647      5.911
REMARK  7 active torsions:
REMARK  status: ('A' for Active; 'I' for Inactive)
REMARK    1  A    between atoms: C_2  and  C_3 
REMARK    2  A    between atoms: C_3  and  O_6 
REMARK    3  A    between atoms: C_3  and  C_4 
REMARK    4  A    between atoms: C_7  and  O_6 
REMARK    5  A    between atoms: C_9  and  C_10 
REMARK    6  A    between atoms: N_15  and  C_14 
REMARK    7  A    between atoms: N_20  and  C_19 
REMARK       I    between atoms: C_22  and  N_20 
ROOT
ATOM      1  C   LIG d   1       0.340  83.776 112.798  0.00  0.00     0.161 C 
ATOM      2  C   LIG d   1      -0.711  82.938 112.388  0.00  0.00     0.016 C 
ATOM      3  C   LIG d   1      -1.413  82.084 113.269  0.00  0.00     0.038 C 
ATOM      4  C   LIG d   1      -1.212  82.122 114.657  0.00  0.00     0.028 C 
ATOM      5  C   LIG d   1       0.186  82.585 115.053  0.00  0.00    -0.047 C 
ATOM      6  C   LIG d   1       0.500  83.913 114.326  0.00  0.00     0.091 C 
ENDROOT
BRANCH   1   7
ATOM      7  O   LIG d   1       0.194  85.075 112.191  0.00  0.00    -0.368 OA
BRANCH   7   8
ATOM      8  C   LIG d   1       1.282  85.506 111.337  0.00  0.00     0.119 C 
BRANCH   8   9
ATOM      9  C   LIG d   1       0.661  86.220 110.120  0.00  0.00     0.028 C 
ATOM     10  C   LIG d   1      -0.866  86.048 110.056  0.00  0.00     0.006 C 
ENDBRANCH   8   9
BRANCH   8  11
ATOM     11  C   LIG d   1       2.044  84.309 110.759  0.00  0.00     0.028 C 
ATOM     12  C   LIG d   1       3.560  84.549 110.681  0.00  0.00     0.006 C 
ENDBRANCH   8  11
ENDBRANCH   7   8
ENDBRANCH   1   7
BRANCH   6  13
ATOM     13  N   LIG d   1       1.881  84.392 114.593  0.00  0.00    -0.311 N 
ATOM     14  C   LIG d   1       2.180  85.667 114.841  0.00  0.00     0.210 C 
ATOM     15  C   LIG d   1       3.668  85.949 115.069  0.00  0.00     0.109 C 
ATOM     16  O   LIG d   1       1.349  86.584 114.925  0.00  0.00    -0.276 OA
ATOM     17  H   LIG d   1       2.613  83.709 114.575  0.00  0.00     0.149 HD
ENDBRANCH   6  13
BRANCH   5  18
ATOM     18  N   LIG d   1       0.214  82.710 116.523  0.00  0.00     0.381 N 
ATOM     19  H   LIG d   1       1.141  82.543 116.859  0.00  0.00    -0.090 HD
ATOM     20  H   LIG d   1      -0.395  82.017 116.920  0.00  0.00    -0.090 HD
ATOM     21  H   LIG d   1      -0.086  83.621 116.793  0.00  0.00    -0.090 HD
ENDBRANCH   5  18
BRANCH   3  22
ATOM     22  C   LIG d   1      -2.302  81.151 112.758  0.00  0.00     0.382 C 
ATOM     23  O   LIG d   1      -3.457  81.505 112.418  0.00  0.00    -0.241 OA
ATOM     24  O   LIG d   1      -1.979  79.950 112.675  0.00  0.00    -0.241 OA
ENDBRANCH   3  22
TORSDOF 7
ENDMDL
MODEL 8
REMARK VINA RESULT:      -4.8      2.291      4.194
REMARK  7 active torsions:
REMARK  status: ('A' for Active; 'I' for Inactive)
REMARK    1  A    between atoms: C_2  and  C_3 
REMARK    2  A    between atoms: C_3  and  O_6 
REMARK    3  A    between atoms: C_3  and  C_4 
REMARK    4  A    between atoms: C_7  and  O_6 
REMARK    5  A    between atoms: C_9  and  C_10 
REMARK    6  A    between atoms: N_15  and  C_14 
REMARK    7  A    between atoms: N_20  and  C_19 
REMARK       I    between atoms: C_22  and  N_20 
ROOT
ATOM      1  C   LIG d   1       1.423  85.202 113.599  0.00  0.00     0.161 C 
ATOM      2  C   LIG d   1       1.986  86.468 113.827  0.00  0.00     0.016 C 
ATOM      3  C   LIG d   1       2.803  87.137 112.887  0.00  0.00     0.038 C 
ATOM      4  C   LIG d   1       2.990  86.648 111.586  0.00  0.00     0.028 C 
ATOM      5  C   LIG d   1       2.855  85.132 111.484  0.00  0.00    -0.047 C 
ATOM      6  C   LIG d   1       1.524  84.702 112.142  0.00  0.00     0.091 C 
ENDROOT
BRANCH   1   7
ATOM      7  O   LIG d   1       0.049  85.191 114.037  0.00  0.00    -0.368 OA
BRANCH   7   8
ATOM      8  C   LIG d   1      -0.235  84.410 115.224  0.00  0.00     0.119 C 
BRANCH   8   9
ATOM      9  C   LIG d   1       1.101  83.830 115.727  0.00  0.00     0.028 C 
ATOM     10  C   LIG d   1       0.960  83.126 117.087  0.00  0.00     0.006 C 
ENDBRANCH   8   9
BRANCH   8  11
ATOM     11  C   LIG d   1      -1.106  83.194 114.895  0.00  0.00     0.028 C 
ATOM     12  C   LIG d   1      -2.561  83.361 115.360  0.00  0.00     0.006 C 
ENDBRANCH   8  11
ENDBRANCH   7   8
ENDBRANCH   1   7
BRANCH   6  13
ATOM     13  N   LIG d   1       1.353  83.225 112.161  0.00  0.00    -0.311 N 
ATOM     14  C   LIG d   1       0.315  82.601 111.606  0.00  0.00     0.210 C 
ATOM     15  C   LIG d   1       0.322  81.077 111.756  0.00  0.00     0.109 C 
ATOM     16  O   LIG d   1      -0.594  83.163 110.977  0.00  0.00    -0.276 OA
ATOM     17  H   LIG d   1       2.061  82.690 112.624  0.00  0.00     0.149 HD
ENDBRANCH   6  13
BRANCH   5  18
ATOM     18  N   LIG d   1       2.936  84.773 110.055  0.00  0.00     0.381 N 
ATOM     19  H   LIG d   1       2.496  85.481 109.502  0.00  0.00    -0.090 HD
ATOM     20  H   LIG d   1       2.444  83.909 109.909  0.00  0.00    -0.090 HD
ATOM     21  H   LIG d   1       3.889  84.672 109.783  0.00  0.00    -0.090 HD
ENDBRANCH   5  18
BRANCH   3  22
ATOM     22  C   LIG d   1       3.476  88.291 113.260  0.00  0.00     0.382 C 
ATOM     23  O   LIG d   1       3.284  89.360 112.632  0.00  0.00    -0.241 OA
ATOM     24  O   LIG d   1       4.306  88.266 114.188  0.00  0.00    -0.241 OA
ENDBRANCH   3  22
TORSDOF 7
ENDMDL
MODEL 9
REMARK VINA RESULT:      -4.7      2.116      4.265
REMARK  7 active torsions:
REMARK  status: ('A' for Active; 'I' for Inactive)
REMARK    1  A    between atoms: C_2  and  C_3 
REMARK    2  A    between atoms: C_3  and  O_6 
REMARK    3  A    between atoms: C_3  and  C_4 
REMARK    4  A    between atoms: C_7  and  O_6 
REMARK    5  A    between atoms: C_9  and  C_10 
REMARK    6  A    between atoms: N_15  and  C_14 
REMARK    7  A    between atoms: N_20  and  C_19 
REMARK       I    between atoms: C_22  and  N_20 
ROOT
ATOM      1  C   LIG d   1       3.078  85.803 114.166  0.00  0.00     0.161 C 
ATOM      2  C   LIG d   1       3.564  87.121 114.162  0.00  0.00     0.016 C 
ATOM      3  C   LIG d   1       3.586  87.939 113.009  0.00  0.00     0.038 C 
ATOM      4  C   LIG d   1       2.981  87.542 111.807  0.00  0.00     0.028 C 
ATOM      5  C   LIG d   1       2.929  86.029 111.626  0.00  0.00    -0.047 C 
ATOM      6  C   LIG d   1       2.312  85.392 112.892  0.00  0.00     0.091 C 
ENDROOT
BRANCH   1   7
ATOM      7  O   LIG d   1       2.261  85.587 115.334  0.00  0.00    -0.368 OA
BRANCH   7   8
ATOM      8  C   LIG d   1       2.811  84.705 116.343  0.00  0.00     0.119 C 
BRANCH   8   9
ATOM      9  C   LIG d   1       1.874  83.487 116.455  0.00  0.00     0.028 C 
ATOM     10  C   LIG d   1       0.447  83.798 115.971  0.00  0.00     0.006 C 
ENDBRANCH   8   9
BRANCH   8  11
ATOM     11  C   LIG d   1       2.791  85.361 117.727  0.00  0.00     0.028 C 
ATOM     12  C   LIG d   1       2.451  86.859 117.672  0.00  0.00     0.006 C 
ENDBRANCH   8  11
ENDBRANCH   7   8
ENDBRANCH   1   7
BRANCH   6  13
ATOM     13  N   LIG d   1       2.302  83.907 112.832  0.00  0.00    -0.311 N 
ATOM     14  C   LIG d   1       1.258  83.197 112.408  0.00  0.00     0.210 C 
ATOM     15  C   LIG d   1       1.450  81.678 112.446  0.00  0.00     0.109 C 
ATOM     16  O   LIG d   1       0.202  83.682 111.974  0.00  0.00    -0.276 OA
ATOM     17  H   LIG d   1       3.130  83.433 113.136  0.00  0.00     0.149 HD
ENDBRANCH   6  13
BRANCH   5  18
ATOM     18  N   LIG d   1       2.153  85.753 110.402  0.00  0.00     0.381 N 
ATOM     19  H   LIG d   1       2.556  84.980 109.912  0.00  0.00    -0.090 HD
ATOM     20  H   LIG d   1       2.190  86.560 109.805  0.00  0.00    -0.090 HD
ATOM     21  H   LIG d   1       1.206  85.548 110.638  0.00  0.00    -0.090 HD
ENDBRANCH   5  18
BRANCH   3  22
ATOM     22  C   LIG d   1       4.255  89.153 113.040  0.00  0.00     0.382 C 
ATOM     23  O   LIG d   1       3.693  90.166 113.521  0.00  0.00    -0.241 OA
ATOM     24  O   LIG d   1       5.396  89.258 112.553  0.00  0.00    -0.241 OA
ENDBRANCH   3  22
TORSDOF 7
ENDMDL
