MODEL 1
REMARK VINA RESULT:      -5.6      0.000      0.000
REMARK  7 active torsions:
REMARK  status: ('A' for Active; 'I' for Inactive)
REMARK    1  A    between atoms: C_2  and  C_3 
REMARK    2  A    between atoms: C_3  and  O_6 
REMARK    3  A    between atoms: C_3  and  C_4 
REMARK    4  A    between atoms: C_7  and  O_6 
REMARK    5  A    between atoms: C_9  and  C_10 
REMARK    6  A    between atoms: N_15  and  C_14 
REMARK    7  A    between atoms: N_20  and  C_19 
REMARK       I    between atoms: C_22  and  N_20 
ROOT
ATOM      1  C   LIG d   1       3.447  86.734 112.332  0.00  0.00     0.161 C 
ATOM      2  C   LIG d   1       3.679  88.115 112.446  0.00  0.00     0.016 C 
ATOM      3  C   LIG d   1       4.599  88.676 113.361  0.00  0.00     0.038 C 
ATOM      4  C   LIG d   1       5.465  87.880 114.125  0.00  0.00     0.028 C 
ATOM      5  C   LIG d   1       4.913  86.487 114.410  0.00  0.00    -0.047 C 
ATOM      6  C   LIG d   1       4.462  85.844 113.078  0.00  0.00     0.091 C 
ENDROOT
BRANCH   1   7
ATOM      7  O   LIG d   1       3.382  86.363 110.941  0.00  0.00    -0.368 OA
BRANCH   7   8
ATOM      8  C   LIG d   1       2.087  85.932 110.456  0.00  0.00     0.119 C 
BRANCH   8   9
ATOM      9  C   LIG d   1       1.097  86.025 111.633  0.00  0.00     0.028 C 
ATOM     10  C   LIG d   1      -0.082  86.967 111.335  0.00  0.00     0.006 C 
ENDBRANCH   8   9
BRANCH   8  11
ATOM     11  C   LIG d   1       2.105  84.453 110.057  0.00  0.00     0.028 C 
ATOM     12  C   LIG d   1       1.184  83.589 110.933  0.00  0.00     0.006 C 
ENDBRANCH   8  11
ENDBRANCH   7   8
ENDBRANCH   1   7
BRANCH   6  13
ATOM     13  N   LIG d   1       3.832  84.513 113.277  0.00  0.00    -0.311 N 
ATOM     14  C   LIG d   1       4.490  83.363 113.141  0.00  0.00     0.210 C 
ATOM     15  C   LIG d   1       3.647  82.104 113.371  0.00  0.00     0.109 C 
ATOM     16  O   LIG d   1       5.700  83.266 112.884  0.00  0.00    -0.276 OA
ATOM     17  H   LIG d   1       2.860  84.499 113.518  0.00  0.00     0.149 HD
ENDBRANCH   6  13
BRANCH   5  18
ATOM     18  N   LIG d   1       5.972  85.719 115.093  0.00  0.00     0.381 N 
ATOM     19  H   LIG d   1       6.849  85.870 114.635  0.00  0.00    -0.090 HD
ATOM     20  H   LIG d   1       5.751  84.741 115.037  0.00  0.00    -0.090 HD
ATOM     21  H   LIG d   1       6.034  85.999 116.047  0.00  0.00    -0.090 HD
ENDBRANCH   5  18
BRANCH   3  22
ATOM     22  C   LIG d   1       4.631  90.050 113.548  0.00  0.00     0.382 C 
ATOM     23  O   LIG d   1       4.901  90.523 114.678  0.00  0.00    -0.241 OA
ATOM     24  O   LIG d   1       4.350  90.822 112.612  0.00  0.00    -0.241 OA
ENDBRANCH   3  22
TORSDOF 7
ENDMDL
MODEL 2
REMARK VINA RESULT:      -5.6      3.055      6.379
REMARK  7 active torsions:
REMARK  status: ('A' for Active; 'I' for Inactive)
REMARK    1  A    between atoms: C_2  and  C_3 
REMARK    2  A    between atoms: C_3  and  O_6 
REMARK    3  A    between atoms: C_3  and  C_4 
REMARK    4  A    between atoms: C_7  and  O_6 
REMARK    5  A    between atoms: C_9  and  C_10 
REMARK    6  A    between atoms: N_15  and  C_14 
REMARK    7  A    between atoms: N_20  and  C_19 
REMARK       I    between atoms: C_22  and  N_20 
ROOT
ATOM      1  C   LIG d   1       1.914  84.458 112.797  0.00  0.00     0.161 C 
ATOM      2  C   LIG d   1       1.136  83.308 112.582  0.00  0.00     0.016 C 
ATOM      3  C   LIG d   1      -0.127  83.331 111.946  0.00  0.00     0.038 C 
ATOM      4  C   LIG d   1      -0.632  84.492 111.342  0.00  0.00     0.028 C 
ATOM      5  C   LIG d   1      -0.113  85.779 111.975  0.00  0.00    -0.047 C 
ATOM      6  C   LIG d   1       1.430  85.716 112.047  0.00  0.00     0.091 C 
ENDROOT
BRANCH   1   7
ATOM      7  O   LIG d   1       3.292  84.182 112.476  0.00  0.00    -0.368 OA
BRANCH   7   8
ATOM      8  C   LIG d   1       3.556  82.904 111.847  0.00  0.00     0.119 C 
BRANCH   8   9
ATOM      9  C   LIG d   1       4.740  82.257 112.593  0.00  0.00     0.028 C 
ATOM     10  C   LIG d   1       4.308  81.582 113.905  0.00  0.00     0.006 C 
ENDBRANCH   8   9
BRANCH   8  11
ATOM     11  C   LIG d   1       4.035  83.081 110.403  0.00  0.00     0.028 C 
ATOM     12  C   LIG d   1       5.228  82.177 110.055  0.00  0.00     0.006 C 
ENDBRANCH   8  11
ENDBRANCH   7   8
ENDBRANCH   1   7
BRANCH   6  13
ATOM     13  N   LIG d   1       2.014  86.900 112.730  0.00  0.00    -0.311 N 
ATOM     14  C   LIG d   1       3.044  87.592 112.245  0.00  0.00     0.210 C 
ATOM     15  C   LIG d   1       3.503  88.764 113.118  0.00  0.00     0.109 C 
ATOM     16  O   LIG d   1       3.600  87.365 111.160  0.00  0.00    -0.276 OA
ATOM     17  H   LIG d   1       1.603  87.172 113.601  0.00  0.00     0.149 HD
ENDBRANCH   6  13
BRANCH   5  18
ATOM     18  N   LIG d   1      -0.609  86.906 111.164  0.00  0.00     0.381 N 
ATOM     19  H   LIG d   1      -0.032  87.710 111.312  0.00  0.00    -0.090 HD
ATOM     20  H   LIG d   1      -1.544  87.131 111.457  0.00  0.00    -0.090 HD
ATOM     21  H   LIG d   1      -0.606  86.659 110.199  0.00  0.00    -0.090 HD
ENDBRANCH   5  18
BRANCH   3  22
ATOM     22  C   LIG d   1      -0.916  82.191 111.944  0.00  0.00     0.382 C 
ATOM     23  O   LIG d   1      -0.455  81.110 111.503  0.00  0.00    -0.241 OA
ATOM     24  O   LIG d   1      -2.097  82.240 112.336  0.00  0.00    -0.241 OA
ENDBRANCH   3  22
TORSDOF 7
ENDMDL
MODEL 3
REMARK VINA RESULT:      -5.6      2.610      4.898
REMARK  7 active torsions:
REMARK  status: ('A' for Active; 'I' for Inactive)
REMARK    1  A    between atoms: C_2  and  C_3 
REMARK    2  A    between atoms: C_3  and  O_6 
REMARK    3  A    between atoms: C_3  and  C_4 
REMARK    4  A    between atoms: C_7  and  O_6 
REMARK    5  A    between atoms: C_9  and  C_10 
REMARK    6  A    between atoms: N_15  and  C_14 
REMARK    7  A    between atoms: N_20  and  C_19 
REMARK       I    between atoms: C_22  and  N_20 
ROOT
ATOM      1  C   LIG d   1       2.495  85.165 110.848  0.00  0.00     0.161 C 
ATOM      2  C   LIG d   1       1.438  86.016 111.210  0.00  0.00     0.016 C 
ATOM      3  C   LIG d   1       0.263  85.567 111.854  0.00  0.00     0.038 C 
ATOM      4  C   LIG d   1       0.130  84.250 112.319  0.00  0.00     0.028 C 
ATOM      5  C   LIG d   1       0.957  83.242 111.529  0.00  0.00    -0.047 C 
ATOM      6  C   LIG d   1       2.416  83.745 111.447  0.00  0.00     0.091 C 
ENDROOT
BRANCH   1   7
ATOM      7  O   LIG d   1       3.755  85.780 111.183  0.00  0.00    -0.368 OA
BRANCH   7   8
ATOM      8  C   LIG d   1       3.830  86.410 112.485  0.00  0.00     0.119 C 
BRANCH   8   9
ATOM      9  C   LIG d   1       4.328  87.853 112.274  0.00  0.00     0.028 C 
ATOM     10  C   LIG d   1       5.577  88.172 113.114  0.00  0.00     0.006 C 
ENDBRANCH   8   9
BRANCH   8  11
ATOM     11  C   LIG d   1       4.888  85.741 113.368  0.00  0.00     0.028 C 
ATOM     12  C   LIG d   1       4.276  84.917 114.511  0.00  0.00     0.006 C 
ENDBRANCH   8  11
ENDBRANCH   7   8
ENDBRANCH   1   7
BRANCH   6  13
ATOM     13  N   LIG d   1       3.275  82.859 110.618  0.00  0.00    -0.311 N 
ATOM     14  C   LIG d   1       4.370  82.259 111.081  0.00  0.00     0.210 C 
ATOM     15  C   LIG d   1       5.122  81.404 110.055  0.00  0.00     0.109 C 
ATOM     16  O   LIG d   1       4.773  82.326 112.252  0.00  0.00    -0.276 OA
ATOM     17  H   LIG d   1       3.004  82.723 109.664  0.00  0.00     0.149 HD
ENDBRANCH   6  13
BRANCH   5  18
ATOM     18  N   LIG d   1       0.833  81.936 112.205  0.00  0.00     0.381 N 
ATOM     19  H   LIG d   1       1.121  82.020 113.159  0.00  0.00    -0.090 HD
ATOM     20  H   LIG d   1       1.437  81.276 111.749  0.00  0.00    -0.090 HD
ATOM     21  H   LIG d   1      -0.111  81.619 112.162  0.00  0.00    -0.090 HD
ENDBRANCH   5  18
BRANCH   3  22
ATOM     22  C   LIG d   1      -0.812  86.430 112.003  0.00  0.00     0.382 C 
ATOM     23  O   LIG d   1      -1.115  87.220 111.077  0.00  0.00    -0.241 OA
ATOM     24  O   LIG d   1      -1.455  86.460 113.070  0.00  0.00    -0.241 OA
ENDBRANCH   3  22
TORSDOF 7
ENDMDL
MODEL 4
REMARK VINA RESULT:      -5.4      2.039      3.479
REMARK  7 active torsions:
REMARK  status: ('A' for Active; 'I' for Inactive)
REMARK    1  A    between atoms: C_2  and  C_3 
REMARK    2  A    between atoms: C_3  and  O_6 
REMARK    3  A    between atoms: C_3  and  C_4 
REMARK    4  A    between atoms: C_7  and  O_6 
REMARK    5  A    between atoms: C_9  and  C_10 
REMARK    6  A    between atoms: N_15  and  C_14 
REMARK    7  A    between atoms: N_20  and  C_19 
REMARK       I    between atoms: C_22  and  N_20 
ROOT
ATOM      1  C   LIG d   1       4.758  86.043 112.993  0.00  0.00     0.161 C 
ATOM      2  C   LIG d   1       4.655  87.352 113.492  0.00  0.00     0.016 C 
ATOM      3  C   LIG d   1       3.733  88.304 112.997  0.00  0.00     0.038 C 
ATOM      4  C   LIG d   1       2.744  87.961 112.064  0.00  0.00     0.028 C 
ATOM      5  C   LIG d   1       3.136  86.793 111.166  0.00  0.00    -0.047 C 
ATOM      6  C   LIG d   1       3.612  85.618 112.051  0.00  0.00     0.091 C 
ENDROOT
BRANCH   1   7
ATOM      7  O   LIG d   1       4.881  85.111 114.085  0.00  0.00    -0.368 OA
BRANCH   7   8
ATOM      8  C   LIG d   1       3.654  84.481 114.527  0.00  0.00     0.119 C 
BRANCH   8   9
ATOM      9  C   LIG d   1       3.250  85.138 115.861  0.00  0.00     0.028 C 
ATOM     10  C   LIG d   1       1.946  85.945 115.747  0.00  0.00     0.006 C 
ENDBRANCH   8   9
BRANCH   8  11
ATOM     11  C   LIG d   1       3.873  83.001 114.853  0.00  0.00     0.028 C 
ATOM     12  C   LIG d   1       2.758  82.098 114.302  0.00  0.00     0.006 C 
ENDBRANCH   8  11
ENDBRANCH   7   8
ENDBRANCH   1   7
BRANCH   6  13
ATOM     13  N   LIG d   1       4.094  84.463 111.249  0.00  0.00    -0.311 N 
ATOM     14  C   LIG d   1       3.308  83.459 110.865  0.00  0.00     0.210 C 
ATOM     15  C   LIG d   1       4.010  82.359 110.062  0.00  0.00     0.109 C 
ATOM     16  O   LIG d   1       2.089  83.390 111.086  0.00  0.00    -0.276 OA
ATOM     17  H   LIG d   1       5.063  84.454 110.999  0.00  0.00     0.149 HD
ENDBRANCH   6  13
BRANCH   5  18
ATOM     18  N   LIG d   1       1.963  86.454 110.338  0.00  0.00     0.381 N 
ATOM     19  H   LIG d   1       2.153  85.630 109.803  0.00  0.00    -0.090 HD
ATOM     20  H   LIG d   1       1.786  87.210 109.701  0.00  0.00    -0.090 HD
ATOM     21  H   LIG d   1       1.167  86.306 110.919  0.00  0.00    -0.090 HD
ENDBRANCH   5  18
BRANCH   3  22
ATOM     22  C   LIG d   1       3.823  89.625 113.407  0.00  0.00     0.382 C 
ATOM     23  O   LIG d   1       3.233  90.000 114.449  0.00  0.00    -0.241 OA
ATOM     24  O   LIG d   1       4.450  90.457 112.725  0.00  0.00    -0.241 OA
ENDBRANCH   3  22
TORSDOF 7
ENDMDL
MODEL 5
REMARK VINA RESULT:      -5.1      2.138      5.352
REMARK  7 active torsions:
REMARK  status: ('A' for Active; 'I' for Inactive)
REMARK    1  A    between atoms: C_2  and  C_3 
REMARK    2  A    between atoms: C_3  and  O_6 
REMARK    3  A    between atoms: C_3  and  C_4 
REMARK    4  A    between atoms: C_7  and  O_6 
REMARK    5  A    between atoms: C_9  and  C_10 
REMARK    6  A    between atoms: N_15  and  C_14 
REMARK    7  A    between atoms: N_20  and  C_19 
REMARK       I    between atoms: C_22  and  N_20 
ROOT
ATOM      1  C   LIG d   1       2.867  85.094 110.687  0.00  0.00     0.161 C 
ATOM      2  C   LIG d   1       3.000  83.748 110.307  0.00  0.00     0.016 C 
ATOM      3  C   LIG d   1       3.802  82.818 111.006  0.00  0.00     0.038 C 
ATOM      4  C   LIG d   1       4.411  83.135 112.229  0.00  0.00     0.028 C 
ATOM      5  C   LIG d   1       4.716  84.621 112.386  0.00  0.00    -0.047 C 
ATOM      6  C   LIG d   1       3.435  85.431 112.082  0.00  0.00     0.091 C 
ENDROOT
BRANCH   1   7
ATOM      7  O   LIG d   1       1.484  85.492 110.600  0.00  0.00    -0.368 OA
BRANCH   7   8
ATOM      8  C   LIG d   1       0.646  85.136 111.727  0.00  0.00     0.119 C 
BRANCH   8   9
ATOM      9  C   LIG d   1      -0.498  84.252 111.192  0.00  0.00     0.028 C 
ATOM     10  C   LIG d   1      -0.468  82.832 111.782  0.00  0.00     0.006 C 
ENDBRANCH   8   9
BRANCH   8  11
ATOM     11  C   LIG d   1      -0.040  86.368 112.324  0.00  0.00     0.028 C 
ATOM     12  C   LIG d   1      -0.834  87.171 111.282  0.00  0.00     0.006 C 
ENDBRANCH   8  11
ENDBRANCH   7   8
ENDBRANCH   1   7
BRANCH   6  13
ATOM     13  N   LIG d   1       3.667  86.898 112.131  0.00  0.00    -0.311 N 
ATOM     14  C   LIG d   1       3.402  87.647 113.200  0.00  0.00     0.210 C 
ATOM     15  C   LIG d   1       3.696  89.141 113.031  0.00  0.00     0.109 C 
ATOM     16  O   LIG d   1       2.981  87.211 114.282  0.00  0.00    -0.276 OA
ATOM     17  H   LIG d   1       4.035  87.329 111.306  0.00  0.00     0.149 HD
ENDBRANCH   6  13
BRANCH   5  18
ATOM     18  N   LIG d   1       5.220  84.830 113.756  0.00  0.00     0.381 N 
ATOM     19  H   LIG d   1       5.733  85.688 113.801  0.00  0.00    -0.090 HD
ATOM     20  H   LIG d   1       5.843  84.078 113.992  0.00  0.00    -0.090 HD
ATOM     21  H   LIG d   1       4.460  84.855 114.400  0.00  0.00    -0.090 HD
ENDBRANCH   5  18
BRANCH   3  22
ATOM     22  C   LIG d   1       4.035  81.564 110.460  0.00  0.00     0.382 C 
ATOM     23  O   LIG d   1       3.086  80.756 110.320  0.00  0.00    -0.241 OA
ATOM     24  O   LIG d   1       5.189  81.216 110.147  0.00  0.00    -0.241 OA
ENDBRANCH   3  22
TORSDOF 7
ENDMDL
MODEL 6
REMARK VINA RESULT:      -5.1      1.254      2.126
REMARK  7 active torsions:
REMARK  status: ('A' for Active; 'I' for Inactive)
REMARK    1  A    between atoms: C_2  and  C_3 
REMARK    2  A    between atoms: C_3  and  O_6 
REMARK    3  A    between atoms: C_3  and  C_4 
REMARK    4  A    between atoms: C_7  and  O_6 
REMARK    5  A    between atoms: C_9  and  C_10 
REMARK    6  A    between atoms: N_15  and  C_14 
REMARK    7  A    between atoms: N_20  and  C_19 
REMARK       I    between atoms: C_22  and  N_20 
ROOT
ATOM      1  C   LIG d   1       3.045  85.391 112.671  0.00  0.00     0.161 C 
ATOM      2  C   LIG d   1       3.020  86.757 112.345  0.00  0.00     0.016 C 
ATOM      3  C   LIG d   1       3.927  87.701 112.878  0.00  0.00     0.038 C 
ATOM      4  C   LIG d   1       5.025  87.315 113.661  0.00  0.00     0.028 C 
ATOM      5  C   LIG d   1       4.796  86.015 114.425  0.00  0.00    -0.047 C 
ATOM      6  C   LIG d   1       4.304  84.932 113.437  0.00  0.00     0.091 C 
ENDROOT
BRANCH   1   7
ATOM      7  O   LIG d   1       2.869  84.600 111.479  0.00  0.00    -0.368 OA
BRANCH   7   8
ATOM      8  C   LIG d   1       1.501  84.288 111.118  0.00  0.00     0.119 C 
BRANCH   8   9
ATOM      9  C   LIG d   1       1.505  82.902 110.444  0.00  0.00     0.028 C 
ATOM     10  C   LIG d   1       2.798  82.117 110.724  0.00  0.00     0.006 C 
ENDBRANCH   8   9
BRANCH   8  11
ATOM     11  C   LIG d   1       0.971  85.255 110.055  0.00  0.00     0.028 C 
ATOM     12  C   LIG d   1      -0.360  85.910 110.457  0.00  0.00     0.006 C 
ENDBRANCH   8  11
ENDBRANCH   7   8
ENDBRANCH   1   7
BRANCH   6  13
ATOM     13  N   LIG d   1       3.976  83.652 114.117  0.00  0.00    -0.311 N 
ATOM     14  C   LIG d   1       4.589  82.501 113.848  0.00  0.00     0.210 C 
ATOM     15  C   LIG d   1       4.084  81.296 114.649  0.00  0.00     0.109 C 
ATOM     16  O   LIG d   1       5.526  82.369 113.046  0.00  0.00    -0.276 OA
ATOM     17  H   LIG d   1       3.248  83.674 114.805  0.00  0.00     0.149 HD
ENDBRANCH   6  13
BRANCH   5  18
ATOM     18  N   LIG d   1       6.064  85.659 115.089  0.00  0.00     0.381 N 
ATOM     19  H   LIG d   1       5.972  84.771 115.541  0.00  0.00    -0.090 HD
ATOM     20  H   LIG d   1       6.270  86.350 115.788  0.00  0.00    -0.090 HD
ATOM     21  H   LIG d   1       6.801  85.623 114.419  0.00  0.00    -0.090 HD
ENDBRANCH   5  18
BRANCH   3  22
ATOM     22  C   LIG d   1       3.718  89.054 112.660  0.00  0.00     0.382 C 
ATOM     23  O   LIG d   1       2.590  89.463 112.290  0.00  0.00    -0.241 OA
ATOM     24  O   LIG d   1       4.654  89.867 112.785  0.00  0.00    -0.241 OA
ENDBRANCH   3  22
TORSDOF 7
ENDMDL
MODEL 7
REMARK VINA RESULT:      -5.1      9.346     11.707
REMARK  7 active torsions:
REMARK  status: ('A' for Active; 'I' for Inactive)
REMARK    1  A    between atoms: C_2  and  C_3 
REMARK    2  A    between atoms: C_3  and  O_6 
REMARK    3  A    between atoms: C_3  and  C_4 
REMARK    4  A    between atoms: C_7  and  O_6 
REMARK    5  A    between atoms: C_9  and  C_10 
REMARK    6  A    between atoms: N_15  and  C_14 
REMARK    7  A    between atoms: N_20  and  C_19 
REMARK       I    between atoms: C_22  and  N_20 
ROOT
ATOM      1  C   LIG d   1      -3.221  78.523 115.513  0.00  0.00     0.161 C 
ATOM      2  C   LIG d   1      -3.181  79.461 114.468  0.00  0.00     0.016 C 
ATOM      3  C   LIG d   1      -2.281  79.378 113.381  0.00  0.00     0.038 C 
ATOM      4  C   LIG d   1      -1.456  78.260 113.186  0.00  0.00     0.028 C 
ATOM      5  C   LIG d   1      -1.103  77.535 114.480  0.00  0.00    -0.047 C 
ATOM      6  C   LIG d   1      -2.404  77.239 115.260  0.00  0.00     0.091 C 
ENDROOT
BRANCH   1   7
ATOM      7  O   LIG d   1      -4.590  78.194 115.823  0.00  0.00    -0.368 OA
BRANCH   7   8
ATOM      8  C   LIG d   1      -4.968  78.288 117.218  0.00  0.00     0.119 C 
BRANCH   8   9
ATOM      9  C   LIG d   1      -6.235  77.432 117.413  0.00  0.00     0.028 C 
ATOM     10  C   LIG d   1      -5.965  75.931 117.218  0.00  0.00     0.006 C 
ENDBRANCH   8   9
BRANCH   8  11
ATOM     11  C   LIG d   1      -5.381  79.715 117.590  0.00  0.00     0.028 C 
ATOM     12  C   LIG d   1      -6.882  79.841 117.892  0.00  0.00     0.006 C 
ENDBRANCH   8  11
ENDBRANCH   7   8
ENDBRANCH   1   7
BRANCH   6  13
ATOM     13  N   LIG d   1      -2.143  76.605 116.579  0.00  0.00    -0.311 N 
ATOM     14  C   LIG d   1      -2.204  75.291 116.786  0.00  0.00     0.210 C 
ATOM     15  C   LIG d   1      -1.920  74.849 118.225  0.00  0.00     0.109 C 
ATOM     16  O   LIG d   1      -2.436  74.447 115.907  0.00  0.00    -0.276 OA
ATOM     17  H   LIG d   1      -1.917  77.214 117.341  0.00  0.00     0.149 HD
ENDBRANCH   6  13
BRANCH   5  18
ATOM     18  N   LIG d   1      -0.356  76.315 114.118  0.00  0.00     0.381 N 
ATOM     19  H   LIG d   1      -0.195  76.298 113.131  0.00  0.00    -0.090 HD
ATOM     20  H   LIG d   1      -0.907  75.512 114.363  0.00  0.00    -0.090 HD
ATOM     21  H   LIG d   1       0.513  76.291 114.605  0.00  0.00    -0.090 HD
ENDBRANCH   5  18
BRANCH   3  22
ATOM     22  C   LIG d   1      -2.172  80.439 112.496  0.00  0.00     0.382 C 
ATOM     23  O   LIG d   1      -1.293  80.422 111.601  0.00  0.00    -0.241 OA
ATOM     24  O   LIG d   1      -2.912  81.435 112.609  0.00  0.00    -0.241 OA
ENDBRANCH   3  22
TORSDOF 7
ENDMDL
MODEL 8
REMARK VINA RESULT:      -5.1      9.480     11.495
REMARK  7 active torsions:
REMARK  status: ('A' for Active; 'I' for Inactive)
REMARK    1  A    between atoms: C_2  and  C_3 
REMARK    2  A    between atoms: C_3  and  O_6 
REMARK    3  A    between atoms: C_3  and  C_4 
REMARK    4  A    between atoms: C_7  and  O_6 
REMARK    5  A    between atoms: C_9  and  C_10 
REMARK    6  A    between atoms: N_15  and  C_14 
REMARK    7  A    between atoms: N_20  and  C_19 
REMARK       I    between atoms: C_22  and  N_20 
ROOT
ATOM      1  C   LIG d   1      -3.271  78.395 115.491  0.00  0.00     0.161 C 
ATOM      2  C   LIG d   1      -2.045  78.891 115.964  0.00  0.00     0.016 C 
ATOM      3  C   LIG d   1      -1.095  78.097 116.646  0.00  0.00     0.038 C 
ATOM      4  C   LIG d   1      -1.242  76.707 116.769  0.00  0.00     0.028 C 
ATOM      5  C   LIG d   1      -2.696  76.248 116.752  0.00  0.00    -0.047 C 
ATOM      6  C   LIG d   1      -3.400  76.857 115.518  0.00  0.00     0.091 C 
ENDROOT
BRANCH   1   7
ATOM      7  O   LIG d   1      -3.521  78.895 114.162  0.00  0.00    -0.368 OA
BRANCH   7   8
ATOM      8  C   LIG d   1      -2.508  78.602 113.169  0.00  0.00     0.119 C 
BRANCH   8   9
ATOM      9  C   LIG d   1      -1.989  79.947 112.626  0.00  0.00     0.028 C 
ATOM     10  C   LIG d   1      -3.022  81.076 112.770  0.00  0.00     0.006 C 
ENDBRANCH   8   9
BRANCH   8  11
ATOM     11  C   LIG d   1      -3.107  77.879 111.959  0.00  0.00     0.028 C 
ATOM     12  C   LIG d   1      -2.198  77.937 110.721  0.00  0.00     0.006 C 
ENDBRANCH   8  11
ENDBRANCH   7   8
ENDBRANCH   1   7
BRANCH   6  13
ATOM     13  N   LIG d   1      -4.848  76.526 115.471  0.00  0.00    -0.311 N 
ATOM     14  C   LIG d   1      -5.397  75.773 114.519  0.00  0.00     0.210 C 
ATOM     15  C   LIG d   1      -6.910  75.571 114.647  0.00  0.00     0.109 C 
ATOM     16  O   LIG d   1      -4.770  75.226 113.600  0.00  0.00    -0.276 OA
ATOM     17  H   LIG d   1      -5.426  76.904 116.196  0.00  0.00     0.149 HD
ENDBRANCH   6  13
BRANCH   5  18
ATOM     18  N   LIG d   1      -2.697  74.773 116.748  0.00  0.00     0.381 N 
ATOM     19  H   LIG d   1      -1.843  74.434 116.354  0.00  0.00    -0.090 HD
ATOM     20  H   LIG d   1      -3.458  74.450 116.177  0.00  0.00    -0.090 HD
ATOM     21  H   LIG d   1      -2.801  74.430 117.678  0.00  0.00    -0.090 HD
ENDBRANCH   5  18
BRANCH   3  22
ATOM     22  C   LIG d   1      -0.001  78.700 117.248  0.00  0.00     0.382 C 
ATOM     23  O   LIG d   1       0.590  78.124 118.193  0.00  0.00    -0.241 OA
ATOM     24  O   LIG d   1       0.374  79.832 116.889  0.00  0.00    -0.241 OA
ENDBRANCH   3  22
TORSDOF 7
ENDMDL
MODEL 9
REMARK VINA RESULT:      -4.9      2.783      5.168
REMARK  7 active torsions:
REMARK  status: ('A' for Active; 'I' for Inactive)
REMARK    1  A    between atoms: C_2  and  C_3 
REMARK    2  A    between atoms: C_3  and  O_6 
REMARK    3  A    between atoms: C_3  and  C_4 
REMARK    4  A    between atoms: C_7  and  O_6 
REMARK    5  A    between atoms: C_9  and  C_10 
REMARK    6  A    between atoms: N_15  and  C_14 
REMARK    7  A    between atoms: N_20  and  C_19 
REMARK       I    between atoms: C_22  and  N_20 
ROOT
ATOM      1  C   LIG d   1       3.444  83.712 111.632  0.00  0.00     0.161 C 
ATOM      2  C   LIG d   1       2.344  84.408 111.104  0.00  0.00     0.016 C 
ATOM      3  C   LIG d   1       1.010  84.183 111.518  0.00  0.00     0.038 C 
ATOM      4  C   LIG d   1       0.701  83.349 112.602  0.00  0.00     0.028 C 
ATOM      5  C   LIG d   1       1.729  82.246 112.831  0.00  0.00    -0.047 C 
ATOM      6  C   LIG d   1       3.138  82.878 112.894  0.00  0.00     0.091 C 
ENDROOT
BRANCH   1   7
ATOM      7  O   LIG d   1       4.525  84.630 111.888  0.00  0.00    -0.368 OA
BRANCH   7   8
ATOM      8  C   LIG d   1       4.307  85.591 112.950  0.00  0.00     0.119 C 
BRANCH   8   9
ATOM      9  C   LIG d   1       4.566  86.994 112.367  0.00  0.00     0.028 C 
ATOM     10  C   LIG d   1       3.266  87.717 111.977  0.00  0.00     0.006 C 
ENDBRANCH   8   9
BRANCH   8  11
ATOM     11  C   LIG d   1       5.334  85.423 114.074  0.00  0.00     0.028 C 
ATOM     12  C   LIG d   1       5.534  86.707 114.896  0.00  0.00     0.006 C 
ENDBRANCH   8  11
ENDBRANCH   7   8
ENDBRANCH   1   7
BRANCH   6  13
ATOM     13  N   LIG d   1       4.211  81.859 113.031  0.00  0.00    -0.311 N 
ATOM     14  C   LIG d   1       4.615  81.373 114.203  0.00  0.00     0.210 C 
ATOM     15  C   LIG d   1       5.748  80.345 114.121  0.00  0.00     0.109 C 
ATOM     16  O   LIG d   1       4.120  81.671 115.300  0.00  0.00    -0.276 OA
ATOM     17  H   LIG d   1       4.646  81.538 112.188  0.00  0.00     0.149 HD
ENDBRANCH   6  13
BRANCH   5  18
ATOM     18  N   LIG d   1       1.356  81.539 114.071  0.00  0.00     0.381 N 
ATOM     19  H   LIG d   1       0.367  81.392 114.092  0.00  0.00    -0.090 HD
ATOM     20  H   LIG d   1       1.607  82.110 114.858  0.00  0.00    -0.090 HD
ATOM     21  H   LIG d   1       1.831  80.665 114.121  0.00  0.00    -0.090 HD
ENDBRANCH   5  18
BRANCH   3  22
ATOM     22  C   LIG d   1      -0.034  84.767 110.817  0.00  0.00     0.382 C 
ATOM     23  O   LIG d   1       0.186  85.745 110.063  0.00  0.00    -0.241 OA
ATOM     24  O   LIG d   1      -1.201  84.356 110.963  0.00  0.00    -0.241 OA
ENDBRANCH   3  22
TORSDOF 7
ENDMDL
