MODEL 1
REMARK VINA RESULT:      -5.6      0.000      0.000
REMARK  7 active torsions:
REMARK  status: ('A' for Active; 'I' for Inactive)
REMARK    1  A    between atoms: C_2  and  C_3 
REMARK    2  A    between atoms: C_3  and  O_6 
REMARK    3  A    between atoms: C_3  and  C_4 
REMARK    4  A    between atoms: C_7  and  O_6 
REMARK    5  A    between atoms: C_9  and  C_10 
REMARK    6  A    between atoms: N_15  and  C_14 
REMARK    7  A    between atoms: N_20  and  C_19 
REMARK       I    between atoms: C_22  and  N_20 
ROOT
ATOM      1  C   LIG d   1       0.641  82.643 113.307  0.00  0.00     0.161 C 
ATOM      2  C   LIG d   1       1.782  82.519 112.497  0.00  0.00     0.016 C 
ATOM      3  C   LIG d   1       1.913  81.544 111.481  0.00  0.00     0.038 C 
ATOM      4  C   LIG d   1       0.844  80.718 111.103  0.00  0.00     0.028 C 
ATOM      5  C   LIG d   1      -0.154  80.467 112.229  0.00  0.00    -0.047 C 
ATOM      6  C   LIG d   1      -0.579  81.824 112.835  0.00  0.00     0.091 C 
ENDROOT
BRANCH   1   7
ATOM      7  O   LIG d   1       0.288  84.034 113.443  0.00  0.00    -0.368 OA
BRANCH   7   8
ATOM      8  C   LIG d   1       0.482  84.859 112.268  0.00  0.00     0.119 C 
BRANCH   8   9
ATOM      9  C   LIG d   1       1.446  85.997 112.656  0.00  0.00     0.028 C 
ATOM     10  C   LIG d   1       1.777  86.000 114.158  0.00  0.00     0.006 C 
ENDBRANCH   8   9
BRANCH   8  11
ATOM     11  C   LIG d   1      -0.819  85.553 111.855  0.00  0.00     0.028 C 
ATOM     12  C   LIG d   1      -0.721  86.230 110.478  0.00  0.00     0.006 C 
ENDBRANCH   8  11
ENDBRANCH   7   8
ENDBRANCH   1   7
BRANCH   6  13
ATOM     13  N   LIG d   1      -1.491  81.665 113.998  0.00  0.00    -0.311 N 
ATOM     14  C   LIG d   1      -2.816  81.763 113.909  0.00  0.00     0.210 C 
ATOM     15  C   LIG d   1      -3.567  81.585 115.232  0.00  0.00     0.109 C 
ATOM     16  O   LIG d   1      -3.442  81.949 112.855  0.00  0.00    -0.276 OA
ATOM     17  H   LIG d   1      -1.068  81.481 114.887  0.00  0.00     0.149 HD
ENDBRANCH   6  13
BRANCH   5  18
ATOM     18  N   LIG d   1      -1.285  79.709 111.660  0.00  0.00     0.381 N 
ATOM     19  H   LIG d   1      -1.144  78.729 111.808  0.00  0.00    -0.090 HD
ATOM     20  H   LIG d   1      -1.324  79.876 110.670  0.00  0.00    -0.090 HD
ATOM     21  H   LIG d   1      -2.138  79.997 112.087  0.00  0.00    -0.090 HD
ENDBRANCH   5  18
BRANCH   3  22
ATOM     22  C   LIG d   1       3.139  81.360 110.859  0.00  0.00     0.382 C 
ATOM     23  O   LIG d   1       3.298  80.409 110.057  0.00  0.00    -0.241 OA
ATOM     24  O   LIG d   1       4.100  82.108 111.123  0.00  0.00    -0.241 OA
ENDBRANCH   3  22
TORSDOF 7
ENDMDL
MODEL 2
REMARK VINA RESULT:      -5.6      2.348      3.588
REMARK  7 active torsions:
REMARK  status: ('A' for Active; 'I' for Inactive)
REMARK    1  A    between atoms: C_2  and  C_3 
REMARK    2  A    between atoms: C_3  and  O_6 
REMARK    3  A    between atoms: C_3  and  C_4 
REMARK    4  A    between atoms: C_7  and  O_6 
REMARK    5  A    between atoms: C_9  and  C_10 
REMARK    6  A    between atoms: N_15  and  C_14 
REMARK    7  A    between atoms: N_20  and  C_19 
REMARK       I    between atoms: C_22  and  N_20 
ROOT
ATOM      1  C   LIG d   1      -0.439  84.209 113.290  0.00  0.00     0.161 C 
ATOM      2  C   LIG d   1       0.312  85.236 112.694  0.00  0.00     0.016 C 
ATOM      3  C   LIG d   1       0.869  85.141 111.398  0.00  0.00     0.038 C 
ATOM      4  C   LIG d   1       0.583  84.065 110.546  0.00  0.00     0.028 C 
ATOM      5  C   LIG d   1       0.246  82.776 111.289  0.00  0.00    -0.047 C 
ATOM      6  C   LIG d   1      -0.854  83.073 112.333  0.00  0.00     0.091 C 
ENDROOT
BRANCH   1   7
ATOM      7  O   LIG d   1      -1.598  84.766 113.940  0.00  0.00    -0.368 OA
BRANCH   7   8
ATOM      8  C   LIG d   1      -1.471  85.023 115.361  0.00  0.00     0.119 C 
BRANCH   8   9
ATOM      9  C   LIG d   1      -0.258  85.953 115.556  0.00  0.00     0.028 C 
ATOM     10  C   LIG d   1       0.686  85.461 116.666  0.00  0.00     0.006 C 
ENDBRANCH   8   9
BRANCH   8  11
ATOM     11  C   LIG d   1      -1.129  83.743 116.130  0.00  0.00     0.028 C 
ATOM     12  C   LIG d   1      -2.369  83.057 116.726  0.00  0.00     0.006 C 
ENDBRANCH   8  11
ENDBRANCH   7   8
ENDBRANCH   1   7
BRANCH   6  13
ATOM     13  N   LIG d   1      -1.184  81.884 113.162  0.00  0.00    -0.311 N 
ATOM     14  C   LIG d   1      -2.426  81.437 113.341  0.00  0.00     0.210 C 
ATOM     15  C   LIG d   1      -2.546  80.209 114.249  0.00  0.00     0.109 C 
ATOM     16  O   LIG d   1      -3.436  81.922 112.809  0.00  0.00    -0.276 OA
ATOM     17  H   LIG d   1      -0.421  81.412 113.606  0.00  0.00     0.149 HD
ENDBRANCH   6  13
BRANCH   5  18
ATOM     18  N   LIG d   1      -0.164  81.777 110.284  0.00  0.00     0.381 N 
ATOM     19  H   LIG d   1      -0.858  81.170 110.674  0.00  0.00    -0.090 HD
ATOM     20  H   LIG d   1       0.635  81.222 110.032  0.00  0.00    -0.090 HD
ATOM     21  H   LIG d   1      -0.528  82.234 109.477  0.00  0.00    -0.090 HD
ENDBRANCH   5  18
BRANCH   3  22
ATOM     22  C   LIG d   1       1.755  86.113 110.958  0.00  0.00     0.382 C 
ATOM     23  O   LIG d   1       2.812  85.778 110.370  0.00  0.00    -0.241 OA
ATOM     24  O   LIG d   1       1.533  87.318 111.181  0.00  0.00    -0.241 OA
ENDBRANCH   3  22
TORSDOF 7
ENDMDL
MODEL 3
REMARK VINA RESULT:      -5.6      4.263      6.715
REMARK  7 active torsions:
REMARK  status: ('A' for Active; 'I' for Inactive)
REMARK    1  A    between atoms: C_2  and  C_3 
REMARK    2  A    between atoms: C_3  and  O_6 
REMARK    3  A    between atoms: C_3  and  C_4 
REMARK    4  A    between atoms: C_7  and  O_6 
REMARK    5  A    between atoms: C_9  and  C_10 
REMARK    6  A    between atoms: N_15  and  C_14 
REMARK    7  A    between atoms: N_20  and  C_19 
REMARK       I    between atoms: C_22  and  N_20 
ROOT
ATOM      1  C   LIG d   1       1.295  85.875 113.289  0.00  0.00     0.161 C 
ATOM      2  C   LIG d   1       0.110  85.292 113.767  0.00  0.00     0.016 C 
ATOM      3  C   LIG d   1      -0.243  85.259 115.136  0.00  0.00     0.038 C 
ATOM      4  C   LIG d   1       0.497  85.946 116.110  0.00  0.00     0.028 C 
ATOM      5  C   LIG d   1       1.967  86.119 115.742  0.00  0.00    -0.047 C 
ATOM      6  C   LIG d   1       2.061  86.726 114.324  0.00  0.00     0.091 C 
ENDROOT
BRANCH   1   7
ATOM      7  O   LIG d   1       1.015  86.654 112.109  0.00  0.00    -0.368 OA
BRANCH   7   8
ATOM      8  C   LIG d   1       1.511  86.117 110.858  0.00  0.00     0.119 C 
BRANCH   8   9
ATOM      9  C   LIG d   1       0.296  85.612 110.057  0.00  0.00     0.028 C 
ATOM     10  C   LIG d   1      -0.995  86.371 110.408  0.00  0.00     0.006 C 
ENDBRANCH   8   9
BRANCH   8  11
ATOM     11  C   LIG d   1       2.385  84.881 111.090  0.00  0.00     0.028 C 
ATOM     12  C   LIG d   1       3.837  85.083 110.629  0.00  0.00     0.006 C 
ENDBRANCH   8  11
ENDBRANCH   7   8
ENDBRANCH   1   7
BRANCH   6  13
ATOM     13  N   LIG d   1       3.465  86.851 113.853  0.00  0.00    -0.311 N 
ATOM     14  C   LIG d   1       3.927  87.915 113.198  0.00  0.00     0.210 C 
ATOM     15  C   LIG d   1       5.400  87.831 112.785  0.00  0.00     0.109 C 
ATOM     16  O   LIG d   1       3.265  88.933 112.947  0.00  0.00    -0.276 OA
ATOM     17  H   LIG d   1       4.079  86.083 114.041  0.00  0.00     0.149 HD
ENDBRANCH   6  13
BRANCH   5  18
ATOM     18  N   LIG d   1       2.588  86.968 116.777  0.00  0.00     0.381 N 
ATOM     19  H   LIG d   1       1.935  87.132 117.517  0.00  0.00    -0.090 HD
ATOM     20  H   LIG d   1       2.830  87.853 116.368  0.00  0.00    -0.090 HD
ATOM     21  H   LIG d   1       3.404  86.525 117.136  0.00  0.00    -0.090 HD
ENDBRANCH   5  18
BRANCH   3  22
ATOM     22  C   LIG d   1      -1.328  84.500 115.547  0.00  0.00     0.382 C 
ATOM     23  O   LIG d   1      -1.164  83.563 116.365  0.00  0.00    -0.241 OA
ATOM     24  O   LIG d   1      -2.462  84.711 115.077  0.00  0.00    -0.241 OA
ENDBRANCH   3  22
TORSDOF 7
ENDMDL
MODEL 4
REMARK VINA RESULT:      -5.4      1.866      4.840
REMARK  7 active torsions:
REMARK  status: ('A' for Active; 'I' for Inactive)
REMARK    1  A    between atoms: C_2  and  C_3 
REMARK    2  A    between atoms: C_3  and  O_6 
REMARK    3  A    between atoms: C_3  and  C_4 
REMARK    4  A    between atoms: C_7  and  O_6 
REMARK    5  A    between atoms: C_9  and  C_10 
REMARK    6  A    between atoms: N_15  and  C_14 
REMARK    7  A    between atoms: N_20  and  C_19 
REMARK       I    between atoms: C_22  and  N_20 
ROOT
ATOM      1  C   LIG d   1       0.230  83.269 112.751  0.00  0.00     0.161 C 
ATOM      2  C   LIG d   1      -1.002  82.779 113.216  0.00  0.00     0.016 C 
ATOM      3  C   LIG d   1      -1.489  81.486 112.913  0.00  0.00     0.038 C 
ATOM      4  C   LIG d   1      -0.703  80.535 112.246  0.00  0.00     0.028 C 
ATOM      5  C   LIG d   1       0.342  81.154 111.323  0.00  0.00    -0.047 C 
ATOM      6  C   LIG d   1       1.150  82.207 112.114  0.00  0.00     0.091 C 
ENDROOT
BRANCH   1   7
ATOM      7  O   LIG d   1       0.917  83.953 113.818  0.00  0.00    -0.368 OA
BRANCH   7   8
ATOM      8  C   LIG d   1       0.865  85.401 113.785  0.00  0.00     0.119 C 
BRANCH   8   9
ATOM      9  C   LIG d   1       2.283  85.908 113.460  0.00  0.00     0.028 C 
ATOM     10  C   LIG d   1       3.378  84.971 113.996  0.00  0.00     0.006 C 
ENDBRANCH   8   9
BRANCH   8  11
ATOM     11  C   LIG d   1       0.533  85.978 115.164  0.00  0.00     0.028 C 
ATOM     12  C   LIG d   1       0.018  84.915 116.147  0.00  0.00     0.006 C 
ENDBRANCH   8  11
ENDBRANCH   7   8
ENDBRANCH   1   7
BRANCH   6  13
ATOM     13  N   LIG d   1       2.138  82.920 111.264  0.00  0.00    -0.311 N 
ATOM     14  C   LIG d   1       3.405  82.531 111.128  0.00  0.00     0.210 C 
ATOM     15  C   LIG d   1       4.260  83.419 110.219  0.00  0.00     0.109 C 
ATOM     16  O   LIG d   1       3.892  81.516 111.648  0.00  0.00    -0.276 OA
ATOM     17  H   LIG d   1       1.819  83.737 110.780  0.00  0.00     0.149 HD
ENDBRANCH   6  13
BRANCH   5  18
ATOM     18  N   LIG d   1       1.178  80.057 110.799  0.00  0.00     0.381 N 
ATOM     19  H   LIG d   1       0.875  79.186 111.186  0.00  0.00    -0.090 HD
ATOM     20  H   LIG d   1       2.131  80.213 111.079  0.00  0.00    -0.090 HD
ATOM     21  H   LIG d   1       1.118  80.027 109.805  0.00  0.00    -0.090 HD
ENDBRANCH   5  18
BRANCH   3  22
ATOM     22  C   LIG d   1      -2.792  81.148 113.246  0.00  0.00     0.382 C 
ATOM     23  O   LIG d   1      -3.038  80.028 113.755  0.00  0.00    -0.241 OA
ATOM     24  O   LIG d   1      -3.730  81.930 113.001  0.00  0.00    -0.241 OA
ENDBRANCH   3  22
TORSDOF 7
ENDMDL
MODEL 5
REMARK VINA RESULT:      -5.4      2.757      5.286
REMARK  7 active torsions:
REMARK  status: ('A' for Active; 'I' for Inactive)
REMARK    1  A    between atoms: C_2  and  C_3 
REMARK    2  A    between atoms: C_3  and  O_6 
REMARK    3  A    between atoms: C_3  and  C_4 
REMARK    4  A    between atoms: C_7  and  O_6 
REMARK    5  A    between atoms: C_9  and  C_10 
REMARK    6  A    between atoms: N_15  and  C_14 
REMARK    7  A    between atoms: N_20  and  C_19 
REMARK       I    between atoms: C_22  and  N_20 
ROOT
ATOM      1  C   LIG d   1       1.042  83.544 112.663  0.00  0.00     0.161 C 
ATOM      2  C   LIG d   1      -0.147  82.825 112.456  0.00  0.00     0.016 C 
ATOM      3  C   LIG d   1      -1.264  82.903 113.319  0.00  0.00     0.038 C 
ATOM      4  C   LIG d   1      -1.323  83.827 114.373  0.00  0.00     0.028 C 
ATOM      5  C   LIG d   1       0.048  84.211 114.920  0.00  0.00    -0.047 C 
ATOM      6  C   LIG d   1       0.955  84.641 113.745  0.00  0.00     0.091 C 
ENDROOT
BRANCH   1   7
ATOM      7  O   LIG d   1       1.497  84.105 111.416  0.00  0.00    -0.368 OA
BRANCH   7   8
ATOM      8  C   LIG d   1       1.263  85.523 111.232  0.00  0.00     0.119 C 
BRANCH   8   9
ATOM      9  C   LIG d   1       0.219  85.679 110.110  0.00  0.00     0.028 C 
ATOM     10  C   LIG d   1      -1.063  86.378 110.594  0.00  0.00     0.006 C 
ENDBRANCH   8   9
BRANCH   8  11
ATOM     11  C   LIG d   1       2.519  86.233 110.718  0.00  0.00     0.028 C 
ATOM     12  C   LIG d   1       3.789  85.380 110.867  0.00  0.00     0.006 C 
ENDBRANCH   8  11
ENDBRANCH   7   8
ENDBRANCH   1   7
BRANCH   6  13
ATOM     13  N   LIG d   1       2.340  84.952 114.182  0.00  0.00    -0.311 N 
ATOM     14  C   LIG d   1       2.761  86.184 114.463  0.00  0.00     0.210 C 
ATOM     15  C   LIG d   1       4.232  86.287 114.877  0.00  0.00     0.109 C 
ATOM     16  O   LIG d   1       2.046  87.198 114.441  0.00  0.00    -0.276 OA
ATOM     17  H   LIG d   1       2.978  84.184 114.258  0.00  0.00     0.149 HD
ENDBRANCH   6  13
BRANCH   5  18
ATOM     18  N   LIG d   1      -0.154  85.280 115.916  0.00  0.00     0.381 N 
ATOM     19  H   LIG d   1       0.091  84.945 116.827  0.00  0.00    -0.090 HD
ATOM     20  H   LIG d   1      -1.125  85.538 115.925  0.00  0.00    -0.090 HD
ATOM     21  H   LIG d   1       0.406  86.071 115.685  0.00  0.00    -0.090 HD
ENDBRANCH   5  18
BRANCH   3  22
ATOM     22  C   LIG d   1      -2.321  82.021 113.156  0.00  0.00     0.382 C 
ATOM     23  O   LIG d   1      -3.465  82.332 113.567  0.00  0.00    -0.241 OA
ATOM     24  O   LIG d   1      -2.137  80.901 112.643  0.00  0.00    -0.241 OA
ENDBRANCH   3  22
TORSDOF 7
ENDMDL
MODEL 6
REMARK VINA RESULT:      -5.3      3.008      5.362
REMARK  7 active torsions:
REMARK  status: ('A' for Active; 'I' for Inactive)
REMARK    1  A    between atoms: C_2  and  C_3 
REMARK    2  A    between atoms: C_3  and  O_6 
REMARK    3  A    between atoms: C_3  and  C_4 
REMARK    4  A    between atoms: C_7  and  O_6 
REMARK    5  A    between atoms: C_9  and  C_10 
REMARK    6  A    between atoms: N_15  and  C_14 
REMARK    7  A    between atoms: N_20  and  C_19 
REMARK       I    between atoms: C_22  and  N_20 
ROOT
ATOM      1  C   LIG d   1       2.008  84.350 113.323  0.00  0.00     0.161 C 
ATOM      2  C   LIG d   1       1.085  83.464 112.744  0.00  0.00     0.016 C 
ATOM      3  C   LIG d   1      -0.302  83.494 113.020  0.00  0.00     0.038 C 
ATOM      4  C   LIG d   1      -0.883  84.517 113.783  0.00  0.00     0.028 C 
ATOM      5  C   LIG d   1       0.074  85.136 114.796  0.00  0.00    -0.047 C 
ATOM      6  C   LIG d   1       1.377  85.543 114.072  0.00  0.00     0.091 C 
ENDROOT
BRANCH   1   7
ATOM      7  O   LIG d   1       2.930  84.819 112.320  0.00  0.00    -0.368 OA
BRANCH   7   8
ATOM      8  C   LIG d   1       2.452  84.793 110.953  0.00  0.00     0.119 C 
BRANCH   8   9
ATOM      9  C   LIG d   1       3.632  84.364 110.058  0.00  0.00     0.028 C 
ATOM     10  C   LIG d   1       4.378  83.141 110.618  0.00  0.00     0.006 C 
ENDBRANCH   8   9
BRANCH   8  11
ATOM     11  C   LIG d   1       2.067  86.195 110.470  0.00  0.00     0.028 C 
ATOM     12  C   LIG d   1       0.562  86.477 110.600  0.00  0.00     0.006 C 
ENDBRANCH   8  11
ENDBRANCH   7   8
ENDBRANCH   1   7
BRANCH   6  13
ATOM     13  N   LIG d   1       2.401  86.080 115.006  0.00  0.00    -0.311 N 
ATOM     14  C   LIG d   1       3.054  87.222 114.800  0.00  0.00     0.210 C 
ATOM     15  C   LIG d   1       4.082  87.582 115.877  0.00  0.00     0.109 C 
ATOM     16  O   LIG d   1       2.856  87.988 113.845  0.00  0.00    -0.276 OA
ATOM     17  H   LIG d   1       2.601  85.538 115.824  0.00  0.00     0.149 HD
ENDBRANCH   6  13
BRANCH   5  18
ATOM     18  N   LIG d   1      -0.619  86.277 115.425  0.00  0.00     0.381 N 
ATOM     19  H   LIG d   1      -1.234  85.947 116.141  0.00  0.00    -0.090 HD
ATOM     20  H   LIG d   1      -1.170  86.747 114.728  0.00  0.00    -0.090 HD
ATOM     21  H   LIG d   1       0.047  86.908 115.813  0.00  0.00    -0.090 HD
ENDBRANCH   5  18
BRANCH   3  22
ATOM     22  C   LIG d   1      -1.116  82.470 112.562  0.00  0.00     0.382 C 
ATOM     23  O   LIG d   1      -0.614  81.496 111.950  0.00  0.00    -0.241 OA
ATOM     24  O   LIG d   1      -2.351  82.528 112.713  0.00  0.00    -0.241 OA
ENDBRANCH   3  22
TORSDOF 7
ENDMDL
MODEL 7
REMARK VINA RESULT:      -5.3      4.998      8.252
REMARK  7 active torsions:
REMARK  status: ('A' for Active; 'I' for Inactive)
REMARK    1  A    between atoms: C_2  and  C_3 
REMARK    2  A    between atoms: C_3  and  O_6 
REMARK    3  A    between atoms: C_3  and  C_4 
REMARK    4  A    between atoms: C_7  and  O_6 
REMARK    5  A    between atoms: C_9  and  C_10 
REMARK    6  A    between atoms: N_15  and  C_14 
REMARK    7  A    between atoms: N_20  and  C_19 
REMARK       I    between atoms: C_22  and  N_20 
ROOT
ATOM      1  C   LIG d   1       2.834  87.494 114.804  0.00  0.00     0.161 C 
ATOM      2  C   LIG d   1       2.686  88.358 115.902  0.00  0.00     0.016 C 
ATOM      3  C   LIG d   1       3.419  89.558 116.052  0.00  0.00     0.038 C 
ATOM      4  C   LIG d   1       4.244  90.055 115.032  0.00  0.00     0.028 C 
ATOM      5  C   LIG d   1       4.809  88.967 114.125  0.00  0.00    -0.047 C 
ATOM      6  C   LIG d   1       3.648  88.075 113.629  0.00  0.00     0.091 C 
ENDROOT
BRANCH   1   7
ATOM      7  O   LIG d   1       1.538  87.058 114.349  0.00  0.00    -0.368 OA
BRANCH   7   8
ATOM      8  C   LIG d   1       1.187  85.684 114.647  0.00  0.00     0.119 C 
BRANCH   8   9
ATOM      9  C   LIG d   1       0.738  85.024 113.329  0.00  0.00     0.028 C 
ATOM     10  C   LIG d   1      -0.766  85.204 113.064  0.00  0.00     0.006 C 
ENDBRANCH   8   9
BRANCH   8  11
ATOM     11  C   LIG d   1      -0.031  85.609 115.573  0.00  0.00     0.028 C 
ATOM     12  C   LIG d   1       0.201  84.699 116.790  0.00  0.00     0.006 C 
ENDBRANCH   8  11
ENDBRANCH   7   8
ENDBRANCH   1   7
BRANCH   6  13
ATOM     13  N   LIG d   1       4.122  86.934 112.803  0.00  0.00    -0.311 N 
ATOM     14  C   LIG d   1       3.576  86.597 111.636  0.00  0.00     0.210 C 
ATOM     15  C   LIG d   1       4.204  85.376 110.957  0.00  0.00     0.109 C 
ATOM     16  O   LIG d   1       2.653  87.213 111.082  0.00  0.00    -0.276 OA
ATOM     17  H   LIG d   1       4.888  86.399 113.162  0.00  0.00     0.149 HD
ENDBRANCH   6  13
BRANCH   5  18
ATOM     18  N   LIG d   1       5.536  89.633 113.028  0.00  0.00     0.381 N 
ATOM     19  H   LIG d   1       5.293  89.210 112.155  0.00  0.00    -0.090 HD
ATOM     20  H   LIG d   1       6.523  89.513 113.173  0.00  0.00    -0.090 HD
ATOM     21  H   LIG d   1       5.311  90.603 113.010  0.00  0.00    -0.090 HD
ENDBRANCH   5  18
BRANCH   3  22
ATOM     22  C   LIG d   1       3.360  90.255 117.249  0.00  0.00     0.382 C 
ATOM     23  O   LIG d   1       3.898  89.780 118.278  0.00  0.00    -0.241 OA
ATOM     24  O   LIG d   1       2.736  91.331 117.324  0.00  0.00    -0.241 OA
ENDBRANCH   3  22
TORSDOF 7
ENDMDL
MODEL 8
REMARK VINA RESULT:      -5.2      3.498      5.467
REMARK  7 active torsions:
REMARK  status: ('A' for Active; 'I' for Inactive)
REMARK    1  A    between atoms: C_2  and  C_3 
REMARK    2  A    between atoms: C_3  and  O_6 
REMARK    3  A    between atoms: C_3  and  C_4 
REMARK    4  A    between atoms: C_7  and  O_6 
REMARK    5  A    between atoms: C_9  and  C_10 
REMARK    6  A    between atoms: N_15  and  C_14 
REMARK    7  A    between atoms: N_20  and  C_19 
REMARK       I    between atoms: C_22  and  N_20 
ROOT
ATOM      1  C   LIG d   1       2.517  85.351 113.634  0.00  0.00     0.161 C 
ATOM      2  C   LIG d   1       3.321  86.477 113.874  0.00  0.00     0.016 C 
ATOM      3  C   LIG d   1       3.508  87.515 112.932  0.00  0.00     0.038 C 
ATOM      4  C   LIG d   1       2.778  87.570 111.736  0.00  0.00     0.028 C 
ATOM      5  C   LIG d   1       2.336  86.201 111.231  0.00  0.00    -0.047 C 
ATOM      6  C   LIG d   1       1.624  85.449 112.379  0.00  0.00     0.091 C 
ENDROOT
BRANCH   1   7
ATOM      7  O   LIG d   1       1.715  85.066 114.798  0.00  0.00    -0.368 OA
BRANCH   7   8
ATOM      8  C   LIG d   1       0.628  85.986 115.064  0.00  0.00     0.119 C 
BRANCH   8   9
ATOM      9  C   LIG d   1       0.854  86.577 116.469  0.00  0.00     0.028 C 
ATOM     10  C   LIG d   1       0.893  88.114 116.461  0.00  0.00     0.006 C 
ENDBRANCH   8   9
BRANCH   8  11
ATOM     11  C   LIG d   1      -0.715  85.254 115.143  0.00  0.00     0.028 C 
ATOM     12  C   LIG d   1      -0.774  84.240 116.296  0.00  0.00     0.006 C 
ENDBRANCH   8  11
ENDBRANCH   7   8
ENDBRANCH   1   7
BRANCH   6  13
ATOM     13  N   LIG d   1       1.234  84.067 111.996  0.00  0.00    -0.311 N 
ATOM     14  C   LIG d   1       0.005  83.734 111.605  0.00  0.00     0.210 C 
ATOM     15  C   LIG d   1      -0.188  82.251 111.274  0.00  0.00     0.109 C 
ATOM     16  O   LIG d   1      -0.934  84.531 111.470  0.00  0.00    -0.276 OA
ATOM     17  H   LIG d   1       1.944  83.362 112.046  0.00  0.00     0.149 HD
ENDBRANCH   6  13
BRANCH   5  18
ATOM     18  N   LIG d   1       1.470  86.416 110.057  0.00  0.00     0.381 N 
ATOM     19  H   LIG d   1       0.723  87.037 110.297  0.00  0.00    -0.090 HD
ATOM     20  H   LIG d   1       1.072  85.536 109.781  0.00  0.00    -0.090 HD
ATOM     21  H   LIG d   1       2.002  86.799 109.307  0.00  0.00    -0.090 HD
ENDBRANCH   5  18
BRANCH   3  22
ATOM     22  C   LIG d   1       4.465  88.491 113.166  0.00  0.00     0.382 C 
ATOM     23  O   LIG d   1       5.638  88.160 113.463  0.00  0.00    -0.241 OA
ATOM     24  O   LIG d   1       4.159  89.698 113.127  0.00  0.00    -0.241 OA
ENDBRANCH   3  22
TORSDOF 7
ENDMDL
MODEL 9
REMARK VINA RESULT:      -5.1      2.790      4.256
REMARK  7 active torsions:
REMARK  status: ('A' for Active; 'I' for Inactive)
REMARK    1  A    between atoms: C_2  and  C_3 
REMARK    2  A    between atoms: C_3  and  O_6 
REMARK    3  A    between atoms: C_3  and  C_4 
REMARK    4  A    between atoms: C_7  and  O_6 
REMARK    5  A    between atoms: C_9  and  C_10 
REMARK    6  A    between atoms: N_15  and  C_14 
REMARK    7  A    between atoms: N_20  and  C_19 
REMARK       I    between atoms: C_22  and  N_20 
ROOT
ATOM      1  C   LIG d   1       1.687  84.366 113.672  0.00  0.00     0.161 C 
ATOM      2  C   LIG d   1       2.354  85.571 113.396  0.00  0.00     0.016 C 
ATOM      3  C   LIG d   1       2.167  86.308 112.203  0.00  0.00     0.038 C 
ATOM      4  C   LIG d   1       1.180  85.965 111.267  0.00  0.00     0.028 C 
ATOM      5  C   LIG d   1       0.837  84.479 111.265  0.00  0.00    -0.047 C 
ATOM      6  C   LIG d   1       0.525  84.035 112.713  0.00  0.00     0.091 C 
ENDROOT
BRANCH   1   7
ATOM      7  O   LIG d   1       1.225  84.366 115.038  0.00  0.00    -0.368 OA
BRANCH   7   8
ATOM      8  C   LIG d   1       0.530  85.559 115.476  0.00  0.00     0.119 C 
BRANCH   8   9
ATOM      9  C   LIG d   1       0.945  85.827 116.935  0.00  0.00     0.028 C 
ATOM     10  C   LIG d   1       2.194  86.719 117.036  0.00  0.00     0.006 C 
ENDBRANCH   8   9
BRANCH   8  11
ATOM     11  C   LIG d   1      -0.985  85.338 115.519  0.00  0.00     0.028 C 
ATOM     12  C   LIG d   1      -1.369  83.943 116.036  0.00  0.00     0.006 C 
ENDBRANCH   8  11
ENDBRANCH   7   8
ENDBRANCH   1   7
BRANCH   6  13
ATOM     13  N   LIG d   1       0.261  82.575 112.813  0.00  0.00    -0.311 N 
ATOM     14  C   LIG d   1      -0.961  82.047 112.768  0.00  0.00     0.210 C 
ATOM     15  C   LIG d   1      -1.011  80.522 112.910  0.00  0.00     0.109 C 
ATOM     16  O   LIG d   1      -2.005  82.693 112.592  0.00  0.00    -0.276 OA
ATOM     17  H   LIG d   1       1.054  81.975 112.926  0.00  0.00     0.149 HD
ENDBRANCH   6  13
BRANCH   5  18
ATOM     18  N   LIG d   1      -0.299  84.285 110.344  0.00  0.00     0.381 N 
ATOM     19  H   LIG d   1      -0.195  84.883 109.548  0.00  0.00    -0.090 HD
ATOM     20  H   LIG d   1      -1.148  84.535 110.818  0.00  0.00    -0.090 HD
ATOM     21  H   LIG d   1      -0.341  83.334 110.050  0.00  0.00    -0.090 HD
ENDBRANCH   5  18
BRANCH   3  22
ATOM     22  C   LIG d   1       3.000  87.379 111.920  0.00  0.00     0.382 C 
ATOM     23  O   LIG d   1       4.209  87.178 111.648  0.00  0.00    -0.241 OA
ATOM     24  O   LIG d   1       2.570  88.546 111.976  0.00  0.00    -0.241 OA
ENDBRANCH   3  22
TORSDOF 7
ENDMDL
