MODEL 1
REMARK VINA RESULT:      -5.4      0.000      0.000
REMARK  7 active torsions:
REMARK  status: ('A' for Active; 'I' for Inactive)
REMARK    1  A    between atoms: C_2  and  C_3 
REMARK    2  A    between atoms: C_3  and  O_6 
REMARK    3  A    between atoms: C_3  and  C_4 
REMARK    4  A    between atoms: C_7  and  O_6 
REMARK    5  A    between atoms: C_9  and  C_10 
REMARK    6  A    between atoms: N_15  and  C_14 
REMARK    7  A    between atoms: N_20  and  C_19 
REMARK       I    between atoms: C_22  and  N_20 
ROOT
ATOM      1  C   LIG d   1       2.731  87.984 114.925  0.00  0.00     0.161 C 
ATOM      2  C   LIG d   1       2.641  89.048 115.838  0.00  0.00     0.016 C 
ATOM      3  C   LIG d   1       3.502  90.170 115.811  0.00  0.00     0.038 C 
ATOM      4  C   LIG d   1       4.419  90.377 114.770  0.00  0.00     0.028 C 
ATOM      5  C   LIG d   1       4.888  89.084 114.111  0.00  0.00    -0.047 C 
ATOM      6  C   LIG d   1       3.652  88.245 113.715  0.00  0.00     0.091 C 
ENDROOT
BRANCH   1   7
ATOM      7  O   LIG d   1       1.412  87.611 114.480  0.00  0.00    -0.368 OA
BRANCH   7   8
ATOM      8  C   LIG d   1       0.921  86.328 114.943  0.00  0.00     0.119 C 
BRANCH   8   9
ATOM      9  C   LIG d   1       2.035  85.687 115.794  0.00  0.00     0.028 C 
ATOM     10  C   LIG d   1       2.402  84.274 115.311  0.00  0.00     0.006 C 
ENDBRANCH   8   9
BRANCH   8  11
ATOM     11  C   LIG d   1       0.696  85.363 113.775  0.00  0.00     0.028 C 
ATOM     12  C   LIG d   1      -0.419  85.827 112.825  0.00  0.00     0.006 C 
ENDBRANCH   8  11
ENDBRANCH   7   8
ENDBRANCH   1   7
BRANCH   6  13
ATOM     13  N   LIG d   1       4.023  86.925 113.140  0.00  0.00    -0.311 N 
ATOM     14  C   LIG d   1       3.481  86.432 112.028  0.00  0.00     0.210 C 
ATOM     15  C   LIG d   1       3.991  85.046 111.620  0.00  0.00     0.109 C 
ATOM     16  O   LIG d   1       2.650  87.024 111.323  0.00  0.00    -0.276 OA
ATOM     17  H   LIG d   1       4.713  86.391 113.631  0.00  0.00     0.149 HD
ENDBRANCH   6  13
BRANCH   5  18
ATOM     18  N   LIG d   1       5.730  89.452 112.957  0.00  0.00     0.381 N 
ATOM     19  H   LIG d   1       5.154  89.611 112.155  0.00  0.00    -0.090 HD
ATOM     20  H   LIG d   1       6.353  88.690 112.753  0.00  0.00    -0.090 HD
ATOM     21  H   LIG d   1       6.255  90.273 113.166  0.00  0.00    -0.090 HD
ENDBRANCH   5  18
BRANCH   3  22
ATOM     22  C   LIG d   1       3.476  91.080 116.857  0.00  0.00     0.382 C 
ATOM     23  O   LIG d   1       3.370  92.307 116.617  0.00  0.00    -0.241 OA
ATOM     24  O   LIG d   1       3.603  90.694 118.034  0.00  0.00    -0.241 OA
ENDBRANCH   3  22
TORSDOF 7
ENDMDL
MODEL 2
REMARK VINA RESULT:      -5.3      2.702      4.270
REMARK  7 active torsions:
REMARK  status: ('A' for Active; 'I' for Inactive)
REMARK    1  A    between atoms: C_2  and  C_3 
REMARK    2  A    between atoms: C_3  and  O_6 
REMARK    3  A    between atoms: C_3  and  C_4 
REMARK    4  A    between atoms: C_7  and  O_6 
REMARK    5  A    between atoms: C_9  and  C_10 
REMARK    6  A    between atoms: N_15  and  C_14 
REMARK    7  A    between atoms: N_20  and  C_19 
REMARK       I    between atoms: C_22  and  N_20 
ROOT
ATOM      1  C   LIG d   1       2.462  86.300 113.967  0.00  0.00     0.161 C 
ATOM      2  C   LIG d   1       2.953  87.482 113.388  0.00  0.00     0.016 C 
ATOM      3  C   LIG d   1       4.159  88.102 113.788  0.00  0.00     0.038 C 
ATOM      4  C   LIG d   1       5.038  87.495 114.697  0.00  0.00     0.028 C 
ATOM      5  C   LIG d   1       4.343  86.556 115.677  0.00  0.00    -0.047 C 
ATOM      6  C   LIG d   1       3.462  85.565 114.883  0.00  0.00     0.091 C 
ENDROOT
BRANCH   1   7
ATOM      7  O   LIG d   1       1.981  85.414 112.937  0.00  0.00    -0.368 OA
BRANCH   7   8
ATOM      8  C   LIG d   1       1.525  86.045 111.715  0.00  0.00     0.119 C 
BRANCH   8   9
ATOM      9  C   LIG d   1      -0.002  85.853 111.637  0.00  0.00     0.028 C 
ATOM     10  C   LIG d   1      -0.516  85.826 110.187  0.00  0.00     0.006 C 
ENDBRANCH   8   9
BRANCH   8  11
ATOM     11  C   LIG d   1       2.087  85.337 110.479  0.00  0.00     0.028 C 
ATOM     12  C   LIG d   1       3.420  84.623 110.756  0.00  0.00     0.006 C 
ENDBRANCH   8  11
ENDBRANCH   7   8
ENDBRANCH   1   7
BRANCH   6  13
ATOM     13  N   LIG d   1       2.681  84.664 115.771  0.00  0.00    -0.311 N 
ATOM     14  C   LIG d   1       3.074  83.433 116.095  0.00  0.00     0.210 C 
ATOM     15  C   LIG d   1       2.111  82.666 117.006  0.00  0.00     0.109 C 
ATOM     16  O   LIG d   1       4.144  82.916 115.740  0.00  0.00    -0.276 OA
ATOM     17  H   LIG d   1       1.815  85.016 116.129  0.00  0.00     0.149 HD
ENDBRANCH   6  13
BRANCH   5  18
ATOM     18  N   LIG d   1       5.390  85.889 116.474  0.00  0.00     0.381 N 
ATOM     19  H   LIG d   1       5.085  85.792 117.422  0.00  0.00    -0.090 HD
ATOM     20  H   LIG d   1       6.217  86.460 116.466  0.00  0.00    -0.090 HD
ATOM     21  H   LIG d   1       5.593  84.993 116.089  0.00  0.00    -0.090 HD
ENDBRANCH   5  18
BRANCH   3  22
ATOM     22  C   LIG d   1       4.477  89.362 113.305  0.00  0.00     0.382 C 
ATOM     23  O   LIG d   1       5.626  89.590 112.856  0.00  0.00    -0.241 OA
ATOM     24  O   LIG d   1       3.643  90.286 113.354  0.00  0.00    -0.241 OA
ENDBRANCH   3  22
TORSDOF 7
ENDMDL
MODEL 3
REMARK VINA RESULT:      -5.2     12.012     15.068
REMARK  7 active torsions:
REMARK  status: ('A' for Active; 'I' for Inactive)
REMARK    1  A    between atoms: C_2  and  C_3 
REMARK    2  A    between atoms: C_3  and  O_6 
REMARK    3  A    between atoms: C_3  and  C_4 
REMARK    4  A    between atoms: C_7  and  O_6 
REMARK    5  A    between atoms: C_9  and  C_10 
REMARK    6  A    between atoms: N_15  and  C_14 
REMARK    7  A    between atoms: N_20  and  C_19 
REMARK       I    between atoms: C_22  and  N_20 
ROOT
ATOM      1  C   LIG d   1      -3.331  75.267 116.342  0.00  0.00     0.161 C 
ATOM      2  C   LIG d   1      -4.125  74.199 116.791  0.00  0.00     0.016 C 
ATOM      3  C   LIG d   1      -5.333  73.811 116.166  0.00  0.00     0.038 C 
ATOM      4  C   LIG d   1      -5.753  74.373 114.952  0.00  0.00     0.028 C 
ATOM      5  C   LIG d   1      -5.246  75.795 114.734  0.00  0.00    -0.047 C 
ATOM      6  C   LIG d   1      -3.716  75.820 114.954  0.00  0.00     0.091 C 
ENDROOT
BRANCH   1   7
ATOM      7  O   LIG d   1      -1.941  74.885 116.361  0.00  0.00    -0.368 OA
BRANCH   7   8
ATOM      8  C   LIG d   1      -1.050  75.755 117.100  0.00  0.00     0.119 C 
BRANCH   8   9
ATOM      9  C   LIG d   1      -0.156  74.862 117.982  0.00  0.00     0.028 C 
ATOM     10  C   LIG d   1      -0.747  73.457 118.183  0.00  0.00     0.006 C 
ENDBRANCH   8   9
BRANCH   8  11
ATOM     11  C   LIG d   1      -1.825  76.644 118.078  0.00  0.00     0.028 C 
ATOM     12  C   LIG d   1      -1.485  78.135 117.924  0.00  0.00     0.006 C 
ENDBRANCH   8  11
ENDBRANCH   7   8
ENDBRANCH   1   7
BRANCH   6  13
ATOM     13  N   LIG d   1      -3.150  77.190 114.843  0.00  0.00    -0.311 N 
ATOM     14  C   LIG d   1      -2.578  77.660 113.736  0.00  0.00     0.210 C 
ATOM     15  C   LIG d   1      -2.042  79.091 113.841  0.00  0.00     0.109 C 
ATOM     16  O   LIG d   1      -2.492  77.038 112.666  0.00  0.00    -0.276 OA
ATOM     17  H   LIG d   1      -3.205  77.774 115.655  0.00  0.00     0.149 HD
ENDBRANCH   6  13
BRANCH   5  18
ATOM     18  N   LIG d   1      -5.641  76.206 113.374  0.00  0.00     0.381 N 
ATOM     19  H   LIG d   1      -6.582  76.546 113.383  0.00  0.00    -0.090 HD
ATOM     20  H   LIG d   1      -5.602  75.406 112.768  0.00  0.00    -0.090 HD
ATOM     21  H   LIG d   1      -5.027  76.916 113.040  0.00  0.00    -0.090 HD
ENDBRANCH   5  18
BRANCH   3  22
ATOM     22  C   LIG d   1      -6.154  72.877 116.779  0.00  0.00     0.382 C 
ATOM     23  O   LIG d   1      -6.376  72.951 118.012  0.00  0.00    -0.241 OA
ATOM     24  O   LIG d   1      -6.641  71.937 116.123  0.00  0.00    -0.241 OA
ENDBRANCH   3  22
TORSDOF 7
ENDMDL
MODEL 4
REMARK VINA RESULT:      -5.2      3.228      6.273
REMARK  7 active torsions:
REMARK  status: ('A' for Active; 'I' for Inactive)
REMARK    1  A    between atoms: C_2  and  C_3 
REMARK    2  A    between atoms: C_3  and  O_6 
REMARK    3  A    between atoms: C_3  and  C_4 
REMARK    4  A    between atoms: C_7  and  O_6 
REMARK    5  A    between atoms: C_9  and  C_10 
REMARK    6  A    between atoms: N_15  and  C_14 
REMARK    7  A    between atoms: N_20  and  C_19 
REMARK       I    between atoms: C_22  and  N_20 
ROOT
ATOM      1  C   LIG d   1       1.982  84.471 113.492  0.00  0.00     0.161 C 
ATOM      2  C   LIG d   1       1.096  83.451 113.104  0.00  0.00     0.016 C 
ATOM      3  C   LIG d   1       0.317  83.504 111.925  0.00  0.00     0.038 C 
ATOM      4  C   LIG d   1       0.484  84.519 110.971  0.00  0.00     0.028 C 
ATOM      5  C   LIG d   1       1.000  85.827 111.561  0.00  0.00    -0.047 C 
ATOM      6  C   LIG d   1       2.260  85.533 112.408  0.00  0.00     0.091 C 
ENDROOT
BRANCH   1   7
ATOM      7  O   LIG d   1       3.218  83.893 113.956  0.00  0.00    -0.368 OA
BRANCH   7   8
ATOM      8  C   LIG d   1       3.397  83.839 115.393  0.00  0.00     0.119 C 
BRANCH   8   9
ATOM      9  C   LIG d   1       2.288  84.699 116.029  0.00  0.00     0.028 C 
ATOM     10  C   LIG d   1       1.634  84.011 117.239  0.00  0.00     0.006 C 
ENDBRANCH   8   9
BRANCH   8  11
ATOM     11  C   LIG d   1       4.713  84.498 115.816  0.00  0.00     0.028 C 
ATOM     12  C   LIG d   1       4.553  85.989 116.152  0.00  0.00     0.006 C 
ENDBRANCH   8  11
ENDBRANCH   7   8
ENDBRANCH   1   7
BRANCH   6  13
ATOM     13  N   LIG d   1       2.780  86.746 113.090  0.00  0.00    -0.311 N 
ATOM     14  C   LIG d   1       3.818  87.451 112.642  0.00  0.00     0.210 C 
ATOM     15  C   LIG d   1       4.203  88.655 113.507  0.00  0.00     0.109 C 
ATOM     16  O   LIG d   1       4.435  87.212 111.593  0.00  0.00    -0.276 OA
ATOM     17  H   LIG d   1       2.318  87.030 113.932  0.00  0.00     0.149 HD
ENDBRANCH   6  13
BRANCH   5  18
ATOM     18  N   LIG d   1       1.259  86.750 110.441  0.00  0.00     0.381 N 
ATOM     19  H   LIG d   1       1.415  86.229 109.601  0.00  0.00    -0.090 HD
ATOM     20  H   LIG d   1       2.088  87.281 110.641  0.00  0.00    -0.090 HD
ATOM     21  H   LIG d   1       0.484  87.364 110.319  0.00  0.00    -0.090 HD
ENDBRANCH   5  18
BRANCH   3  22
ATOM     22  C   LIG d   1      -0.671  82.555 111.711  0.00  0.00     0.382 C 
ATOM     23  O   LIG d   1      -1.719  82.576 112.400  0.00  0.00    -0.241 OA
ATOM     24  O   LIG d   1      -0.508  81.652 110.869  0.00  0.00    -0.241 OA
ENDBRANCH   3  22
TORSDOF 7
ENDMDL
MODEL 5
REMARK VINA RESULT:      -5.1     26.070     28.800
REMARK  7 active torsions:
REMARK  status: ('A' for Active; 'I' for Inactive)
REMARK    1  A    between atoms: C_2  and  C_3 
REMARK    2  A    between atoms: C_3  and  O_6 
REMARK    3  A    between atoms: C_3  and  C_4 
REMARK    4  A    between atoms: C_7  and  O_6 
REMARK    5  A    between atoms: C_9  and  C_10 
REMARK    6  A    between atoms: N_15  and  C_14 
REMARK    7  A    between atoms: N_20  and  C_19 
REMARK       I    between atoms: C_22  and  N_20 
ROOT
ATOM      1  C   LIG d   1     -25.620  85.591 113.240  0.00  0.00     0.161 C 
ATOM      2  C   LIG d   1     -24.517  86.435 113.450  0.00  0.00     0.016 C 
ATOM      3  C   LIG d   1     -23.225  85.960 113.776  0.00  0.00     0.038 C 
ATOM      4  C   LIG d   1     -22.914  84.592 113.765  0.00  0.00     0.028 C 
ATOM      5  C   LIG d   1     -24.113  83.696 114.054  0.00  0.00    -0.047 C 
ATOM      6  C   LIG d   1     -25.274  84.093 113.115  0.00  0.00     0.091 C 
ENDROOT
BRANCH   1   7
ATOM      7  O   LIG d   1     -26.360  86.033 112.084  0.00  0.00    -0.368 OA
BRANCH   7   8
ATOM      8  C   LIG d   1     -27.126  87.252 112.246  0.00  0.00     0.119 C 
BRANCH   8   9
ATOM      9  C   LIG d   1     -28.511  87.016 111.611  0.00  0.00     0.028 C 
ATOM     10  C   LIG d   1     -28.641  85.613 110.993  0.00  0.00     0.006 C 
ENDBRANCH   8   9
BRANCH   8  11
ATOM     11  C   LIG d   1     -26.509  88.408 111.452  0.00  0.00     0.028 C 
ATOM     12  C   LIG d   1     -27.333  89.701 111.545  0.00  0.00     0.006 C 
ENDBRANCH   8  11
ENDBRANCH   7   8
ENDBRANCH   1   7
BRANCH   6  13
ATOM     13  N   LIG d   1     -26.514  83.321 113.389  0.00  0.00    -0.311 N 
ATOM     14  C   LIG d   1     -27.114  82.551 112.482  0.00  0.00     0.210 C 
ATOM     15  C   LIG d   1     -28.392  81.858 112.966  0.00  0.00     0.109 C 
ATOM     16  O   LIG d   1     -26.692  82.351 111.333  0.00  0.00    -0.276 OA
ATOM     17  H   LIG d   1     -26.908  83.400 114.306  0.00  0.00     0.149 HD
ENDBRANCH   6  13
BRANCH   5  18
ATOM     18  N   LIG d   1     -23.677  82.298 113.876  0.00  0.00     0.381 N 
ATOM     19  H   LIG d   1     -24.218  81.864 113.155  0.00  0.00    -0.090 HD
ATOM     20  H   LIG d   1     -23.834  81.797 114.733  0.00  0.00    -0.090 HD
ATOM     21  H   LIG d   1     -22.710  82.270 113.639  0.00  0.00    -0.090 HD
ENDBRANCH   5  18
BRANCH   3  22
ATOM     22  C   LIG d   1     -22.239  86.858 114.156  0.00  0.00     0.382 C 
ATOM     23  O   LIG d   1     -21.137  86.869 113.556  0.00  0.00    -0.241 OA
ATOM     24  O   LIG d   1     -22.421  87.625 115.120  0.00  0.00    -0.241 OA
ENDBRANCH   3  22
TORSDOF 7
ENDMDL
MODEL 6
REMARK VINA RESULT:      -5.1      1.923      4.765
REMARK  7 active torsions:
REMARK  status: ('A' for Active; 'I' for Inactive)
REMARK    1  A    between atoms: C_2  and  C_3 
REMARK    2  A    between atoms: C_3  and  O_6 
REMARK    3  A    between atoms: C_3  and  C_4 
REMARK    4  A    between atoms: C_7  and  O_6 
REMARK    5  A    between atoms: C_9  and  C_10 
REMARK    6  A    between atoms: N_15  and  C_14 
REMARK    7  A    between atoms: N_20  and  C_19 
REMARK       I    between atoms: C_22  and  N_20 
ROOT
ATOM      1  C   LIG d   1       3.003  87.463 114.783  0.00  0.00     0.161 C 
ATOM      2  C   LIG d   1       2.455  86.831 113.654  0.00  0.00     0.016 C 
ATOM      3  C   LIG d   1       3.089  86.806 112.391  0.00  0.00     0.038 C 
ATOM      4  C   LIG d   1       4.395  87.285 112.208  0.00  0.00     0.028 C 
ATOM      5  C   LIG d   1       4.782  88.381 113.195  0.00  0.00    -0.047 C 
ATOM      6  C   LIG d   1       4.477  87.895 114.630  0.00  0.00     0.091 C 
ENDROOT
BRANCH   1   7
ATOM      7  O   LIG d   1       2.846  86.619 115.940  0.00  0.00    -0.368 OA
BRANCH   7   8
ATOM      8  C   LIG d   1       2.016  87.146 117.005  0.00  0.00     0.119 C 
BRANCH   8   9
ATOM      9  C   LIG d   1       1.097  86.005 117.483  0.00  0.00     0.028 C 
ATOM     10  C   LIG d   1       1.668  84.615 117.154  0.00  0.00     0.006 C 
ENDBRANCH   8   9
BRANCH   8  11
ATOM     11  C   LIG d   1       1.072  88.236 116.488  0.00  0.00     0.028 C 
ATOM     12  C   LIG d   1       1.030  89.470 117.404  0.00  0.00     0.006 C 
ENDBRANCH   8  11
ENDBRANCH   7   8
ENDBRANCH   1   7
BRANCH   6  13
ATOM     13  N   LIG d   1       4.748  88.939 115.652  0.00  0.00    -0.311 N 
ATOM     14  C   LIG d   1       4.229  90.165 115.603  0.00  0.00     0.210 C 
ATOM     15  C   LIG d   1       4.653  91.092 116.746  0.00  0.00     0.109 C 
ATOM     16  O   LIG d   1       3.432  90.561 114.740  0.00  0.00    -0.276 OA
ATOM     17  H   LIG d   1       5.360  88.692 116.405  0.00  0.00     0.149 HD
ENDBRANCH   6  13
BRANCH   5  18
ATOM     18  N   LIG d   1       6.209  88.690 112.980  0.00  0.00     0.381 N 
ATOM     19  H   LIG d   1       6.438  88.578 112.013  0.00  0.00    -0.090 HD
ATOM     20  H   LIG d   1       6.765  88.045 113.513  0.00  0.00    -0.090 HD
ATOM     21  H   LIG d   1       6.402  89.624 113.269  0.00  0.00    -0.090 HD
ENDBRANCH   5  18
BRANCH   3  22
ATOM     22  C   LIG d   1       2.400  86.333 111.285  0.00  0.00     0.382 C 
ATOM     23  O   LIG d   1       1.512  87.039 110.750  0.00  0.00    -0.241 OA
ATOM     24  O   LIG d   1       2.624  85.190 110.843  0.00  0.00    -0.241 OA
ENDBRANCH   3  22
TORSDOF 7
ENDMDL
MODEL 7
REMARK VINA RESULT:      -5.0      2.674      5.305
REMARK  7 active torsions:
REMARK  status: ('A' for Active; 'I' for Inactive)
REMARK    1  A    between atoms: C_2  and  C_3 
REMARK    2  A    between atoms: C_3  and  O_6 
REMARK    3  A    between atoms: C_3  and  C_4 
REMARK    4  A    between atoms: C_7  and  O_6 
REMARK    5  A    between atoms: C_9  and  C_10 
REMARK    6  A    between atoms: N_15  and  C_14 
REMARK    7  A    between atoms: N_20  and  C_19 
REMARK       I    between atoms: C_22  and  N_20 
ROOT
ATOM      1  C   LIG d   1       2.966  85.564 113.756  0.00  0.00     0.161 C 
ATOM      2  C   LIG d   1       2.651  84.277 114.225  0.00  0.00     0.016 C 
ATOM      3  C   LIG d   1       2.863  83.862 115.559  0.00  0.00     0.038 C 
ATOM      4  C   LIG d   1       3.265  84.759 116.560  0.00  0.00     0.028 C 
ATOM      5  C   LIG d   1       4.075  85.936 116.028  0.00  0.00    -0.047 C 
ATOM      6  C   LIG d   1       3.303  86.589 114.859  0.00  0.00     0.091 C 
ENDROOT
BRANCH   1   7
ATOM      7  O   LIG d   1       1.897  86.056 112.924  0.00  0.00    -0.368 OA
BRANCH   7   8
ATOM      8  C   LIG d   1       1.837  85.518 111.580  0.00  0.00     0.119 C 
BRANCH   8   9
ATOM      9  C   LIG d   1       3.285  85.391 111.067  0.00  0.00     0.028 C 
ATOM     10  C   LIG d   1       3.503  84.117 110.234  0.00  0.00     0.006 C 
ENDBRANCH   8   9
BRANCH   8  11
ATOM     11  C   LIG d   1       1.151  86.494 110.619  0.00  0.00     0.028 C 
ATOM     12  C   LIG d   1      -0.297  86.093 110.296  0.00  0.00     0.006 C 
ENDBRANCH   8  11
ENDBRANCH   7   8
ENDBRANCH   1   7
BRANCH   6  13
ATOM     13  N   LIG d   1       4.063  87.698 114.225  0.00  0.00    -0.311 N 
ATOM     14  C   LIG d   1       3.575  88.927 114.069  0.00  0.00     0.210 C 
ATOM     15  C   LIG d   1       4.517  89.914 113.373  0.00  0.00     0.109 C 
ATOM     16  O   LIG d   1       2.462  89.302 114.469  0.00  0.00    -0.276 OA
ATOM     17  H   LIG d   1       4.987  87.489 113.900  0.00  0.00     0.149 HD
ENDBRANCH   6  13
BRANCH   5  18
ATOM     18  N   LIG d   1       4.311  86.860 117.153  0.00  0.00     0.381 N 
ATOM     19  H   LIG d   1       3.639  86.693 117.875  0.00  0.00    -0.090 HD
ATOM     20  H   LIG d   1       4.195  87.804 116.828  0.00  0.00    -0.090 HD
ATOM     21  H   LIG d   1       5.232  86.735 117.511  0.00  0.00    -0.090 HD
ENDBRANCH   5  18
BRANCH   3  22
ATOM     22  C   LIG d   1       2.708  82.526 115.896  0.00  0.00     0.382 C 
ATOM     23  O   LIG d   1       1.797  82.179 116.686  0.00  0.00    -0.241 OA
ATOM     24  O   LIG d   1       3.496  81.668 115.455  0.00  0.00    -0.241 OA
ENDBRANCH   3  22
TORSDOF 7
ENDMDL
MODEL 8
REMARK VINA RESULT:      -4.6      2.549      5.021
REMARK  7 active torsions:
REMARK  status: ('A' for Active; 'I' for Inactive)
REMARK    1  A    between atoms: C_2  and  C_3 
REMARK    2  A    between atoms: C_3  and  O_6 
REMARK    3  A    between atoms: C_3  and  C_4 
REMARK    4  A    between atoms: C_7  and  O_6 
REMARK    5  A    between atoms: C_9  and  C_10 
REMARK    6  A    between atoms: N_15  and  C_14 
REMARK    7  A    between atoms: N_20  and  C_19 
REMARK       I    between atoms: C_22  and  N_20 
ROOT
ATOM      1  C   LIG d   1       3.829  85.001 114.691  0.00  0.00     0.161 C 
ATOM      2  C   LIG d   1       3.151  84.057 115.481  0.00  0.00     0.016 C 
ATOM      3  C   LIG d   1       2.138  84.399 116.405  0.00  0.00     0.038 C 
ATOM      4  C   LIG d   1       1.624  85.702 116.494  0.00  0.00     0.028 C 
ATOM      5  C   LIG d   1       2.624  86.776 116.078  0.00  0.00    -0.047 C 
ATOM      6  C   LIG d   1       3.205  86.412 114.693  0.00  0.00     0.091 C 
ENDROOT
BRANCH   1   7
ATOM      7  O   LIG d   1       3.952  84.509 113.342  0.00  0.00    -0.368 OA
BRANCH   7   8
ATOM      8  C   LIG d   1       2.893  84.884 112.427  0.00  0.00     0.119 C 
BRANCH   8   9
ATOM      9  C   LIG d   1       1.922  83.691 112.330  0.00  0.00     0.028 C 
ATOM     10  C   LIG d   1       0.511  84.040 112.833  0.00  0.00     0.006 C 
ENDBRANCH   8   9
BRANCH   8  11
ATOM     11  C   LIG d   1       3.428  85.087 111.007  0.00  0.00     0.028 C 
ATOM     12  C   LIG d   1       3.609  83.766 110.243  0.00  0.00     0.006 C 
ENDBRANCH   8  11
ENDBRANCH   7   8
ENDBRANCH   1   7
BRANCH   6  13
ATOM     13  N   LIG d   1       4.254  87.367 114.249  0.00  0.00    -0.311 N 
ATOM     14  C   LIG d   1       3.993  88.463 113.538  0.00  0.00     0.210 C 
ATOM     15  C   LIG d   1       5.222  89.300 113.168  0.00  0.00     0.109 C 
ATOM     16  O   LIG d   1       2.859  88.838 113.206  0.00  0.00    -0.276 OA
ATOM     17  H   LIG d   1       5.199  87.157 114.502  0.00  0.00     0.149 HD
ENDBRANCH   6  13
BRANCH   5  18
ATOM     18  N   LIG d   1       1.915  88.070 116.086  0.00  0.00     0.381 N 
ATOM     19  H   LIG d   1       1.066  87.995 115.562  0.00  0.00    -0.090 HD
ATOM     20  H   LIG d   1       2.497  88.762 115.646  0.00  0.00    -0.090 HD
ATOM     21  H   LIG d   1       1.713  88.343 117.022  0.00  0.00    -0.090 HD
ENDBRANCH   5  18
BRANCH   3  22
ATOM     22  C   LIG d   1       1.655  83.440 117.283  0.00  0.00     0.382 C 
ATOM     23  O   LIG d   1       1.818  82.222 117.031  0.00  0.00    -0.241 OA
ATOM     24  O   LIG d   1       1.020  83.777 118.300  0.00  0.00    -0.241 OA
ENDBRANCH   3  22
TORSDOF 7
ENDMDL
MODEL 9
REMARK VINA RESULT:      -4.6     10.972     13.057
REMARK  7 active torsions:
REMARK  status: ('A' for Active; 'I' for Inactive)
REMARK    1  A    between atoms: C_2  and  C_3 
REMARK    2  A    between atoms: C_3  and  O_6 
REMARK    3  A    between atoms: C_3  and  C_4 
REMARK    4  A    between atoms: C_7  and  O_6 
REMARK    5  A    between atoms: C_9  and  C_10 
REMARK    6  A    between atoms: N_15  and  C_14 
REMARK    7  A    between atoms: N_20  and  C_19 
REMARK       I    between atoms: C_22  and  N_20 
ROOT
ATOM      1  C   LIG d   1      12.445  78.836 114.618  0.00  0.00     0.161 C 
ATOM      2  C   LIG d   1      11.093  78.475 114.751  0.00  0.00     0.016 C 
ATOM      3  C   LIG d   1      10.151  79.244 115.472  0.00  0.00     0.038 C 
ATOM      4  C   LIG d   1      10.464  80.512 115.985  0.00  0.00     0.028 C 
ATOM      5  C   LIG d   1      11.944  80.685 116.309  0.00  0.00    -0.047 C 
ATOM      6  C   LIG d   1      12.780  80.270 115.076  0.00  0.00     0.091 C 
ENDROOT
BRANCH   1   7
ATOM      7  O   LIG d   1      12.873  78.632 113.257  0.00  0.00    -0.368 OA
BRANCH   7   8
ATOM      8  C   LIG d   1      11.855  78.790 112.238  0.00  0.00     0.119 C 
BRANCH   8   9
ATOM      9  C   LIG d   1      12.207  77.836 111.080  0.00  0.00     0.028 C 
ATOM     10  C   LIG d   1      13.724  77.717 110.858  0.00  0.00     0.006 C 
ENDBRANCH   8   9
BRANCH   8  11
ATOM     11  C   LIG d   1      11.888  80.195 111.631  0.00  0.00     0.028 C 
ATOM     12  C   LIG d   1      10.680  81.052 112.043  0.00  0.00     0.006 C 
ENDBRANCH   8  11
ENDBRANCH   7   8
ENDBRANCH   1   7
BRANCH   6  13
ATOM     13  N   LIG d   1      14.242  80.329 115.337  0.00  0.00    -0.311 N 
ATOM     14  C   LIG d   1      15.134  80.713 114.425  0.00  0.00     0.210 C 
ATOM     15  C   LIG d   1      16.592  80.682 114.894  0.00  0.00     0.109 C 
ATOM     16  O   LIG d   1      14.853  81.107 113.283  0.00  0.00    -0.276 OA
ATOM     17  H   LIG d   1      14.554  80.057 116.248  0.00  0.00     0.149 HD
ENDBRANCH   6  13
BRANCH   5  18
ATOM     18  N   LIG d   1      12.153  82.091 116.703  0.00  0.00     0.381 N 
ATOM     19  H   LIG d   1      12.389  82.139 117.674  0.00  0.00    -0.090 HD
ATOM     20  H   LIG d   1      11.297  82.599 116.561  0.00  0.00    -0.090 HD
ATOM     21  H   LIG d   1      12.882  82.494 116.156  0.00  0.00    -0.090 HD
ENDBRANCH   5  18
BRANCH   3  22
ATOM     22  C   LIG d   1       8.888  78.727 115.720  0.00  0.00     0.382 C 
ATOM     23  O   LIG d   1       8.754  77.737 116.479  0.00  0.00    -0.241 OA
ATOM     24  O   LIG d   1       7.886  79.211 115.159  0.00  0.00    -0.241 OA
ENDBRANCH   3  22
TORSDOF 7
ENDMDL
