MODEL 1
REMARK VINA RESULT:      -5.7      0.000      0.000
REMARK  7 active torsions:
REMARK  status: ('A' for Active; 'I' for Inactive)
REMARK    1  A    between atoms: C_2  and  C_3 
REMARK    2  A    between atoms: C_3  and  O_6 
REMARK    3  A    between atoms: C_3  and  C_4 
REMARK    4  A    between atoms: C_7  and  O_6 
REMARK    5  A    between atoms: C_9  and  C_10 
REMARK    6  A    between atoms: N_15  and  C_14 
REMARK    7  A    between atoms: N_20  and  C_19 
REMARK       I    between atoms: C_22  and  N_20 
ROOT
ATOM      1  C   LIG d   1       2.038  83.745 112.802  0.00  0.00     0.161 C 
ATOM      2  C   LIG d   1       1.192  82.637 112.635  0.00  0.00     0.016 C 
ATOM      3  C   LIG d   1      -0.059  82.705 111.980  0.00  0.00     0.038 C 
ATOM      4  C   LIG d   1      -0.484  83.862 111.310  0.00  0.00     0.028 C 
ATOM      5  C   LIG d   1       0.107  85.145 111.885  0.00  0.00    -0.047 C 
ATOM      6  C   LIG d   1       1.642  84.991 111.982  0.00  0.00     0.091 C 
ENDROOT
BRANCH   1   7
ATOM      7  O   LIG d   1       3.399  83.369 112.516  0.00  0.00    -0.368 OA
BRANCH   7   8
ATOM      8  C   LIG d   1       3.592  82.039 111.975  0.00  0.00     0.119 C 
BRANCH   8   9
ATOM      9  C   LIG d   1       4.732  81.375 112.771  0.00  0.00     0.028 C 
ATOM     10  C   LIG d   1       4.663  81.697 114.274  0.00  0.00     0.006 C 
ENDBRANCH   8   9
BRANCH   8  11
ATOM     11  C   LIG d   1       4.087  82.093 110.526  0.00  0.00     0.028 C 
ATOM     12  C   LIG d   1       4.699  80.763 110.056  0.00  0.00     0.006 C 
ENDBRANCH   8  11
ENDBRANCH   7   8
ENDBRANCH   1   7
BRANCH   6  13
ATOM     13  N   LIG d   1       2.292  86.170 112.613  0.00  0.00    -0.311 N 
ATOM     14  C   LIG d   1       3.403  86.734 112.142  0.00  0.00     0.210 C 
ATOM     15  C   LIG d   1       3.917  87.926 112.955  0.00  0.00     0.109 C 
ATOM     16  O   LIG d   1       3.994  86.379 111.111  0.00  0.00    -0.276 OA
ATOM     17  H   LIG d   1       1.861  86.541 113.437  0.00  0.00     0.149 HD
ENDBRANCH   6  13
BRANCH   5  18
ATOM     18  N   LIG d   1      -0.308  86.258 111.010  0.00  0.00     0.381 N 
ATOM     19  H   LIG d   1      -0.227  87.125 111.503  0.00  0.00    -0.090 HD
ATOM     20  H   LIG d   1      -1.271  86.129 110.755  0.00  0.00    -0.090 HD
ATOM     21  H   LIG d   1       0.261  86.279 110.192  0.00  0.00    -0.090 HD
ENDBRANCH   5  18
BRANCH   3  22
ATOM     22  C   LIG d   1      -0.919  81.617 112.024  0.00  0.00     0.382 C 
ATOM     23  O   LIG d   1      -0.543  80.504 111.585  0.00  0.00    -0.241 OA
ATOM     24  O   LIG d   1      -2.079  81.747 112.457  0.00  0.00    -0.241 OA
ENDBRANCH   3  22
TORSDOF 7
ENDMDL
MODEL 2
REMARK VINA RESULT:      -5.3      2.306      5.346
REMARK  7 active torsions:
REMARK  status: ('A' for Active; 'I' for Inactive)
REMARK    1  A    between atoms: C_2  and  C_3 
REMARK    2  A    between atoms: C_3  and  O_6 
REMARK    3  A    between atoms: C_3  and  C_4 
REMARK    4  A    between atoms: C_7  and  O_6 
REMARK    5  A    between atoms: C_9  and  C_10 
REMARK    6  A    between atoms: N_15  and  C_14 
REMARK    7  A    between atoms: N_20  and  C_19 
REMARK       I    between atoms: C_22  and  N_20 
ROOT
ATOM      1  C   LIG d   1       1.743  83.632 113.356  0.00  0.00     0.161 C 
ATOM      2  C   LIG d   1       2.312  84.898 113.137  0.00  0.00     0.016 C 
ATOM      3  C   LIG d   1       1.973  85.725 112.042  0.00  0.00     0.038 C 
ATOM      4  C   LIG d   1       0.923  85.405 111.168  0.00  0.00     0.028 C 
ATOM      5  C   LIG d   1       0.664  83.906 111.056  0.00  0.00    -0.047 C 
ATOM      6  C   LIG d   1       0.516  83.314 112.476  0.00  0.00     0.091 C 
ENDROOT
BRANCH   1   7
ATOM      7  O   LIG d   1       1.412  83.480 114.751  0.00  0.00    -0.368 OA
BRANCH   7   8
ATOM      8  C   LIG d   1       2.456  82.940 115.598  0.00  0.00     0.119 C 
BRANCH   8   9
ATOM      9  C   LIG d   1       2.871  81.578 115.009  0.00  0.00     0.028 C 
ATOM     10  C   LIG d   1       4.394  81.453 114.835  0.00  0.00     0.006 C 
ENDBRANCH   8   9
BRANCH   8  11
ATOM     11  C   LIG d   1       1.929  82.631 117.003  0.00  0.00     0.028 C 
ATOM     12  C   LIG d   1       2.553  83.528 118.083  0.00  0.00     0.006 C 
ENDBRANCH   8  11
ENDBRANCH   7   8
ENDBRANCH   1   7
BRANCH   6  13
ATOM     13  N   LIG d   1       0.344  81.838 112.460  0.00  0.00    -0.311 N 
ATOM     14  C   LIG d   1      -0.845  81.239 112.426  0.00  0.00     0.210 C 
ATOM     15  C   LIG d   1      -0.797  79.708 112.435  0.00  0.00     0.109 C 
ATOM     16  O   LIG d   1      -1.933  81.829 112.356  0.00  0.00    -0.276 OA
ATOM     17  H   LIG d   1       1.177  81.282 112.483  0.00  0.00     0.149 HD
ENDBRANCH   6  13
BRANCH   5  18
ATOM     18  N   LIG d   1      -0.540  83.723 110.224  0.00  0.00     0.381 N 
ATOM     19  H   LIG d   1      -1.002  84.601 110.099  0.00  0.00    -0.090 HD
ATOM     20  H   LIG d   1      -1.170  83.100 110.697  0.00  0.00    -0.090 HD
ATOM     21  H   LIG d   1      -0.288  83.343 109.338  0.00  0.00    -0.090 HD
ENDBRANCH   5  18
BRANCH   3  22
ATOM     22  C   LIG d   1       2.714  86.869 111.789  0.00  0.00     0.382 C 
ATOM     23  O   LIG d   1       3.951  86.784 111.594  0.00  0.00    -0.241 OA
ATOM     24  O   LIG d   1       2.170  87.989 111.798  0.00  0.00    -0.241 OA
ENDBRANCH   3  22
TORSDOF 7
ENDMDL
MODEL 3
REMARK VINA RESULT:      -5.2     24.938     28.205
REMARK  7 active torsions:
REMARK  status: ('A' for Active; 'I' for Inactive)
REMARK    1  A    between atoms: C_2  and  C_3 
REMARK    2  A    between atoms: C_3  and  O_6 
REMARK    3  A    between atoms: C_3  and  C_4 
REMARK    4  A    between atoms: C_7  and  O_6 
REMARK    5  A    between atoms: C_9  and  C_10 
REMARK    6  A    between atoms: N_15  and  C_14 
REMARK    7  A    between atoms: N_20  and  C_19 
REMARK       I    between atoms: C_22  and  N_20 
ROOT
ATOM      1  C   LIG d   1     -25.649  85.818 113.222  0.00  0.00     0.161 C 
ATOM      2  C   LIG d   1     -24.578  86.720 113.344  0.00  0.00     0.016 C 
ATOM      3  C   LIG d   1     -23.246  86.316 113.593  0.00  0.00     0.038 C 
ATOM      4  C   LIG d   1     -22.867  84.966 113.587  0.00  0.00     0.028 C 
ATOM      5  C   LIG d   1     -23.998  84.017 113.970  0.00  0.00    -0.047 C 
ATOM      6  C   LIG d   1     -25.236  84.336 113.102  0.00  0.00     0.091 C 
ENDROOT
BRANCH   1   7
ATOM      7  O   LIG d   1     -26.483  86.198 112.109  0.00  0.00    -0.368 OA
BRANCH   7   8
ATOM      8  C   LIG d   1     -27.164  87.471 112.228  0.00  0.00     0.119 C 
BRANCH   8   9
ATOM      9  C   LIG d   1     -28.671  87.209 112.038  0.00  0.00     0.028 C 
ATOM     10  C   LIG d   1     -28.946  86.003 111.125  0.00  0.00     0.006 C 
ENDBRANCH   8   9
BRANCH   8  11
ATOM     11  C   LIG d   1     -26.771  88.422 111.093  0.00  0.00     0.028 C 
ATOM     12  C   LIG d   1     -27.210  89.872 111.352  0.00  0.00     0.006 C 
ENDBRANCH   8  11
ENDBRANCH   7   8
ENDBRANCH   1   7
BRANCH   6  13
ATOM     13  N   LIG d   1     -26.415  83.510 113.470  0.00  0.00    -0.311 N 
ATOM     14  C   LIG d   1     -27.065  82.733 112.605  0.00  0.00     0.210 C 
ATOM     15  C   LIG d   1     -28.266  81.981 113.187  0.00  0.00     0.109 C 
ATOM     16  O   LIG d   1     -26.742  82.571 111.419  0.00  0.00    -0.276 OA
ATOM     17  H   LIG d   1     -26.727  83.558 114.420  0.00  0.00     0.149 HD
ENDBRANCH   6  13
BRANCH   5  18
ATOM     18  N   LIG d   1     -23.505  82.639 113.790  0.00  0.00     0.381 N 
ATOM     19  H   LIG d   1     -22.955  82.370 114.581  0.00  0.00    -0.090 HD
ATOM     20  H   LIG d   1     -22.919  82.608 112.974  0.00  0.00    -0.090 HD
ATOM     21  H   LIG d   1     -24.272  82.014 113.680  0.00  0.00    -0.090 HD
ENDBRANCH   5  18
BRANCH   3  22
ATOM     22  C   LIG d   1     -22.284  87.269 113.892  0.00  0.00     0.382 C 
ATOM     23  O   LIG d   1     -22.579  88.254 114.611  0.00  0.00    -0.241 OA
ATOM     24  O   LIG d   1     -21.137  87.180 113.415  0.00  0.00    -0.241 OA
ENDBRANCH   3  22
TORSDOF 7
ENDMDL
MODEL 4
REMARK VINA RESULT:      -5.1      2.522      3.868
REMARK  7 active torsions:
REMARK  status: ('A' for Active; 'I' for Inactive)
REMARK    1  A    between atoms: C_2  and  C_3 
REMARK    2  A    between atoms: C_3  and  O_6 
REMARK    3  A    between atoms: C_3  and  C_4 
REMARK    4  A    between atoms: C_7  and  O_6 
REMARK    5  A    between atoms: C_9  and  C_10 
REMARK    6  A    between atoms: N_15  and  C_14 
REMARK    7  A    between atoms: N_20  and  C_19 
REMARK       I    between atoms: C_22  and  N_20 
ROOT
ATOM      1  C   LIG d   1       1.147  82.697 112.561  0.00  0.00     0.161 C 
ATOM      2  C   LIG d   1       0.375  83.572 111.779  0.00  0.00     0.016 C 
ATOM      3  C   LIG d   1       0.148  84.926 112.119  0.00  0.00     0.038 C 
ATOM      4  C   LIG d   1       0.808  85.541 113.194  0.00  0.00     0.028 C 
ATOM      5  C   LIG d   1       1.199  84.568 114.301  0.00  0.00    -0.047 C 
ATOM      6  C   LIG d   1       1.966  83.379 113.678  0.00  0.00     0.091 C 
ENDROOT
BRANCH   1   7
ATOM      7  O   LIG d   1       2.012  81.917 111.712  0.00  0.00    -0.368 OA
BRANCH   7   8
ATOM      8  C   LIG d   1       3.372  82.396 111.575  0.00  0.00     0.119 C 
BRANCH   8   9
ATOM      9  C   LIG d   1       3.484  83.086 110.202  0.00  0.00     0.028 C 
ATOM     10  C   LIG d   1       3.470  84.620 110.313  0.00  0.00     0.006 C 
ENDBRANCH   8   9
BRANCH   8  11
ATOM     11  C   LIG d   1       4.370  81.235 111.527  0.00  0.00     0.028 C 
ATOM     12  C   LIG d   1       4.762  80.845 110.093  0.00  0.00     0.006 C 
ENDBRANCH   8  11
ENDBRANCH   7   8
ENDBRANCH   1   7
BRANCH   6  13
ATOM     13  N   LIG d   1       2.312  82.339 114.681  0.00  0.00    -0.311 N 
ATOM     14  C   LIG d   1       3.493  82.275 115.293  0.00  0.00     0.210 C 
ATOM     15  C   LIG d   1       3.649  81.111 116.277  0.00  0.00     0.109 C 
ATOM     16  O   LIG d   1       4.415  83.089 115.137  0.00  0.00    -0.276 OA
ATOM     17  H   LIG d   1       1.610  81.656 114.890  0.00  0.00     0.149 HD
ENDBRANCH   6  13
BRANCH   5  18
ATOM     18  N   LIG d   1       1.997  85.316 115.290  0.00  0.00     0.381 N 
ATOM     19  H   LIG d   1       2.488  86.060 114.836  0.00  0.00    -0.090 HD
ATOM     20  H   LIG d   1       2.674  84.695 115.699  0.00  0.00    -0.090 HD
ATOM     21  H   LIG d   1       1.403  85.685 116.000  0.00  0.00    -0.090 HD
ENDBRANCH   5  18
BRANCH   3  22
ATOM     22  C   LIG d   1      -0.778  85.668 111.403  0.00  0.00     0.382 C 
ATOM     23  O   LIG d   1      -0.745  85.672 110.149  0.00  0.00    -0.241 OA
ATOM     24  O   LIG d   1      -1.619  86.370 111.996  0.00  0.00    -0.241 OA
ENDBRANCH   3  22
TORSDOF 7
ENDMDL
MODEL 5
REMARK VINA RESULT:      -5.0      2.556      4.770
REMARK  7 active torsions:
REMARK  status: ('A' for Active; 'I' for Inactive)
REMARK    1  A    between atoms: C_2  and  C_3 
REMARK    2  A    between atoms: C_3  and  O_6 
REMARK    3  A    between atoms: C_3  and  C_4 
REMARK    4  A    between atoms: C_7  and  O_6 
REMARK    5  A    between atoms: C_9  and  C_10 
REMARK    6  A    between atoms: N_15  and  C_14 
REMARK    7  A    between atoms: N_20  and  C_19 
REMARK       I    between atoms: C_22  and  N_20 
ROOT
ATOM      1  C   LIG d   1       1.718  83.578 113.199  0.00  0.00     0.161 C 
ATOM      2  C   LIG d   1       1.833  84.576 112.218  0.00  0.00     0.016 C 
ATOM      3  C   LIG d   1       2.165  85.919 112.510  0.00  0.00     0.038 C 
ATOM      4  C   LIG d   1       2.555  86.324 113.795  0.00  0.00     0.028 C 
ATOM      5  C   LIG d   1       1.965  85.463 114.907  0.00  0.00    -0.047 C 
ATOM      6  C   LIG d   1       2.248  83.976 114.593  0.00  0.00     0.091 C 
ENDROOT
BRANCH   1   7
ATOM      7  O   LIG d   1       2.361  82.370 112.745  0.00  0.00    -0.368 OA
BRANCH   7   8
ATOM      8  C   LIG d   1       3.267  82.513 111.624  0.00  0.00     0.119 C 
BRANCH   8   9
ATOM      9  C   LIG d   1       2.794  81.548 110.520  0.00  0.00     0.028 C 
ATOM     10  C   LIG d   1       1.725  80.562 111.021  0.00  0.00     0.006 C 
ENDBRANCH   8   9
BRANCH   8  11
ATOM     11  C   LIG d   1       4.681  82.051 111.988  0.00  0.00     0.028 C 
ATOM     12  C   LIG d   1       4.789  81.547 113.437  0.00  0.00     0.006 C 
ENDBRANCH   8  11
ENDBRANCH   7   8
ENDBRANCH   1   7
BRANCH   6  13
ATOM     13  N   LIG d   1       1.632  83.059 115.587  0.00  0.00    -0.311 N 
ATOM     14  C   LIG d   1       2.279  82.592 116.653  0.00  0.00     0.210 C 
ATOM     15  C   LIG d   1       1.465  81.644 117.540  0.00  0.00     0.109 C 
ATOM     16  O   LIG d   1       3.440  82.897 116.966  0.00  0.00    -0.276 OA
ATOM     17  H   LIG d   1       0.682  82.785 115.427  0.00  0.00     0.149 HD
ENDBRANCH   6  13
BRANCH   5  18
ATOM     18  N   LIG d   1       2.561  85.909 116.180  0.00  0.00     0.381 N 
ATOM     19  H   LIG d   1       2.871  85.116 116.705  0.00  0.00    -0.090 HD
ATOM     20  H   LIG d   1       1.859  86.387 116.717  0.00  0.00    -0.090 HD
ATOM     21  H   LIG d   1       3.328  86.519 116.002  0.00  0.00    -0.090 HD
ENDBRANCH   5  18
BRANCH   3  22
ATOM     22  C   LIG d   1       2.070  86.882 111.516  0.00  0.00     0.382 C 
ATOM     23  O   LIG d   1       1.855  86.538 110.329  0.00  0.00    -0.241 OA
ATOM     24  O   LIG d   1       2.241  88.086 111.785  0.00  0.00    -0.241 OA
ENDBRANCH   3  22
TORSDOF 7
ENDMDL
MODEL 6
REMARK VINA RESULT:      -4.9      9.585     12.931
REMARK  7 active torsions:
REMARK  status: ('A' for Active; 'I' for Inactive)
REMARK    1  A    between atoms: C_2  and  C_3 
REMARK    2  A    between atoms: C_3  and  O_6 
REMARK    3  A    between atoms: C_3  and  C_4 
REMARK    4  A    between atoms: C_7  and  O_6 
REMARK    5  A    between atoms: C_9  and  C_10 
REMARK    6  A    between atoms: N_15  and  C_14 
REMARK    7  A    between atoms: N_20  and  C_19 
REMARK       I    between atoms: C_22  and  N_20 
ROOT
ATOM      1  C   LIG d   1      11.089  77.639 115.390  0.00  0.00     0.161 C 
ATOM      2  C   LIG d   1      11.258  78.853 114.703  0.00  0.00     0.016 C 
ATOM      3  C   LIG d   1      12.363  79.125 113.864  0.00  0.00     0.038 C 
ATOM      4  C   LIG d   1      13.303  78.138 113.532  0.00  0.00     0.028 C 
ATOM      5  C   LIG d   1      13.449  77.058 114.599  0.00  0.00    -0.047 C 
ATOM      6  C   LIG d   1      12.047  76.510 114.954  0.00  0.00     0.091 C 
ENDROOT
BRANCH   1   7
ATOM      7  O   LIG d   1       9.720  77.203 115.283  0.00  0.00    -0.368 OA
BRANCH   7   8
ATOM      8  C   LIG d   1       8.744  77.981 116.019  0.00  0.00     0.119 C 
BRANCH   8   9
ATOM      9  C   LIG d   1       7.947  77.004 116.905  0.00  0.00     0.028 C 
ATOM     10  C   LIG d   1       8.727  76.583 118.162  0.00  0.00     0.006 C 
ENDBRANCH   8   9
BRANCH   8  11
ATOM     11  C   LIG d   1       7.711  78.611 115.080  0.00  0.00     0.028 C 
ATOM     12  C   LIG d   1       6.778  79.599 115.798  0.00  0.00     0.006 C 
ENDBRANCH   8  11
ENDBRANCH   7   8
ENDBRANCH   1   7
BRANCH   6  13
ATOM     13  N   LIG d   1      12.091  75.508 116.050  0.00  0.00    -0.311 N 
ATOM     14  C   LIG d   1      12.240  74.201 115.843  0.00  0.00     0.210 C 
ATOM     15  C   LIG d   1      12.238  73.341 117.111  0.00  0.00     0.109 C 
ATOM     16  O   LIG d   1      12.405  73.675 114.732  0.00  0.00    -0.276 OA
ATOM     17  H   LIG d   1      11.995  75.852 116.986  0.00  0.00     0.149 HD
ENDBRANCH   6  13
BRANCH   5  18
ATOM     18  N   LIG d   1      14.355  76.024 114.065  0.00  0.00     0.381 N 
ATOM     19  H   LIG d   1      14.619  75.394 114.796  0.00  0.00    -0.090 HD
ATOM     20  H   LIG d   1      15.186  76.468 113.717  0.00  0.00    -0.090 HD
ATOM     21  H   LIG d   1      13.906  75.522 113.331  0.00  0.00    -0.090 HD
ENDBRANCH   5  18
BRANCH   3  22
ATOM     22  C   LIG d   1      12.556  80.409 113.377  0.00  0.00     0.382 C 
ATOM     23  O   LIG d   1      12.990  81.308 114.137  0.00  0.00    -0.241 OA
ATOM     24  O   LIG d   1      12.260  80.690 112.200  0.00  0.00    -0.241 OA
ENDBRANCH   3  22
TORSDOF 7
ENDMDL
MODEL 7
REMARK VINA RESULT:      -4.7     10.143     12.887
REMARK  7 active torsions:
REMARK  status: ('A' for Active; 'I' for Inactive)
REMARK    1  A    between atoms: C_2  and  C_3 
REMARK    2  A    between atoms: C_3  and  O_6 
REMARK    3  A    between atoms: C_3  and  C_4 
REMARK    4  A    between atoms: C_7  and  O_6 
REMARK    5  A    between atoms: C_9  and  C_10 
REMARK    6  A    between atoms: N_15  and  C_14 
REMARK    7  A    between atoms: N_20  and  C_19 
REMARK       I    between atoms: C_22  and  N_20 
ROOT
ATOM      1  C   LIG d   1      12.171  78.051 114.278  0.00  0.00     0.161 C 
ATOM      2  C   LIG d   1      10.933  78.650 114.566  0.00  0.00     0.016 C 
ATOM      3  C   LIG d   1       9.820  77.935 115.066  0.00  0.00     0.038 C 
ATOM      4  C   LIG d   1       9.917  76.591 115.457  0.00  0.00     0.028 C 
ATOM      5  C   LIG d   1      11.003  75.821 114.713  0.00  0.00    -0.047 C 
ATOM      6  C   LIG d   1      12.329  76.609 114.803  0.00  0.00     0.091 C 
ENDROOT
BRANCH   1   7
ATOM      7  O   LIG d   1      13.241  78.883 114.768  0.00  0.00    -0.368 OA
BRANCH   7   8
ATOM      8  C   LIG d   1      13.851  79.773 113.800  0.00  0.00     0.119 C 
BRANCH   8   9
ATOM      9  C   LIG d   1      15.160  79.114 113.326  0.00  0.00     0.028 C 
ATOM     10  C   LIG d   1      15.034  78.500 111.921  0.00  0.00     0.006 C 
ENDBRANCH   8   9
BRANCH   8  11
ATOM     11  C   LIG d   1      14.273  81.095 114.447  0.00  0.00     0.028 C 
ATOM     12  C   LIG d   1      13.664  81.296 115.844  0.00  0.00     0.006 C 
ENDBRANCH   8  11
ENDBRANCH   7   8
ENDBRANCH   1   7
BRANCH   6  13
ATOM     13  N   LIG d   1      13.424  75.967 114.030  0.00  0.00    -0.311 N 
ATOM     14  C   LIG d   1      14.604  75.645 114.559  0.00  0.00     0.210 C 
ATOM     15  C   LIG d   1      15.598  75.010 113.582  0.00  0.00     0.109 C 
ATOM     16  O   LIG d   1      14.909  75.795 115.751  0.00  0.00    -0.276 OA
ATOM     17  H   LIG d   1      13.250  75.780 113.062  0.00  0.00     0.149 HD
ENDBRANCH   6  13
BRANCH   5  18
ATOM     18  N   LIG d   1      11.087  74.476 115.315  0.00  0.00     0.381 N 
ATOM     19  H   LIG d   1      12.034  74.278 115.570  0.00  0.00    -0.090 HD
ATOM     20  H   LIG d   1      10.795  73.797 114.635  0.00  0.00    -0.090 HD
ATOM     21  H   LIG d   1      10.501  74.425 116.119  0.00  0.00    -0.090 HD
ENDBRANCH   5  18
BRANCH   3  22
ATOM     22  C   LIG d   1       8.582  78.555 115.141  0.00  0.00     0.382 C 
ATOM     23  O   LIG d   1       8.507  79.770 115.443  0.00  0.00    -0.241 OA
ATOM     24  O   LIG d   1       7.537  77.903 114.955  0.00  0.00    -0.241 OA
ENDBRANCH   3  22
TORSDOF 7
ENDMDL
MODEL 8
REMARK VINA RESULT:      -4.7      3.004      6.096
REMARK  7 active torsions:
REMARK  status: ('A' for Active; 'I' for Inactive)
REMARK    1  A    between atoms: C_2  and  C_3 
REMARK    2  A    between atoms: C_3  and  O_6 
REMARK    3  A    between atoms: C_3  and  C_4 
REMARK    4  A    between atoms: C_7  and  O_6 
REMARK    5  A    between atoms: C_9  and  C_10 
REMARK    6  A    between atoms: N_15  and  C_14 
REMARK    7  A    between atoms: N_20  and  C_19 
REMARK       I    between atoms: C_22  and  N_20 
ROOT
ATOM      1  C   LIG d   1       2.805  85.445 114.542  0.00  0.00     0.161 C 
ATOM      2  C   LIG d   1       3.269  86.759 114.724  0.00  0.00     0.016 C 
ATOM      3  C   LIG d   1       3.592  87.625 113.655  0.00  0.00     0.038 C 
ATOM      4  C   LIG d   1       3.328  87.285 112.320  0.00  0.00     0.028 C 
ATOM      5  C   LIG d   1       3.333  85.782 112.065  0.00  0.00    -0.047 C 
ATOM      6  C   LIG d   1       2.406  85.095 113.093  0.00  0.00     0.091 C 
ENDROOT
BRANCH   1   7
ATOM      7  O   LIG d   1       1.709  85.185 115.441  0.00  0.00    -0.368 OA
BRANCH   7   8
ATOM      8  C   LIG d   1       1.978  84.259 116.523  0.00  0.00     0.119 C 
BRANCH   8   9
ATOM      9  C   LIG d   1       2.035  85.077 117.828  0.00  0.00     0.028 C 
ATOM     10  C   LIG d   1       0.913  86.126 117.913  0.00  0.00     0.006 C 
ENDBRANCH   8   9
BRANCH   8  11
ATOM     11  C   LIG d   1       3.365  83.625 116.382  0.00  0.00     0.028 C 
ATOM     12  C   LIG d   1       3.306  82.103 116.178  0.00  0.00     0.006 C 
ENDBRANCH   8  11
ENDBRANCH   7   8
ENDBRANCH   1   7
BRANCH   6  13
ATOM     13  N   LIG d   1       2.418  83.614 112.968  0.00  0.00    -0.311 N 
ATOM     14  C   LIG d   1       1.317  82.867 112.998  0.00  0.00     0.210 C 
ATOM     15  C   LIG d   1       1.555  81.359 112.872  0.00  0.00     0.109 C 
ATOM     16  O   LIG d   1       0.162  83.312 113.084  0.00  0.00    -0.276 OA
ATOM     17  H   LIG d   1       3.311  83.173 112.863  0.00  0.00     0.149 HD
ENDBRANCH   6  13
BRANCH   5  18
ATOM     18  N   LIG d   1       2.909  85.565 110.669  0.00  0.00     0.381 N 
ATOM     19  H   LIG d   1       3.694  85.284 110.116  0.00  0.00    -0.090 HD
ATOM     20  H   LIG d   1       2.556  86.430 110.298  0.00  0.00    -0.090 HD
ATOM     21  H   LIG d   1       2.201  84.865 110.632  0.00  0.00    -0.090 HD
ENDBRANCH   5  18
BRANCH   3  22
ATOM     22  C   LIG d   1       4.223  88.832 113.915  0.00  0.00     0.382 C 
ATOM     23  O   LIG d   1       4.075  89.390 115.029  0.00  0.00    -0.241 OA
ATOM     24  O   LIG d   1       4.903  89.392 113.034  0.00  0.00    -0.241 OA
ENDBRANCH   3  22
TORSDOF 7
ENDMDL
MODEL 9
REMARK VINA RESULT:      -4.5     23.906     27.177
REMARK  7 active torsions:
REMARK  status: ('A' for Active; 'I' for Inactive)
REMARK    1  A    between atoms: C_2  and  C_3 
REMARK    2  A    between atoms: C_3  and  O_6 
REMARK    3  A    between atoms: C_3  and  C_4 
REMARK    4  A    between atoms: C_7  and  O_6 
REMARK    5  A    between atoms: C_9  and  C_10 
REMARK    6  A    between atoms: N_15  and  C_14 
REMARK    7  A    between atoms: N_20  and  C_19 
REMARK       I    between atoms: C_22  and  N_20 
ROOT
ATOM      1  C   LIG d   1     -16.456  64.434 115.072  0.00  0.00     0.161 C 
ATOM      2  C   LIG d   1     -16.811  63.347 115.887  0.00  0.00     0.016 C 
ATOM      3  C   LIG d   1     -16.473  63.259 117.257  0.00  0.00     0.038 C 
ATOM      4  C   LIG d   1     -15.884  64.330 117.946  0.00  0.00     0.028 C 
ATOM      5  C   LIG d   1     -15.055  65.244 117.049  0.00  0.00    -0.047 C 
ATOM      6  C   LIG d   1     -15.910  65.662 115.831  0.00  0.00     0.091 C 
ENDROOT
BRANCH   1   7
ATOM      7  O   LIG d   1     -17.576  64.813 114.247  0.00  0.00    -0.368 OA
BRANCH   7   8
ATOM      8  C   LIG d   1     -18.879  64.369 114.699  0.00  0.00     0.119 C 
BRANCH   8   9
ATOM      9  C   LIG d   1     -19.754  64.154 113.449  0.00  0.00     0.028 C 
ATOM     10  C   LIG d   1     -20.591  65.396 113.098  0.00  0.00     0.006 C 
ENDBRANCH   8   9
BRANCH   8  11
ATOM     11  C   LIG d   1     -19.589  65.459 115.509  0.00  0.00     0.028 C 
ATOM     12  C   LIG d   1     -19.930  65.011 116.939  0.00  0.00     0.006 C 
ENDBRANCH   8  11
ENDBRANCH   7   8
ENDBRANCH   1   7
BRANCH   6  13
ATOM     13  N   LIG d   1     -15.147  66.489 114.860  0.00  0.00    -0.311 N 
ATOM     14  C   LIG d   1     -15.055  67.815 114.940  0.00  0.00     0.210 C 
ATOM     15  C   LIG d   1     -14.237  68.475 113.826  0.00  0.00     0.109 C 
ATOM     16  O   LIG d   1     -15.547  68.505 115.846  0.00  0.00    -0.276 OA
ATOM     17  H   LIG d   1     -14.691  66.007 114.110  0.00  0.00     0.149 HD
ENDBRANCH   6  13
BRANCH   5  18
ATOM     18  N   LIG d   1     -14.614  66.390 117.867  0.00  0.00     0.381 N 
ATOM     19  H   LIG d   1     -13.805  66.809 117.454  0.00  0.00    -0.090 HD
ATOM     20  H   LIG d   1     -14.365  66.059 118.782  0.00  0.00    -0.090 HD
ATOM     21  H   LIG d   1     -15.346  67.061 117.936  0.00  0.00    -0.090 HD
ENDBRANCH   5  18
BRANCH   3  22
ATOM     22  C   LIG d   1     -16.690  62.074 117.944  0.00  0.00     0.382 C 
ATOM     23  O   LIG d   1     -17.858  61.728 118.245  0.00  0.00    -0.241 OA
ATOM     24  O   LIG d   1     -15.729  61.369 118.305  0.00  0.00    -0.241 OA
ENDBRANCH   3  22
TORSDOF 7
ENDMDL
