MODEL 1
REMARK VINA RESULT:      -5.5      0.000      0.000
REMARK  7 active torsions:
REMARK  status: ('A' for Active; 'I' for Inactive)
REMARK    1  A    between atoms: C_2  and  C_3 
REMARK    2  A    between atoms: C_3  and  O_6 
REMARK    3  A    between atoms: C_3  and  C_4 
REMARK    4  A    between atoms: C_7  and  O_6 
REMARK    5  A    between atoms: C_9  and  C_10 
REMARK    6  A    between atoms: N_15  and  C_14 
REMARK    7  A    between atoms: N_20  and  C_19 
REMARK       I    between atoms: C_22  and  N_20 
ROOT
ATOM      1  C   LIG d   1      -2.470  79.562 114.534  0.00  0.00     0.161 C 
ATOM      2  C   LIG d   1      -1.936  80.764 114.040  0.00  0.00     0.016 C 
ATOM      3  C   LIG d   1      -1.359  80.889 112.756  0.00  0.00     0.038 C 
ATOM      4  C   LIG d   1      -1.414  79.851 111.814  0.00  0.00     0.028 C 
ATOM      5  C   LIG d   1      -1.491  78.465 112.444  0.00  0.00    -0.047 C 
ATOM      6  C   LIG d   1      -2.639  78.448 113.480  0.00  0.00     0.091 C 
ENDROOT
BRANCH   1   7
ATOM      7  O   LIG d   1      -3.725  79.819 115.195  0.00  0.00    -0.368 OA
BRANCH   7   8
ATOM      8  C   LIG d   1      -3.780  79.494 116.606  0.00  0.00     0.119 C 
BRANCH   8   9
ATOM      9  C   LIG d   1      -5.099  78.737 116.855  0.00  0.00     0.028 C 
ATOM     10  C   LIG d   1      -4.921  77.548 117.814  0.00  0.00     0.006 C 
ENDBRANCH   8   9
BRANCH   8  11
ATOM     11  C   LIG d   1      -3.870  80.758 117.466  0.00  0.00     0.028 C 
ATOM     12  C   LIG d   1      -5.279  81.372 117.479  0.00  0.00     0.006 C 
ENDBRANCH   8  11
ENDBRANCH   7   8
ENDBRANCH   1   7
BRANCH   6  13
ATOM     13  N   LIG d   1      -2.730  77.153 114.204  0.00  0.00    -0.311 N 
ATOM     14  C   LIG d   1      -3.859  76.455 114.319  0.00  0.00     0.210 C 
ATOM     15  C   LIG d   1      -3.737  75.157 115.123  0.00  0.00     0.109 C 
ATOM     16  O   LIG d   1      -4.942  76.772 113.804  0.00  0.00    -0.276 OA
ATOM     17  H   LIG d   1      -1.891  76.806 114.625  0.00  0.00     0.149 HD
ENDBRANCH   6  13
BRANCH   5  18
ATOM     18  N   LIG d   1      -1.682  77.489 111.354  0.00  0.00     0.381 N 
ATOM     19  H   LIG d   1      -2.596  77.594 110.961  0.00  0.00    -0.090 HD
ATOM     20  H   LIG d   1      -1.605  76.561 111.731  0.00  0.00    -0.090 HD
ATOM     21  H   LIG d   1      -0.992  77.627 110.649  0.00  0.00    -0.090 HD
ENDBRANCH   5  18
BRANCH   3  22
ATOM     22  C   LIG d   1      -0.683  82.051 112.417  0.00  0.00     0.382 C 
ATOM     23  O   LIG d   1       0.373  82.361 113.020  0.00  0.00    -0.241 OA
ATOM     24  O   LIG d   1      -1.140  82.817 111.547  0.00  0.00    -0.241 OA
ENDBRANCH   3  22
TORSDOF 7
ENDMDL
MODEL 2
REMARK VINA RESULT:      -5.5      7.482     10.229
REMARK  7 active torsions:
REMARK  status: ('A' for Active; 'I' for Inactive)
REMARK    1  A    between atoms: C_2  and  C_3 
REMARK    2  A    between atoms: C_3  and  O_6 
REMARK    3  A    between atoms: C_3  and  C_4 
REMARK    4  A    between atoms: C_7  and  O_6 
REMARK    5  A    between atoms: C_9  and  C_10 
REMARK    6  A    between atoms: N_15  and  C_14 
REMARK    7  A    between atoms: N_20  and  C_19 
REMARK       I    between atoms: C_22  and  N_20 
ROOT
ATOM      1  C   LIG d   1       2.971  86.039 114.293  0.00  0.00     0.161 C 
ATOM      2  C   LIG d   1       3.546  87.120 113.604  0.00  0.00     0.016 C 
ATOM      3  C   LIG d   1       4.475  88.011 114.189  0.00  0.00     0.038 C 
ATOM      4  C   LIG d   1       5.010  87.790 115.467  0.00  0.00     0.028 C 
ATOM      5  C   LIG d   1       4.082  87.000 116.384  0.00  0.00    -0.047 C 
ATOM      6  C   LIG d   1       3.626  85.717 115.653  0.00  0.00     0.091 C 
ENDROOT
BRANCH   1   7
ATOM      7  O   LIG d   1       2.964  84.870 113.450  0.00  0.00    -0.368 OA
BRANCH   7   8
ATOM      8  C   LIG d   1       3.217  85.098 112.042  0.00  0.00     0.119 C 
BRANCH   8   9
ATOM      9  C   LIG d   1       1.861  85.038 111.313  0.00  0.00     0.028 C 
ATOM     10  C   LIG d   1       1.549  86.334 110.546  0.00  0.00     0.006 C 
ENDBRANCH   8   9
BRANCH   8  11
ATOM     11  C   LIG d   1       4.055  83.968 111.436  0.00  0.00     0.028 C 
ATOM     12  C   LIG d   1       3.229  83.027 110.544  0.00  0.00     0.006 C 
ENDBRANCH   8  11
ENDBRANCH   7   8
ENDBRANCH   1   7
BRANCH   6  13
ATOM     13  N   LIG d   1       2.649  84.928 116.447  0.00  0.00    -0.311 N 
ATOM     14  C   LIG d   1       2.803  83.634 116.723  0.00  0.00     0.210 C 
ATOM     15  C   LIG d   1       1.669  83.008 117.540  0.00  0.00     0.109 C 
ATOM     16  O   LIG d   1       3.788  82.954 116.398  0.00  0.00    -0.276 OA
ATOM     17  H   LIG d   1       1.836  85.409 116.778  0.00  0.00     0.149 HD
ENDBRANCH   6  13
BRANCH   5  18
ATOM     18  N   LIG d   1       4.818  86.724 117.632  0.00  0.00     0.381 N 
ATOM     19  H   LIG d   1       4.733  85.755 117.868  0.00  0.00    -0.090 HD
ATOM     20  H   LIG d   1       4.413  87.266 118.375  0.00  0.00    -0.090 HD
ATOM     21  H   LIG d   1       5.779  86.963 117.522  0.00  0.00    -0.090 HD
ENDBRANCH   5  18
BRANCH   3  22
ATOM     22  C   LIG d   1       4.848  89.160 113.509  0.00  0.00     0.382 C 
ATOM     23  O   LIG d   1       3.973  89.972 113.123  0.00  0.00    -0.241 OA
ATOM     24  O   LIG d   1       6.045  89.373 113.238  0.00  0.00    -0.241 OA
ENDBRANCH   3  22
TORSDOF 7
ENDMDL
MODEL 3
REMARK VINA RESULT:      -5.2      3.120      5.909
REMARK  7 active torsions:
REMARK  status: ('A' for Active; 'I' for Inactive)
REMARK    1  A    between atoms: C_2  and  C_3 
REMARK    2  A    between atoms: C_3  and  O_6 
REMARK    3  A    between atoms: C_3  and  C_4 
REMARK    4  A    between atoms: C_7  and  O_6 
REMARK    5  A    between atoms: C_9  and  C_10 
REMARK    6  A    between atoms: N_15  and  C_14 
REMARK    7  A    between atoms: N_20  and  C_19 
REMARK       I    between atoms: C_22  and  N_20 
ROOT
ATOM      1  C   LIG d   1      -1.327  77.012 114.656  0.00  0.00     0.161 C 
ATOM      2  C   LIG d   1      -2.648  76.615 114.391  0.00  0.00     0.016 C 
ATOM      3  C   LIG d   1      -3.372  75.723 115.215  0.00  0.00     0.038 C 
ATOM      4  C   LIG d   1      -2.873  75.283 116.450  0.00  0.00     0.028 C 
ATOM      5  C   LIG d   1      -1.350  75.258 116.513  0.00  0.00    -0.047 C 
ATOM      6  C   LIG d   1      -0.805  76.630 116.057  0.00  0.00     0.091 C 
ENDROOT
BRANCH   1   7
ATOM      7  O   LIG d   1      -1.191  78.431 114.440  0.00  0.00    -0.368 OA
BRANCH   7   8
ATOM      8  C   LIG d   1      -2.426  79.175 114.295  0.00  0.00     0.119 C 
BRANCH   8   9
ATOM      9  C   LIG d   1      -2.261  80.114 113.084  0.00  0.00     0.028 C 
ATOM     10  C   LIG d   1      -1.861  79.358 111.805  0.00  0.00     0.006 C 
ENDBRANCH   8   9
BRANCH   8  11
ATOM     11  C   LIG d   1      -2.665  80.097 115.494  0.00  0.00     0.028 C 
ATOM     12  C   LIG d   1      -3.865  79.662 116.350  0.00  0.00     0.006 C 
ENDBRANCH   8  11
ENDBRANCH   7   8
ENDBRANCH   1   7
BRANCH   6  13
ATOM     13  N   LIG d   1       0.680  76.664 116.008  0.00  0.00    -0.311 N 
ATOM     14  C   LIG d   1       1.439  77.041 117.036  0.00  0.00     0.210 C 
ATOM     15  C   LIG d   1       2.947  77.021 116.768  0.00  0.00     0.109 C 
ATOM     16  O   LIG d   1       1.008  77.359 118.154  0.00  0.00    -0.276 OA
ATOM     17  H   LIG d   1       1.114  76.391 115.148  0.00  0.00     0.149 HD
ENDBRANCH   6  13
BRANCH   5  18
ATOM     18  N   LIG d   1      -0.966  74.914 117.895  0.00  0.00     0.381 N 
ATOM     19  H   LIG d   1       0.015  75.062 118.022  0.00  0.00    -0.090 HD
ATOM     20  H   LIG d   1      -1.162  73.941 118.055  0.00  0.00    -0.090 HD
ATOM     21  H   LIG d   1      -1.480  75.473 118.541  0.00  0.00    -0.090 HD
ENDBRANCH   5  18
BRANCH   3  22
ATOM     22  C   LIG d   1      -4.595  75.230 114.786  0.00  0.00     0.382 C 
ATOM     23  O   LIG d   1      -5.656  75.628 115.326  0.00  0.00    -0.241 OA
ATOM     24  O   LIG d   1      -4.649  74.361 113.896  0.00  0.00    -0.241 OA
ENDBRANCH   3  22
TORSDOF 7
ENDMDL
MODEL 4
REMARK VINA RESULT:      -4.9      2.631      5.958
REMARK  7 active torsions:
REMARK  status: ('A' for Active; 'I' for Inactive)
REMARK    1  A    between atoms: C_2  and  C_3 
REMARK    2  A    between atoms: C_3  and  O_6 
REMARK    3  A    between atoms: C_3  and  C_4 
REMARK    4  A    between atoms: C_7  and  O_6 
REMARK    5  A    between atoms: C_9  and  C_10 
REMARK    6  A    between atoms: N_15  and  C_14 
REMARK    7  A    between atoms: N_20  and  C_19 
REMARK       I    between atoms: C_22  and  N_20 
ROOT
ATOM      1  C   LIG d   1      -2.759  78.494 115.298  0.00  0.00     0.161 C 
ATOM      2  C   LIG d   1      -2.114  77.271 115.050  0.00  0.00     0.016 C 
ATOM      3  C   LIG d   1      -2.399  76.083 115.761  0.00  0.00     0.038 C 
ATOM      4  C   LIG d   1      -3.463  76.001 116.672  0.00  0.00     0.028 C 
ATOM      5  C   LIG d   1      -3.810  77.337 117.320  0.00  0.00    -0.047 C 
ATOM      6  C   LIG d   1      -3.999  78.398 116.211  0.00  0.00     0.091 C 
ENDROOT
BRANCH   1   7
ATOM      7  O   LIG d   1      -3.104  79.127 114.050  0.00  0.00    -0.368 OA
BRANCH   7   8
ATOM      8  C   LIG d   1      -2.006  79.712 113.307  0.00  0.00     0.119 C 
BRANCH   8   9
ATOM      9  C   LIG d   1      -2.346  81.196 113.070  0.00  0.00     0.028 C 
ATOM     10  C   LIG d   1      -1.179  81.972 112.436  0.00  0.00     0.006 C 
ENDBRANCH   8   9
BRANCH   8  11
ATOM     11  C   LIG d   1      -1.887  79.095 111.911  0.00  0.00     0.028 C 
ATOM     12  C   LIG d   1      -3.022  78.108 111.596  0.00  0.00     0.006 C 
ENDBRANCH   8  11
ENDBRANCH   7   8
ENDBRANCH   1   7
BRANCH   6  13
ATOM     13  N   LIG d   1      -4.258  79.754 116.763  0.00  0.00    -0.311 N 
ATOM     14  C   LIG d   1      -5.478  80.214 117.034  0.00  0.00     0.210 C 
ATOM     15  C   LIG d   1      -5.523  81.646 117.577  0.00  0.00     0.109 C 
ATOM     16  O   LIG d   1      -6.525  79.561 116.907  0.00  0.00    -0.276 OA
ATOM     17  H   LIG d   1      -3.463  80.340 116.926  0.00  0.00     0.149 HD
ENDBRANCH   6  13
BRANCH   5  18
ATOM     18  N   LIG d   1      -5.020  77.135 118.139  0.00  0.00     0.381 N 
ATOM     19  H   LIG d   1      -5.793  76.900 117.549  0.00  0.00    -0.090 HD
ATOM     20  H   LIG d   1      -5.236  77.992 118.616  0.00  0.00    -0.090 HD
ATOM     21  H   LIG d   1      -4.865  76.407 118.802  0.00  0.00    -0.090 HD
ENDBRANCH   5  18
BRANCH   3  22
ATOM     22  C   LIG d   1      -1.590  74.970 115.592  0.00  0.00     0.382 C 
ATOM     23  O   LIG d   1      -1.211  74.312 116.591  0.00  0.00    -0.241 OA
ATOM     24  O   LIG d   1      -1.196  74.641 114.457  0.00  0.00    -0.241 OA
ENDBRANCH   3  22
TORSDOF 7
ENDMDL
MODEL 5
REMARK VINA RESULT:      -4.9      3.636      5.405
REMARK  7 active torsions:
REMARK  status: ('A' for Active; 'I' for Inactive)
REMARK    1  A    between atoms: C_2  and  C_3 
REMARK    2  A    between atoms: C_3  and  O_6 
REMARK    3  A    between atoms: C_3  and  C_4 
REMARK    4  A    between atoms: C_7  and  O_6 
REMARK    5  A    between atoms: C_9  and  C_10 
REMARK    6  A    between atoms: N_15  and  C_14 
REMARK    7  A    between atoms: N_20  and  C_19 
REMARK       I    between atoms: C_22  and  N_20 
ROOT
ATOM      1  C   LIG d   1      -4.453  76.719 117.233  0.00  0.00     0.161 C 
ATOM      2  C   LIG d   1      -5.247  77.877 117.210  0.00  0.00     0.016 C 
ATOM      3  C   LIG d   1      -4.768  79.141 116.796  0.00  0.00     0.038 C 
ATOM      4  C   LIG d   1      -3.494  79.302 116.229  0.00  0.00     0.028 C 
ATOM      5  C   LIG d   1      -2.485  78.260 116.701  0.00  0.00    -0.047 C 
ATOM      6  C   LIG d   1      -3.094  76.851 116.514  0.00  0.00     0.091 C 
ENDROOT
BRANCH   1   7
ATOM      7  O   LIG d   1      -5.196  75.606 116.698  0.00  0.00    -0.368 OA
BRANCH   7   8
ATOM      8  C   LIG d   1      -4.947  75.282 115.308  0.00  0.00     0.119 C 
BRANCH   8   9
ATOM      9  C   LIG d   1      -5.998  76.028 114.464  0.00  0.00     0.028 C 
ATOM     10  C   LIG d   1      -5.494  76.344 113.045  0.00  0.00     0.006 C 
ENDBRANCH   8   9
BRANCH   8  11
ATOM     11  C   LIG d   1      -5.185  73.795 115.031  0.00  0.00     0.028 C 
ATOM     12  C   LIG d   1      -6.039  73.116 116.114  0.00  0.00     0.006 C 
ENDBRANCH   8  11
ENDBRANCH   7   8
ENDBRANCH   1   7
BRANCH   6  13
ATOM     13  N   LIG d   1      -2.205  75.777 117.029  0.00  0.00    -0.311 N 
ATOM     14  C   LIG d   1      -1.555  74.923 116.241  0.00  0.00     0.210 C 
ATOM     15  C   LIG d   1      -0.708  73.880 116.978  0.00  0.00     0.109 C 
ATOM     16  O   LIG d   1      -1.574  74.950 115.002  0.00  0.00    -0.276 OA
ATOM     17  H   LIG d   1      -2.108  75.703 118.023  0.00  0.00     0.149 HD
ENDBRANCH   6  13
BRANCH   5  18
ATOM     18  N   LIG d   1      -1.244  78.461 115.930  0.00  0.00     0.381 N 
ATOM     19  H   LIG d   1      -0.452  78.376 116.536  0.00  0.00    -0.090 HD
ATOM     20  H   LIG d   1      -1.248  79.388 115.543  0.00  0.00    -0.090 HD
ATOM     21  H   LIG d   1      -1.185  77.787 115.198  0.00  0.00    -0.090 HD
ENDBRANCH   5  18
BRANCH   3  22
ATOM     22  C   LIG d   1      -5.552  80.269 116.984  0.00  0.00     0.382 C 
ATOM     23  O   LIG d   1      -6.794  80.153 117.118  0.00  0.00    -0.241 OA
ATOM     24  O   LIG d   1      -5.039  81.404 116.976  0.00  0.00    -0.241 OA
ENDBRANCH   3  22
TORSDOF 7
ENDMDL
MODEL 6
REMARK VINA RESULT:      -4.8      3.300      5.159
REMARK  7 active torsions:
REMARK  status: ('A' for Active; 'I' for Inactive)
REMARK    1  A    between atoms: C_2  and  C_3 
REMARK    2  A    between atoms: C_3  and  O_6 
REMARK    3  A    between atoms: C_3  and  C_4 
REMARK    4  A    between atoms: C_7  and  O_6 
REMARK    5  A    between atoms: C_9  and  C_10 
REMARK    6  A    between atoms: N_15  and  C_14 
REMARK    7  A    between atoms: N_20  and  C_19 
REMARK       I    between atoms: C_22  and  N_20 
ROOT
ATOM      1  C   LIG d   1      -2.609  77.039 116.600  0.00  0.00     0.161 C 
ATOM      2  C   LIG d   1      -1.459  77.767 116.947  0.00  0.00     0.016 C 
ATOM      3  C   LIG d   1      -0.211  77.163 117.226  0.00  0.00     0.038 C 
ATOM      4  C   LIG d   1       0.010  75.792 117.027  0.00  0.00     0.028 C 
ATOM      5  C   LIG d   1      -1.253  74.949 117.164  0.00  0.00    -0.047 C 
ATOM      6  C   LIG d   1      -2.359  75.553 116.270  0.00  0.00     0.091 C 
ENDROOT
BRANCH   1   7
ATOM      7  O   LIG d   1      -3.286  77.689 115.505  0.00  0.00    -0.368 OA
BRANCH   7   8
ATOM      8  C   LIG d   1      -2.447  78.131 114.410  0.00  0.00     0.119 C 
BRANCH   8   9
ATOM      9  C   LIG d   1      -2.572  79.664 114.321  0.00  0.00     0.028 C 
ATOM     10  C   LIG d   1      -1.225  80.376 114.536  0.00  0.00     0.006 C 
ENDBRANCH   8   9
BRANCH   8  11
ATOM     11  C   LIG d   1      -2.961  77.604 113.067  0.00  0.00     0.028 C 
ATOM     12  C   LIG d   1      -2.204  78.194 111.866  0.00  0.00     0.006 C 
ENDBRANCH   8  11
ENDBRANCH   7   8
ENDBRANCH   1   7
BRANCH   6  13
ATOM     13  N   LIG d   1      -3.655  74.837 116.409  0.00  0.00    -0.311 N 
ATOM     14  C   LIG d   1      -4.406  74.472 115.372  0.00  0.00     0.210 C 
ATOM     15  C   LIG d   1      -5.713  73.763 115.738  0.00  0.00     0.109 C 
ATOM     16  O   LIG d   1      -4.098  74.639 114.182  0.00  0.00    -0.276 OA
ATOM     17  H   LIG d   1      -3.965  74.634 117.339  0.00  0.00     0.149 HD
ENDBRANCH   6  13
BRANCH   5  18
ATOM     18  N   LIG d   1      -0.905  73.563 116.798  0.00  0.00     0.381 N 
ATOM     19  H   LIG d   1       0.027  73.357 117.096  0.00  0.00    -0.090 HD
ATOM     20  H   LIG d   1      -0.944  73.472 115.798  0.00  0.00    -0.090 HD
ATOM     21  H   LIG d   1      -1.545  72.927 117.221  0.00  0.00    -0.090 HD
ENDBRANCH   5  18
BRANCH   3  22
ATOM     22  C   LIG d   1       0.821  77.928 117.747  0.00  0.00     0.382 C 
ATOM     23  O   LIG d   1       1.915  77.388 118.042  0.00  0.00    -0.241 OA
ATOM     24  O   LIG d   1       0.658  79.143 117.967  0.00  0.00    -0.241 OA
ENDBRANCH   3  22
TORSDOF 7
ENDMDL
MODEL 7
REMARK VINA RESULT:      -4.7      2.638      4.781
REMARK  7 active torsions:
REMARK  status: ('A' for Active; 'I' for Inactive)
REMARK    1  A    between atoms: C_2  and  C_3 
REMARK    2  A    between atoms: C_3  and  O_6 
REMARK    3  A    between atoms: C_3  and  C_4 
REMARK    4  A    between atoms: C_7  and  O_6 
REMARK    5  A    between atoms: C_9  and  C_10 
REMARK    6  A    between atoms: N_15  and  C_14 
REMARK    7  A    between atoms: N_20  and  C_19 
REMARK       I    between atoms: C_22  and  N_20 
ROOT
ATOM      1  C   LIG d   1      -2.836  78.643 115.282  0.00  0.00     0.161 C 
ATOM      2  C   LIG d   1      -1.555  78.984 115.746  0.00  0.00     0.016 C 
ATOM      3  C   LIG d   1      -0.662  78.051 116.321  0.00  0.00     0.038 C 
ATOM      4  C   LIG d   1      -0.933  76.675 116.332  0.00  0.00     0.028 C 
ATOM      5  C   LIG d   1      -2.423  76.351 116.334  0.00  0.00    -0.047 C 
ATOM      6  C   LIG d   1      -3.107  77.127 115.184  0.00  0.00     0.091 C 
ENDROOT
BRANCH   1   7
ATOM      7  O   LIG d   1      -3.081  79.278 114.011  0.00  0.00    -0.368 OA
BRANCH   7   8
ATOM      8  C   LIG d   1      -1.917  79.804 113.327  0.00  0.00     0.119 C 
BRANCH   8   9
ATOM      9  C   LIG d   1      -2.229  81.262 112.938  0.00  0.00     0.028 C 
ATOM     10  C   LIG d   1      -0.987  82.012 112.428  0.00  0.00     0.006 C 
ENDBRANCH   8   9
BRANCH   8  11
ATOM     11  C   LIG d   1      -1.671  79.075 112.003  0.00  0.00     0.028 C 
ATOM     12  C   LIG d   1      -2.842  78.165 111.599  0.00  0.00     0.006 C 
ENDBRANCH   8  11
ENDBRANCH   7   8
ENDBRANCH   1   7
BRANCH   6  13
ATOM     13  N   LIG d   1      -4.580  76.933 115.167  0.00  0.00    -0.311 N 
ATOM     14  C   LIG d   1      -5.220  76.269 114.206  0.00  0.00     0.210 C 
ATOM     15  C   LIG d   1      -6.742  76.203 114.370  0.00  0.00     0.109 C 
ATOM     16  O   LIG d   1      -4.670  75.701 113.251  0.00  0.00    -0.276 OA
ATOM     17  H   LIG d   1      -5.102  77.335 115.921  0.00  0.00     0.149 HD
ENDBRANCH   6  13
BRANCH   5  18
ATOM     18  N   LIG d   1      -2.562  74.888 116.207  0.00  0.00     0.381 N 
ATOM     19  H   LIG d   1      -2.036  74.565 115.419  0.00  0.00    -0.090 HD
ATOM     20  H   LIG d   1      -3.530  74.666 116.052  0.00  0.00    -0.090 HD
ATOM     21  H   LIG d   1      -2.240  74.442 117.037  0.00  0.00    -0.090 HD
ENDBRANCH   5  18
BRANCH   3  22
ATOM     22  C   LIG d   1       0.502  78.498 116.928  0.00  0.00     0.382 C 
ATOM     23  O   LIG d   1       0.642  79.716 117.193  0.00  0.00    -0.241 OA
ATOM     24  O   LIG d   1       1.430  77.705 117.175  0.00  0.00    -0.241 OA
ENDBRANCH   3  22
TORSDOF 7
ENDMDL
MODEL 8
REMARK VINA RESULT:      -4.6     14.059     15.974
REMARK  7 active torsions:
REMARK  status: ('A' for Active; 'I' for Inactive)
REMARK    1  A    between atoms: C_2  and  C_3 
REMARK    2  A    between atoms: C_3  and  O_6 
REMARK    3  A    between atoms: C_3  and  C_4 
REMARK    4  A    between atoms: C_7  and  O_6 
REMARK    5  A    between atoms: C_9  and  C_10 
REMARK    6  A    between atoms: N_15  and  C_14 
REMARK    7  A    between atoms: N_20  and  C_19 
REMARK       I    between atoms: C_22  and  N_20 
ROOT
ATOM      1  C   LIG d   1      11.618  76.179 114.843  0.00  0.00     0.161 C 
ATOM      2  C   LIG d   1      10.275  76.585 114.912  0.00  0.00     0.016 C 
ATOM      3  C   LIG d   1       9.860  77.930 114.772  0.00  0.00     0.038 C 
ATOM      4  C   LIG d   1      10.753  78.946 114.399  0.00  0.00     0.028 C 
ATOM      5  C   LIG d   1      12.194  78.668 114.815  0.00  0.00    -0.047 C 
ATOM      6  C   LIG d   1      12.594  77.257 114.327  0.00  0.00     0.091 C 
ENDROOT
BRANCH   1   7
ATOM      7  O   LIG d   1      11.726  74.983 114.047  0.00  0.00    -0.368 OA
BRANCH   7   8
ATOM      8  C   LIG d   1      12.136  73.784 114.749  0.00  0.00     0.119 C 
BRANCH   8   9
ATOM      9  C   LIG d   1      13.495  73.349 114.169  0.00  0.00     0.028 C 
ATOM     10  C   LIG d   1      14.606  73.322 115.232  0.00  0.00     0.006 C 
ENDBRANCH   8   9
BRANCH   8  11
ATOM     11  C   LIG d   1      11.182  72.619 114.467  0.00  0.00     0.028 C 
ATOM     12  C   LIG d   1      11.485  71.380 115.325  0.00  0.00     0.006 C 
ENDBRANCH   8  11
ENDBRANCH   7   8
ENDBRANCH   1   7
BRANCH   6  13
ATOM     13  N   LIG d   1      13.961  76.872 114.765  0.00  0.00    -0.311 N 
ATOM     14  C   LIG d   1      15.050  77.069 114.024  0.00  0.00     0.210 C 
ATOM     15  C   LIG d   1      16.358  76.580 114.655  0.00  0.00     0.109 C 
ATOM     16  O   LIG d   1      15.062  77.630 112.919  0.00  0.00    -0.276 OA
ATOM     17  H   LIG d   1      14.047  76.439 115.663  0.00  0.00     0.149 HD
ENDBRANCH   6  13
BRANCH   5  18
ATOM     18  N   LIG d   1      13.036  79.737 114.245  0.00  0.00     0.381 N 
ATOM     19  H   LIG d   1      12.457  80.472 113.890  0.00  0.00    -0.090 HD
ATOM     20  H   LIG d   1      13.569  79.359 113.482  0.00  0.00    -0.090 HD
ATOM     21  H   LIG d   1      13.650  80.096 114.943  0.00  0.00    -0.090 HD
ENDBRANCH   5  18
BRANCH   3  22
ATOM     22  C   LIG d   1       8.545  78.276 115.044  0.00  0.00     0.382 C 
ATOM     23  O   LIG d   1       7.611  77.517 114.688  0.00  0.00    -0.241 OA
ATOM     24  O   LIG d   1       8.279  79.358 115.600  0.00  0.00    -0.241 OA
ENDBRANCH   3  22
TORSDOF 7
ENDMDL
MODEL 9
REMARK VINA RESULT:      -4.5      2.078      4.980
REMARK  7 active torsions:
REMARK  status: ('A' for Active; 'I' for Inactive)
REMARK    1  A    between atoms: C_2  and  C_3 
REMARK    2  A    between atoms: C_3  and  O_6 
REMARK    3  A    between atoms: C_3  and  C_4 
REMARK    4  A    between atoms: C_7  and  O_6 
REMARK    5  A    between atoms: C_9  and  C_10 
REMARK    6  A    between atoms: N_15  and  C_14 
REMARK    7  A    between atoms: N_20  and  C_19 
REMARK       I    between atoms: C_22  and  N_20 
ROOT
ATOM      1  C   LIG d   1      -2.150  79.508 114.958  0.00  0.00     0.161 C 
ATOM      2  C   LIG d   1      -3.113  78.583 115.394  0.00  0.00     0.016 C 
ATOM      3  C   LIG d   1      -3.579  77.511 114.598  0.00  0.00     0.038 C 
ATOM      4  C   LIG d   1      -2.999  77.201 113.359  0.00  0.00     0.028 C 
ATOM      5  C   LIG d   1      -2.375  78.406 112.663  0.00  0.00    -0.047 C 
ATOM      6  C   LIG d   1      -1.425  79.120 113.652  0.00  0.00     0.091 C 
ENDROOT
BRANCH   1   7
ATOM      7  O   LIG d   1      -1.194  79.750 116.009  0.00  0.00    -0.368 OA
BRANCH   7   8
ATOM      8  C   LIG d   1      -1.508  79.174 117.301  0.00  0.00     0.119 C 
BRANCH   8   9
ATOM      9  C   LIG d   1      -1.642  80.335 118.305  0.00  0.00     0.028 C 
ATOM     10  C   LIG d   1      -3.049  80.957 118.298  0.00  0.00     0.006 C 
ENDBRANCH   8   9
BRANCH   8  11
ATOM     11  C   LIG d   1      -0.351  78.317 117.824  0.00  0.00     0.028 C 
ATOM     12  C   LIG d   1       0.234  77.386 116.751  0.00  0.00     0.006 C 
ENDBRANCH   8  11
ENDBRANCH   7   8
ENDBRANCH   1   7
BRANCH   6  13
ATOM     13  N   LIG d   1      -0.838  80.359 113.079  0.00  0.00    -0.311 N 
ATOM     14  C   LIG d   1      -1.568  81.349 112.569  0.00  0.00     0.210 C 
ATOM     15  C   LIG d   1      -0.762  82.527 112.012  0.00  0.00     0.109 C 
ATOM     16  O   LIG d   1      -2.808  81.378 112.554  0.00  0.00    -0.276 OA
ATOM     17  H   LIG d   1       0.161  80.432 113.079  0.00  0.00     0.149 HD
ENDBRANCH   6  13
BRANCH   5  18
ATOM     18  N   LIG d   1      -1.688  77.916 111.453  0.00  0.00     0.381 N 
ATOM     19  H   LIG d   1      -0.868  77.406 111.713  0.00  0.00    -0.090 HD
ATOM     20  H   LIG d   1      -1.407  78.705 110.897  0.00  0.00    -0.090 HD
ATOM     21  H   LIG d   1      -2.300  77.331 110.928  0.00  0.00    -0.090 HD
ENDBRANCH   5  18
BRANCH   3  22
ATOM     22  C   LIG d   1      -4.665  76.761 115.023  0.00  0.00     0.382 C 
ATOM     23  O   LIG d   1      -5.640  77.326 115.574  0.00  0.00    -0.241 OA
ATOM     24  O   LIG d   1      -4.662  75.521 114.903  0.00  0.00    -0.241 OA
ENDBRANCH   3  22
TORSDOF 7
ENDMDL
