MODEL 1
REMARK VINA RESULT:      -5.6      0.000      0.000
REMARK  7 active torsions:
REMARK  status: ('A' for Active; 'I' for Inactive)
REMARK    1  A    between atoms: C_2  and  C_3 
REMARK    2  A    between atoms: C_3  and  O_6 
REMARK    3  A    between atoms: C_3  and  C_4 
REMARK    4  A    between atoms: C_7  and  O_6 
REMARK    5  A    between atoms: C_9  and  C_10 
REMARK    6  A    between atoms: N_15  and  C_14 
REMARK    7  A    between atoms: N_20  and  C_19 
REMARK       I    between atoms: C_22  and  N_20 
ROOT
ATOM      1  C   LIG d   1      -0.059  82.395 111.792  0.00  0.00     0.161 C 
ATOM      2  C   LIG d   1      -1.174  81.625 112.160  0.00  0.00     0.016 C 
ATOM      3  C   LIG d   1      -1.270  80.233 111.927  0.00  0.00     0.038 C 
ATOM      4  C   LIG d   1      -0.186  79.486 111.442  0.00  0.00     0.028 C 
ATOM      5  C   LIG d   1       0.778  80.302 110.588  0.00  0.00    -0.047 C 
ATOM      6  C   LIG d   1       1.178  81.578 111.363  0.00  0.00     0.091 C 
ENDROOT
BRANCH   1   7
ATOM      7  O   LIG d   1       0.284  83.300 112.860  0.00  0.00    -0.368 OA
BRANCH   7   8
ATOM      8  C   LIG d   1      -0.130  84.678 112.685  0.00  0.00     0.119 C 
BRANCH   8   9
ATOM      9  C   LIG d   1      -0.525  84.859 111.207  0.00  0.00     0.028 C 
ATOM     10  C   LIG d   1      -0.930  86.306 110.880  0.00  0.00     0.006 C 
ENDBRANCH   8   9
BRANCH   8  11
ATOM     11  C   LIG d   1       1.038  85.643 112.914  0.00  0.00     0.028 C 
ATOM     12  C   LIG d   1       0.908  86.434 114.225  0.00  0.00     0.006 C 
ENDBRANCH   8  11
ENDBRANCH   7   8
ENDBRANCH   1   7
BRANCH   6  13
ATOM     13  N   LIG d   1       2.054  82.475 110.565  0.00  0.00    -0.311 N 
ATOM     14  C   LIG d   1       3.177  83.014 111.038  0.00  0.00     0.210 C 
ATOM     15  C   LIG d   1       3.920  83.925 110.055  0.00  0.00     0.109 C 
ATOM     16  O   LIG d   1       3.644  82.798 112.166  0.00  0.00    -0.276 OA
ATOM     17  H   LIG d   1       1.766  82.678 109.628  0.00  0.00     0.149 HD
ENDBRANCH   6  13
BRANCH   5  18
ATOM     18  N   LIG d   1       1.928  79.437 110.265  0.00  0.00     0.381 N 
ATOM     19  H   LIG d   1       1.686  78.479 110.419  0.00  0.00    -0.090 HD
ATOM     20  H   LIG d   1       2.692  79.671 110.875  0.00  0.00    -0.090 HD
ATOM     21  H   LIG d   1       2.199  79.570 109.316  0.00  0.00    -0.090 HD
ENDBRANCH   5  18
BRANCH   3  22
ATOM     22  C   LIG d   1      -2.475  79.582 112.142  0.00  0.00     0.382 C 
ATOM     23  O   LIG d   1      -2.660  78.434 111.672  0.00  0.00    -0.241 OA
ATOM     24  O   LIG d   1      -3.396  80.146 112.763  0.00  0.00    -0.241 OA
ENDBRANCH   3  22
TORSDOF 7
ENDMDL
MODEL 2
REMARK VINA RESULT:      -5.4      4.009      7.468
REMARK  7 active torsions:
REMARK  status: ('A' for Active; 'I' for Inactive)
REMARK    1  A    between atoms: C_2  and  C_3 
REMARK    2  A    between atoms: C_3  and  O_6 
REMARK    3  A    between atoms: C_3  and  C_4 
REMARK    4  A    between atoms: C_7  and  O_6 
REMARK    5  A    between atoms: C_9  and  C_10 
REMARK    6  A    between atoms: N_15  and  C_14 
REMARK    7  A    between atoms: N_20  and  C_19 
REMARK       I    between atoms: C_22  and  N_20 
ROOT
ATOM      1  C   LIG d   1       2.769  86.725 113.065  0.00  0.00     0.161 C 
ATOM      2  C   LIG d   1       3.275  88.032 113.156  0.00  0.00     0.016 C 
ATOM      3  C   LIG d   1       4.164  88.453 114.173  0.00  0.00     0.038 C 
ATOM      4  C   LIG d   1       4.728  87.549 115.085  0.00  0.00     0.028 C 
ATOM      5  C   LIG d   1       3.857  86.324 115.342  0.00  0.00    -0.047 C 
ATOM      6  C   LIG d   1       3.461  85.698 113.986  0.00  0.00     0.091 C 
ENDROOT
BRANCH   1   7
ATOM      7  O   LIG d   1       2.813  86.279 111.695  0.00  0.00    -0.368 OA
BRANCH   7   8
ATOM      8  C   LIG d   1       1.604  86.477 110.921  0.00  0.00     0.119 C 
BRANCH   8   9
ATOM      9  C   LIG d   1       0.433  86.600 111.916  0.00  0.00     0.028 C 
ATOM     10  C   LIG d   1      -0.937  86.496 111.225  0.00  0.00     0.006 C 
ENDBRANCH   8   9
BRANCH   8  11
ATOM     11  C   LIG d   1       1.282  85.247 110.067  0.00  0.00     0.028 C 
ATOM     12  C   LIG d   1       2.420  84.214 110.056  0.00  0.00     0.006 C 
ENDBRANCH   8  11
ENDBRANCH   7   8
ENDBRANCH   1   7
BRANCH   6  13
ATOM     13  N   LIG d   1       2.539  84.542 114.143  0.00  0.00    -0.311 N 
ATOM     14  C   LIG d   1       2.735  83.363 113.556  0.00  0.00     0.210 C 
ATOM     15  C   LIG d   1       1.653  82.315 113.834  0.00  0.00     0.109 C 
ATOM     16  O   LIG d   1       3.718  83.075 112.858  0.00  0.00    -0.276 OA
ATOM     17  H   LIG d   1       1.730  84.679 114.718  0.00  0.00     0.149 HD
ENDBRANCH   6  13
BRANCH   5  18
ATOM     18  N   LIG d   1       4.625  85.404 116.201  0.00  0.00     0.381 N 
ATOM     19  H   LIG d   1       4.144  85.269 117.068  0.00  0.00    -0.090 HD
ATOM     20  H   LIG d   1       5.521  85.814 116.398  0.00  0.00    -0.090 HD
ATOM     21  H   LIG d   1       4.746  84.528 115.741  0.00  0.00    -0.090 HD
ENDBRANCH   5  18
BRANCH   3  22
ATOM     22  C   LIG d   1       4.464  89.800 114.308  0.00  0.00     0.382 C 
ATOM     23  O   LIG d   1       5.146  90.195 115.285  0.00  0.00    -0.241 OA
ATOM     24  O   LIG d   1       4.026  90.630 113.490  0.00  0.00    -0.241 OA
ENDBRANCH   3  22
TORSDOF 7
ENDMDL
MODEL 3
REMARK VINA RESULT:      -5.3      5.839      8.400
REMARK  7 active torsions:
REMARK  status: ('A' for Active; 'I' for Inactive)
REMARK    1  A    between atoms: C_2  and  C_3 
REMARK    2  A    between atoms: C_3  and  O_6 
REMARK    3  A    between atoms: C_3  and  C_4 
REMARK    4  A    between atoms: C_7  and  O_6 
REMARK    5  A    between atoms: C_9  and  C_10 
REMARK    6  A    between atoms: N_15  and  C_14 
REMARK    7  A    between atoms: N_20  and  C_19 
REMARK       I    between atoms: C_22  and  N_20 
ROOT
ATOM      1  C   LIG d   1      -3.364  76.682 114.734  0.00  0.00     0.161 C 
ATOM      2  C   LIG d   1      -3.090  75.797 115.790  0.00  0.00     0.016 C 
ATOM      3  C   LIG d   1      -1.928  75.877 116.591  0.00  0.00     0.038 C 
ATOM      4  C   LIG d   1      -1.027  76.948 116.485  0.00  0.00     0.028 C 
ATOM      5  C   LIG d   1      -1.001  77.583 115.099  0.00  0.00    -0.047 C 
ATOM      6  C   LIG d   1      -2.448  77.922 114.675  0.00  0.00     0.091 C 
ENDROOT
BRANCH   1   7
ATOM      7  O   LIG d   1      -4.748  77.082 114.778  0.00  0.00    -0.368 OA
BRANCH   7   8
ATOM      8  C   LIG d   1      -5.542  76.514 115.848  0.00  0.00     0.119 C 
BRANCH   8   9
ATOM      9  C   LIG d   1      -6.720  75.761 115.201  0.00  0.00     0.028 C 
ATOM     10  C   LIG d   1      -7.991  75.805 116.066  0.00  0.00     0.006 C 
ENDBRANCH   8   9
BRANCH   8  11
ATOM     11  C   LIG d   1      -6.183  77.608 116.707  0.00  0.00     0.028 C 
ATOM     12  C   LIG d   1      -5.176  78.679 117.157  0.00  0.00     0.006 C 
ENDBRANCH   8  11
ENDBRANCH   7   8
ENDBRANCH   1   7
BRANCH   6  13
ATOM     13  N   LIG d   1      -2.521  78.470 113.295  0.00  0.00    -0.311 N 
ATOM     14  C   LIG d   1      -2.016  77.848 112.232  0.00  0.00     0.210 C 
ATOM     15  C   LIG d   1      -2.181  78.596 110.905  0.00  0.00     0.109 C 
ATOM     16  O   LIG d   1      -1.475  76.732 112.256  0.00  0.00    -0.276 OA
ATOM     17  H   LIG d   1      -2.971  79.357 113.180  0.00  0.00     0.149 HD
ENDBRANCH   6  13
BRANCH   5  18
ATOM     18  N   LIG d   1      -0.125  78.768 115.168  0.00  0.00     0.381 N 
ATOM     19  H   LIG d   1       0.823  78.498 114.999  0.00  0.00    -0.090 HD
ATOM     20  H   LIG d   1      -0.182  79.161 116.091  0.00  0.00    -0.090 HD
ATOM     21  H   LIG d   1      -0.412  79.443 114.493  0.00  0.00    -0.090 HD
ENDBRANCH   5  18
BRANCH   3  22
ATOM     22  C   LIG d   1      -1.636  74.857 117.483  0.00  0.00     0.382 C 
ATOM     23  O   LIG d   1      -0.541  74.853 118.094  0.00  0.00    -0.241 OA
ATOM     24  O   LIG d   1      -2.437  73.918 117.652  0.00  0.00    -0.241 OA
ENDBRANCH   3  22
TORSDOF 7
ENDMDL
MODEL 4
REMARK VINA RESULT:      -5.2      2.754      5.775
REMARK  7 active torsions:
REMARK  status: ('A' for Active; 'I' for Inactive)
REMARK    1  A    between atoms: C_2  and  C_3 
REMARK    2  A    between atoms: C_3  and  O_6 
REMARK    3  A    between atoms: C_3  and  C_4 
REMARK    4  A    between atoms: C_7  and  O_6 
REMARK    5  A    between atoms: C_9  and  C_10 
REMARK    6  A    between atoms: N_15  and  C_14 
REMARK    7  A    between atoms: N_20  and  C_19 
REMARK       I    between atoms: C_22  and  N_20 
ROOT
ATOM      1  C   LIG d   1       2.696  82.774 111.844  0.00  0.00     0.161 C 
ATOM      2  C   LIG d   1       3.166  84.092 111.971  0.00  0.00     0.016 C 
ATOM      3  C   LIG d   1       2.400  85.228 111.623  0.00  0.00     0.038 C 
ATOM      4  C   LIG d   1       1.048  85.129 111.264  0.00  0.00     0.028 C 
ATOM      5  C   LIG d   1       0.684  83.788 110.638  0.00  0.00    -0.047 C 
ATOM      6  C   LIG d   1       1.184  82.652 111.559  0.00  0.00     0.091 C 
ENDROOT
BRANCH   1   7
ATOM      7  O   LIG d   1       3.048  82.014 113.017  0.00  0.00    -0.368 OA
BRANCH   7   8
ATOM      8  C   LIG d   1       2.150  82.134 114.147  0.00  0.00     0.119 C 
BRANCH   8   9
ATOM      9  C   LIG d   1       2.725  83.215 115.083  0.00  0.00     0.028 C 
ATOM     10  C   LIG d   1       1.695  84.306 115.422  0.00  0.00     0.006 C 
ENDBRANCH   8   9
BRANCH   8  11
ATOM     11  C   LIG d   1       2.126  80.849 114.979  0.00  0.00     0.028 C 
ATOM     12  C   LIG d   1       3.204  80.829 116.076  0.00  0.00     0.006 C 
ENDBRANCH   8  11
ENDBRANCH   7   8
ENDBRANCH   1   7
BRANCH   6  13
ATOM     13  N   LIG d   1       0.943  81.304 110.980  0.00  0.00    -0.311 N 
ATOM     14  C   LIG d   1      -0.182  80.617 111.166  0.00  0.00     0.210 C 
ATOM     15  C   LIG d   1      -0.217  79.239 110.497  0.00  0.00     0.109 C 
ATOM     16  O   LIG d   1      -1.168  81.030 111.795  0.00  0.00    -0.276 OA
ATOM     17  H   LIG d   1       1.679  80.907 110.429  0.00  0.00     0.149 HD
ENDBRANCH   6  13
BRANCH   5  18
ATOM     18  N   LIG d   1      -0.778  83.770 110.440  0.00  0.00     0.381 N 
ATOM     19  H   LIG d   1      -1.225  83.386 111.248  0.00  0.00    -0.090 HD
ATOM     20  H   LIG d   1      -0.992  83.184 109.652  0.00  0.00    -0.090 HD
ATOM     21  H   LIG d   1      -1.111  84.695 110.276  0.00  0.00    -0.090 HD
ENDBRANCH   5  18
BRANCH   3  22
ATOM     22  C   LIG d   1       3.000  86.478 111.595  0.00  0.00     0.382 C 
ATOM     23  O   LIG d   1       2.291  87.513 111.556  0.00  0.00    -0.241 OA
ATOM     24  O   LIG d   1       4.241  86.583 111.562  0.00  0.00    -0.241 OA
ENDBRANCH   3  22
TORSDOF 7
ENDMDL
MODEL 5
REMARK VINA RESULT:      -5.2      5.694      9.160
REMARK  7 active torsions:
REMARK  status: ('A' for Active; 'I' for Inactive)
REMARK    1  A    between atoms: C_2  and  C_3 
REMARK    2  A    between atoms: C_3  and  O_6 
REMARK    3  A    between atoms: C_3  and  C_4 
REMARK    4  A    between atoms: C_7  and  O_6 
REMARK    5  A    between atoms: C_9  and  C_10 
REMARK    6  A    between atoms: N_15  and  C_14 
REMARK    7  A    between atoms: N_20  and  C_19 
REMARK       I    between atoms: C_22  and  N_20 
ROOT
ATOM      1  C   LIG d   1       3.213  88.334 115.590  0.00  0.00     0.161 C 
ATOM      2  C   LIG d   1       3.329  89.477 116.399  0.00  0.00     0.016 C 
ATOM      3  C   LIG d   1       4.291  90.490 116.182  0.00  0.00     0.038 C 
ATOM      4  C   LIG d   1       5.110  90.503 115.043  0.00  0.00     0.028 C 
ATOM      5  C   LIG d   1       5.374  89.114 114.470  0.00  0.00    -0.047 C 
ATOM      6  C   LIG d   1       4.024  88.386 114.278  0.00  0.00     0.091 C 
ENDROOT
BRANCH   1   7
ATOM      7  O   LIG d   1       1.824  88.072 115.310  0.00  0.00    -0.368 OA
BRANCH   7   8
ATOM      8  C   LIG d   1       1.228  86.962 116.026  0.00  0.00     0.119 C 
BRANCH   8   9
ATOM      9  C   LIG d   1       1.061  85.803 115.024  0.00  0.00     0.028 C 
ATOM     10  C   LIG d   1       0.347  86.240 113.734  0.00  0.00     0.006 C 
ENDBRANCH   8   9
BRANCH   8  11
ATOM     11  C   LIG d   1      -0.190  87.299 116.496  0.00  0.00     0.028 C 
ATOM     12  C   LIG d   1      -0.261  88.624 117.273  0.00  0.00     0.006 C 
ENDBRANCH   8  11
ENDBRANCH   7   8
ENDBRANCH   1   7
BRANCH   6  13
ATOM     13  N   LIG d   1       4.196  86.989 113.801  0.00  0.00    -0.311 N 
ATOM     14  C   LIG d   1       3.739  86.553 112.628  0.00  0.00     0.210 C 
ATOM     15  C   LIG d   1       4.006  85.073 112.339  0.00  0.00     0.109 C 
ATOM     16  O   LIG d   1       3.165  87.260 111.786  0.00  0.00    -0.276 OA
ATOM     17  H   LIG d   1       4.679  86.356 114.408  0.00  0.00     0.149 HD
ENDBRANCH   6  13
BRANCH   5  18
ATOM     18  N   LIG d   1       6.123  89.286 113.211  0.00  0.00     0.381 N 
ATOM     19  H   LIG d   1       6.019  90.224 112.881  0.00  0.00    -0.090 HD
ATOM     20  H   LIG d   1       5.742  88.664 112.519  0.00  0.00    -0.090 HD
ATOM     21  H   LIG d   1       7.087  89.082 113.357  0.00  0.00    -0.090 HD
ENDBRANCH   5  18
BRANCH   3  22
ATOM     22  C   LIG d   1       4.469  91.484 117.132  0.00  0.00     0.382 C 
ATOM     23  O   LIG d   1       3.948  92.612 116.963  0.00  0.00    -0.241 OA
ATOM     24  O   LIG d   1       5.181  91.280 118.134  0.00  0.00    -0.241 OA
ENDBRANCH   3  22
TORSDOF 7
ENDMDL
MODEL 6
REMARK VINA RESULT:      -5.1      3.157      6.566
REMARK  7 active torsions:
REMARK  status: ('A' for Active; 'I' for Inactive)
REMARK    1  A    between atoms: C_2  and  C_3 
REMARK    2  A    between atoms: C_3  and  O_6 
REMARK    3  A    between atoms: C_3  and  C_4 
REMARK    4  A    between atoms: C_7  and  O_6 
REMARK    5  A    between atoms: C_9  and  C_10 
REMARK    6  A    between atoms: N_15  and  C_14 
REMARK    7  A    between atoms: N_20  and  C_19 
REMARK       I    between atoms: C_22  and  N_20 
ROOT
ATOM      1  C   LIG d   1       2.236  84.793 113.343  0.00  0.00     0.161 C 
ATOM      2  C   LIG d   1       2.809  86.042 113.636  0.00  0.00     0.016 C 
ATOM      3  C   LIG d   1       2.650  87.182 112.816  0.00  0.00     0.038 C 
ATOM      4  C   LIG d   1       1.776  87.191 111.719  0.00  0.00     0.028 C 
ATOM      5  C   LIG d   1       1.571  85.814 111.097  0.00  0.00    -0.047 C 
ATOM      6  C   LIG d   1       1.188  84.812 112.210  0.00  0.00     0.091 C 
ENDROOT
BRANCH   1   7
ATOM      7  O   LIG d   1       1.669  84.223 114.540  0.00  0.00    -0.368 OA
BRANCH   7   8
ATOM      8  C   LIG d   1       2.174  84.743 115.794  0.00  0.00     0.119 C 
BRANCH   8   9
ATOM      9  C   LIG d   1       2.913  83.593 116.508  0.00  0.00     0.028 C 
ATOM     10  C   LIG d   1       4.438  83.678 116.332  0.00  0.00     0.006 C 
ENDBRANCH   8   9
BRANCH   8  11
ATOM     11  C   LIG d   1       1.031  85.136 116.735  0.00  0.00     0.028 C 
ATOM     12  C   LIG d   1       0.468  86.534 116.436  0.00  0.00     0.006 C 
ENDBRANCH   8  11
ENDBRANCH   7   8
ENDBRANCH   1   7
BRANCH   6  13
ATOM     13  N   LIG d   1       1.052  83.423 111.701  0.00  0.00    -0.311 N 
ATOM     14  C   LIG d   1      -0.102  82.905 111.282  0.00  0.00     0.210 C 
ATOM     15  C   LIG d   1      -0.025  81.448 110.815  0.00  0.00     0.109 C 
ATOM     16  O   LIG d   1      -1.175  83.525 111.223  0.00  0.00    -0.276 OA
ATOM     17  H   LIG d   1       1.879  82.859 111.684  0.00  0.00     0.149 HD
ENDBRANCH   6  13
BRANCH   5  18
ATOM     18  N   LIG d   1       0.535  85.944 110.055  0.00  0.00     0.381 N 
ATOM     19  H   LIG d   1      -0.012  85.108 110.015  0.00  0.00    -0.090 HD
ATOM     20  H   LIG d   1       0.983  86.072 109.165  0.00  0.00    -0.090 HD
ATOM     21  H   LIG d   1      -0.052  86.724 110.254  0.00  0.00    -0.090 HD
ENDBRANCH   5  18
BRANCH   3  22
ATOM     22  C   LIG d   1       3.401  88.320 113.068  0.00  0.00     0.382 C 
ATOM     23  O   LIG d   1       4.653  88.276 112.985  0.00  0.00    -0.241 OA
ATOM     24  O   LIG d   1       2.847  89.378 113.420  0.00  0.00    -0.241 OA
ENDBRANCH   3  22
TORSDOF 7
ENDMDL
MODEL 7
REMARK VINA RESULT:      -5.1      3.258      4.981
REMARK  7 active torsions:
REMARK  status: ('A' for Active; 'I' for Inactive)
REMARK    1  A    between atoms: C_2  and  C_3 
REMARK    2  A    between atoms: C_3  and  O_6 
REMARK    3  A    between atoms: C_3  and  C_4 
REMARK    4  A    between atoms: C_7  and  O_6 
REMARK    5  A    between atoms: C_9  and  C_10 
REMARK    6  A    between atoms: N_15  and  C_14 
REMARK    7  A    between atoms: N_20  and  C_19 
REMARK       I    between atoms: C_22  and  N_20 
ROOT
ATOM      1  C   LIG d   1       1.855  84.395 113.543  0.00  0.00     0.161 C 
ATOM      2  C   LIG d   1       0.933  83.435 113.094  0.00  0.00     0.016 C 
ATOM      3  C   LIG d   1       0.244  83.533 111.863  0.00  0.00     0.038 C 
ATOM      4  C   LIG d   1       0.546  84.529 110.922  0.00  0.00     0.028 C 
ATOM      5  C   LIG d   1       1.106  85.803 111.547  0.00  0.00    -0.047 C 
ATOM      6  C   LIG d   1       2.280  85.430 112.481  0.00  0.00     0.091 C 
ENDROOT
BRANCH   1   7
ATOM      7  O   LIG d   1       3.014  83.738 114.094  0.00  0.00    -0.368 OA
BRANCH   7   8
ATOM      8  C   LIG d   1       3.190  83.854 115.528  0.00  0.00     0.119 C 
BRANCH   8   9
ATOM      9  C   LIG d   1       4.469  84.678 115.772  0.00  0.00     0.028 C 
ATOM     10  C   LIG d   1       4.191  85.978 116.544  0.00  0.00     0.006 C 
ENDBRANCH   8   9
BRANCH   8  11
ATOM     11  C   LIG d   1       3.458  82.489 116.168  0.00  0.00     0.028 C 
ATOM     12  C   LIG d   1       2.755  81.337 115.433  0.00  0.00     0.006 C 
ENDBRANCH   8  11
ENDBRANCH   7   8
ENDBRANCH   1   7
BRANCH   6  13
ATOM     13  N   LIG d   1       2.831  86.610 113.197  0.00  0.00    -0.311 N 
ATOM     14  C   LIG d   1       3.907  87.279 112.788  0.00  0.00     0.210 C 
ATOM     15  C   LIG d   1       4.318  88.452 113.683  0.00  0.00     0.109 C 
ATOM     16  O   LIG d   1       4.541  87.033 111.751  0.00  0.00    -0.276 OA
ATOM     17  H   LIG d   1       2.359  86.897 114.032  0.00  0.00     0.149 HD
ENDBRANCH   6  13
BRANCH   5  18
ATOM     18  N   LIG d   1       1.505  86.700 110.446  0.00  0.00     0.381 N 
ATOM     19  H   LIG d   1       1.300  87.649 110.692  0.00  0.00    -0.090 HD
ATOM     20  H   LIG d   1       0.974  86.465 109.626  0.00  0.00    -0.090 HD
ATOM     21  H   LIG d   1       2.478  86.600 110.261  0.00  0.00    -0.090 HD
ENDBRANCH   5  18
BRANCH   3  22
ATOM     22  C   LIG d   1      -0.788  82.651 111.581  0.00  0.00     0.382 C 
ATOM     23  O   LIG d   1      -1.875  82.739 112.201  0.00  0.00    -0.241 OA
ATOM     24  O   LIG d   1      -0.630  81.741 110.745  0.00  0.00    -0.241 OA
ENDBRANCH   3  22
TORSDOF 7
ENDMDL
MODEL 8
REMARK VINA RESULT:      -5.1      1.455      2.401
REMARK  7 active torsions:
REMARK  status: ('A' for Active; 'I' for Inactive)
REMARK    1  A    between atoms: C_2  and  C_3 
REMARK    2  A    between atoms: C_3  and  O_6 
REMARK    3  A    between atoms: C_3  and  C_4 
REMARK    4  A    between atoms: C_7  and  O_6 
REMARK    5  A    between atoms: C_9  and  C_10 
REMARK    6  A    between atoms: N_15  and  C_14 
REMARK    7  A    between atoms: N_20  and  C_19 
REMARK       I    between atoms: C_22  and  N_20 
ROOT
ATOM      1  C   LIG d   1       0.544  83.109 111.715  0.00  0.00     0.161 C 
ATOM      2  C   LIG d   1      -0.310  81.995 111.652  0.00  0.00     0.016 C 
ATOM      3  C   LIG d   1       0.125  80.701 111.286  0.00  0.00     0.038 C 
ATOM      4  C   LIG d   1       1.482  80.399 111.102  0.00  0.00     0.028 C 
ATOM      5  C   LIG d   1       2.315  81.598 110.662  0.00  0.00    -0.047 C 
ATOM      6  C   LIG d   1       2.048  82.776 111.626  0.00  0.00     0.091 C 
ENDROOT
BRANCH   1   7
ATOM      7  O   LIG d   1       0.269  83.869 112.908  0.00  0.00    -0.368 OA
BRANCH   7   8
ATOM      8  C   LIG d   1       0.386  85.309 112.787  0.00  0.00     0.119 C 
BRANCH   8   9
ATOM      9  C   LIG d   1       0.698  85.867 114.189  0.00  0.00     0.028 C 
ATOM     10  C   LIG d   1       1.514  84.883 115.044  0.00  0.00     0.006 C 
ENDBRANCH   8   9
BRANCH   8  11
ATOM     11  C   LIG d   1      -0.948  85.944 112.385  0.00  0.00     0.028 C 
ATOM     12  C   LIG d   1      -0.997  86.338 110.900  0.00  0.00     0.006 C 
ENDBRANCH   8  11
ENDBRANCH   7   8
ENDBRANCH   1   7
BRANCH   6  13
ATOM     13  N   LIG d   1       2.760  84.015 111.217  0.00  0.00    -0.311 N 
ATOM     14  C   LIG d   1       3.730  84.575 111.938  0.00  0.00     0.210 C 
ATOM     15  C   LIG d   1       4.316  85.860 111.345  0.00  0.00     0.109 C 
ATOM     16  O   LIG d   1       4.182  84.112 112.996  0.00  0.00    -0.276 OA
ATOM     17  H   LIG d   1       2.478  84.440 110.356  0.00  0.00     0.149 HD
ENDBRANCH   6  13
BRANCH   5  18
ATOM     18  N   LIG d   1       3.728  81.175 110.642  0.00  0.00     0.381 N 
ATOM     19  H   LIG d   1       4.276  81.848 110.143  0.00  0.00    -0.090 HD
ATOM     20  H   LIG d   1       3.798  80.294 110.163  0.00  0.00    -0.090 HD
ATOM     21  H   LIG d   1       4.070  81.083 111.573  0.00  0.00    -0.090 HD
ENDBRANCH   5  18
BRANCH   3  22
ATOM     22  C   LIG d   1      -0.809  79.701 111.061  0.00  0.00     0.382 C 
ATOM     23  O   LIG d   1      -1.948  79.778 111.581  0.00  0.00    -0.241 OA
ATOM     24  O   LIG d   1      -0.512  78.700 110.380  0.00  0.00    -0.241 OA
ENDBRANCH   3  22
TORSDOF 7
ENDMDL
MODEL 9
REMARK VINA RESULT:      -5.0      4.650      7.618
REMARK  7 active torsions:
REMARK  status: ('A' for Active; 'I' for Inactive)
REMARK    1  A    between atoms: C_2  and  C_3 
REMARK    2  A    between atoms: C_3  and  O_6 
REMARK    3  A    between atoms: C_3  and  C_4 
REMARK    4  A    between atoms: C_7  and  O_6 
REMARK    5  A    between atoms: C_9  and  C_10 
REMARK    6  A    between atoms: N_15  and  C_14 
REMARK    7  A    between atoms: N_20  and  C_19 
REMARK       I    between atoms: C_22  and  N_20 
ROOT
ATOM      1  C   LIG d   1       2.976  86.331 113.274  0.00  0.00     0.161 C 
ATOM      2  C   LIG d   1       3.191  87.720 113.268  0.00  0.00     0.016 C 
ATOM      3  C   LIG d   1       3.646  88.442 114.395  0.00  0.00     0.038 C 
ATOM      4  C   LIG d   1       4.064  87.798 115.569  0.00  0.00     0.028 C 
ATOM      5  C   LIG d   1       3.389  86.449 115.793  0.00  0.00    -0.047 C 
ATOM      6  C   LIG d   1       3.533  85.597 114.511  0.00  0.00     0.091 C 
ENDROOT
BRANCH   1   7
ATOM      7  O   LIG d   1       3.505  85.750 112.066  0.00  0.00    -0.368 OA
BRANCH   7   8
ATOM      8  C   LIG d   1       2.552  85.058 111.221  0.00  0.00     0.119 C 
BRANCH   8   9
ATOM      9  C   LIG d   1       3.353  84.292 110.151  0.00  0.00     0.028 C 
ATOM     10  C   LIG d   1       3.667  82.847 110.574  0.00  0.00     0.006 C 
ENDBRANCH   8   9
BRANCH   8  11
ATOM     11  C   LIG d   1       1.677  86.046 110.444  0.00  0.00     0.028 C 
ATOM     12  C   LIG d   1       0.309  85.458 110.064  0.00  0.00     0.006 C 
ENDBRANCH   8  11
ENDBRANCH   7   8
ENDBRANCH   1   7
BRANCH   6  13
ATOM     13  N   LIG d   1       2.827  84.293 114.616  0.00  0.00    -0.311 N 
ATOM     14  C   LIG d   1       3.377  83.202 115.148  0.00  0.00     0.210 C 
ATOM     15  C   LIG d   1       2.483  81.958 115.139  0.00  0.00     0.109 C 
ATOM     16  O   LIG d   1       4.507  83.156 115.656  0.00  0.00    -0.276 OA
ATOM     17  H   LIG d   1       1.894  84.249 114.256  0.00  0.00     0.149 HD
ENDBRANCH   6  13
BRANCH   5  18
ATOM     18  N   LIG d   1       4.017  85.827 116.974  0.00  0.00     0.381 N 
ATOM     19  H   LIG d   1       3.893  84.835 116.941  0.00  0.00    -0.090 HD
ATOM     20  H   LIG d   1       3.566  86.174 117.802  0.00  0.00    -0.090 HD
ATOM     21  H   LIG d   1       4.988  86.047 116.999  0.00  0.00    -0.090 HD
ENDBRANCH   5  18
BRANCH   3  22
ATOM     22  C   LIG d   1       3.647  89.828 114.368  0.00  0.00     0.382 C 
ATOM     23  O   LIG d   1       4.350  90.438 113.526  0.00  0.00    -0.241 OA
ATOM     24  O   LIG d   1       2.990  90.477 115.203  0.00  0.00    -0.241 OA
ENDBRANCH   3  22
TORSDOF 7
ENDMDL
