MODEL 1
REMARK VINA RESULT:      -5.6      0.000      0.000
REMARK  7 active torsions:
REMARK  status: ('A' for Active; 'I' for Inactive)
REMARK    1  A    between atoms: C_2  and  C_3 
REMARK    2  A    between atoms: C_3  and  O_6 
REMARK    3  A    between atoms: C_3  and  C_4 
REMARK    4  A    between atoms: C_7  and  O_6 
REMARK    5  A    between atoms: C_9  and  C_10 
REMARK    6  A    between atoms: N_15  and  C_14 
REMARK    7  A    between atoms: N_20  and  C_19 
REMARK       I    between atoms: C_22  and  N_20 
ROOT
ATOM      1  C   LIG d   1       0.117  82.848 111.311  0.00  0.00     0.161 C 
ATOM      2  C   LIG d   1      -1.134  82.640 111.914  0.00  0.00     0.016 C 
ATOM      3  C   LIG d   1      -1.293  82.084 113.204  0.00  0.00     0.038 C 
ATOM      4  C   LIG d   1      -0.198  81.835 114.045  0.00  0.00     0.028 C 
ATOM      5  C   LIG d   1       1.096  81.558 113.287  0.00  0.00    -0.047 C 
ATOM      6  C   LIG d   1       1.326  82.687 112.256  0.00  0.00     0.091 C 
ENDROOT
BRANCH   1   7
ATOM      7  O   LIG d   1       0.146  84.143 110.678  0.00  0.00    -0.368 OA
BRANCH   7   8
ATOM      8  C   LIG d   1       0.710  85.223 111.462  0.00  0.00     0.119 C 
BRANCH   8   9
ATOM      9  C   LIG d   1      -0.455  86.126 111.912  0.00  0.00     0.028 C 
ATOM     10  C   LIG d   1      -0.779  85.965 113.406  0.00  0.00     0.006 C 
ENDBRANCH   8   9
BRANCH   8  11
ATOM     11  C   LIG d   1       1.612  86.119 110.607  0.00  0.00     0.028 C 
ATOM     12  C   LIG d   1       2.945  86.451 111.295  0.00  0.00     0.006 C 
ENDBRANCH   8  11
ENDBRANCH   7   8
ENDBRANCH   1   7
BRANCH   6  13
ATOM     13  N   LIG d   1       2.527  82.449 111.414  0.00  0.00    -0.311 N 
ATOM     14  C   LIG d   1       3.752  82.846 111.756  0.00  0.00     0.210 C 
ATOM     15  C   LIG d   1       4.846  82.518 110.735  0.00  0.00     0.109 C 
ATOM     16  O   LIG d   1       4.041  83.411 112.821  0.00  0.00    -0.276 OA
ATOM     17  H   LIG d   1       2.388  81.970 110.546  0.00  0.00     0.149 HD
ENDBRANCH   6  13
BRANCH   5  18
ATOM     18  N   LIG d   1       2.181  81.454 114.282  0.00  0.00     0.381 N 
ATOM     19  H   LIG d   1       2.680  82.319 114.331  0.00  0.00    -0.090 HD
ATOM     20  H   LIG d   1       2.821  80.736 113.990  0.00  0.00    -0.090 HD
ATOM     21  H   LIG d   1       1.803  81.229 115.176  0.00  0.00    -0.090 HD
ENDBRANCH   5  18
BRANCH   3  22
ATOM     22  C   LIG d   1      -2.559  81.732 113.650  0.00  0.00     0.382 C 
ATOM     23  O   LIG d   1      -2.719  81.330 114.827  0.00  0.00    -0.241 OA
ATOM     24  O   LIG d   1      -3.534  81.770 112.876  0.00  0.00    -0.241 OA
ENDBRANCH   3  22
TORSDOF 7
ENDMDL
MODEL 2
REMARK VINA RESULT:      -5.3      2.652      3.868
REMARK  7 active torsions:
REMARK  status: ('A' for Active; 'I' for Inactive)
REMARK    1  A    between atoms: C_2  and  C_3 
REMARK    2  A    between atoms: C_3  and  O_6 
REMARK    3  A    between atoms: C_3  and  C_4 
REMARK    4  A    between atoms: C_7  and  O_6 
REMARK    5  A    between atoms: C_9  and  C_10 
REMARK    6  A    between atoms: N_15  and  C_14 
REMARK    7  A    between atoms: N_20  and  C_19 
REMARK       I    between atoms: C_22  and  N_20 
ROOT
ATOM      1  C   LIG d   1       1.949  83.897 113.405  0.00  0.00     0.161 C 
ATOM      2  C   LIG d   1       0.852  83.040 113.217  0.00  0.00     0.016 C 
ATOM      3  C   LIG d   1      -0.467  83.368 113.606  0.00  0.00     0.038 C 
ATOM      4  C   LIG d   1      -0.806  84.646 114.074  0.00  0.00     0.028 C 
ATOM      5  C   LIG d   1       0.353  85.370 114.751  0.00  0.00    -0.047 C 
ATOM      6  C   LIG d   1       1.581  85.339 113.812  0.00  0.00     0.091 C 
ENDROOT
BRANCH   1   7
ATOM      7  O   LIG d   1       2.771  83.906 112.221  0.00  0.00    -0.368 OA
BRANCH   7   8
ATOM      8  C   LIG d   1       2.070  83.789 110.958  0.00  0.00     0.119 C 
BRANCH   8   9
ATOM      9  C   LIG d   1       2.664  82.579 110.210  0.00  0.00     0.028 C 
ATOM     10  C   LIG d   1       4.191  82.677 110.055  0.00  0.00     0.006 C 
ENDBRANCH   8   9
BRANCH   8  11
ATOM     11  C   LIG d   1       2.341  84.996 110.056  0.00  0.00     0.028 C 
ATOM     12  C   LIG d   1       1.287  86.104 110.212  0.00  0.00     0.006 C 
ENDBRANCH   8  11
ENDBRANCH   7   8
ENDBRANCH   1   7
BRANCH   6  13
ATOM     13  N   LIG d   1       2.784  85.953 114.432  0.00  0.00    -0.311 N 
ATOM     14  C   LIG d   1       3.130  87.227 114.258  0.00  0.00     0.210 C 
ATOM     15  C   LIG d   1       4.417  87.651 114.971  0.00  0.00     0.109 C 
ATOM     16  O   LIG d   1       2.475  88.055 113.607  0.00  0.00    -0.276 OA
ATOM     17  H   LIG d   1       3.356  85.361 115.002  0.00  0.00     0.149 HD
ENDBRANCH   6  13
BRANCH   5  18
ATOM     18  N   LIG d   1      -0.100  86.739 115.066  0.00  0.00     0.381 N 
ATOM     19  H   LIG d   1      -0.459  86.770 115.999  0.00  0.00    -0.090 HD
ATOM     20  H   LIG d   1      -0.840  86.990 114.435  0.00  0.00    -0.090 HD
ATOM     21  H   LIG d   1       0.658  87.378 114.972  0.00  0.00    -0.090 HD
ENDBRANCH   5  18
BRANCH   3  22
ATOM     22  C   LIG d   1      -1.457  82.398 113.564  0.00  0.00     0.382 C 
ATOM     23  O   LIG d   1      -1.550  81.558 114.491  0.00  0.00    -0.241 OA
ATOM     24  O   LIG d   1      -2.230  82.325 112.590  0.00  0.00    -0.241 OA
ENDBRANCH   3  22
TORSDOF 7
ENDMDL
MODEL 3
REMARK VINA RESULT:      -5.2      1.968      2.731
REMARK  7 active torsions:
REMARK  status: ('A' for Active; 'I' for Inactive)
REMARK    1  A    between atoms: C_2  and  C_3 
REMARK    2  A    between atoms: C_3  and  O_6 
REMARK    3  A    between atoms: C_3  and  C_4 
REMARK    4  A    between atoms: C_7  and  O_6 
REMARK    5  A    between atoms: C_9  and  C_10 
REMARK    6  A    between atoms: N_15  and  C_14 
REMARK    7  A    between atoms: N_20  and  C_19 
REMARK       I    between atoms: C_22  and  N_20 
ROOT
ATOM      1  C   LIG d   1       0.528  83.102 112.821  0.00  0.00     0.161 C 
ATOM      2  C   LIG d   1      -0.694  82.731 113.407  0.00  0.00     0.016 C 
ATOM      3  C   LIG d   1      -1.396  81.553 113.063  0.00  0.00     0.038 C 
ATOM      4  C   LIG d   1      -0.846  80.584 112.211  0.00  0.00     0.028 C 
ATOM      5  C   LIG d   1       0.153  81.154 111.210  0.00  0.00    -0.047 C 
ATOM      6  C   LIG d   1       1.198  82.002 111.971  0.00  0.00     0.091 C 
ENDROOT
BRANCH   1   7
ATOM      7  O   LIG d   1       1.435  83.572 113.837  0.00  0.00    -0.368 OA
BRANCH   7   8
ATOM      8  C   LIG d   1       1.720  84.992 113.829  0.00  0.00     0.119 C 
BRANCH   8   9
ATOM      9  C   LIG d   1       3.250  85.157 113.738  0.00  0.00     0.028 C 
ATOM     10  C   LIG d   1       3.659  86.502 113.114  0.00  0.00     0.006 C 
ENDBRANCH   8   9
BRANCH   8  11
ATOM     11  C   LIG d   1       1.320  85.648 115.154  0.00  0.00     0.028 C 
ATOM     12  C   LIG d   1      -0.077  86.288 115.104  0.00  0.00     0.006 C 
ENDBRANCH   8  11
ENDBRANCH   7   8
ENDBRANCH   1   7
BRANCH   6  13
ATOM     13  N   LIG d   1       2.164  82.665 111.057  0.00  0.00    -0.311 N 
ATOM     14  C   LIG d   1       3.472  82.416 111.066  0.00  0.00     0.210 C 
ATOM     15  C   LIG d   1       4.292  83.223 110.055  0.00  0.00     0.109 C 
ATOM     16  O   LIG d   1       4.027  81.579 111.794  0.00  0.00    -0.276 OA
ATOM     17  H   LIG d   1       1.794  83.336 110.412  0.00  0.00     0.149 HD
ENDBRANCH   6  13
BRANCH   5  18
ATOM     18  N   LIG d   1       0.750  80.019 110.480  0.00  0.00     0.381 N 
ATOM     19  H   LIG d   1       0.437  80.025 109.530  0.00  0.00    -0.090 HD
ATOM     20  H   LIG d   1       0.445  79.162 110.907  0.00  0.00    -0.090 HD
ATOM     21  H   LIG d   1       1.744  80.079 110.511  0.00  0.00    -0.090 HD
ENDBRANCH   5  18
BRANCH   3  22
ATOM     22  C   LIG d   1      -2.682  81.355 113.542  0.00  0.00     0.382 C 
ATOM     23  O   LIG d   1      -3.401  82.341 113.835  0.00  0.00    -0.241 OA
ATOM     24  O   LIG d   1      -3.117  80.203 113.727  0.00  0.00    -0.241 OA
ENDBRANCH   3  22
TORSDOF 7
ENDMDL
MODEL 4
REMARK VINA RESULT:      -5.1      5.159      7.647
REMARK  7 active torsions:
REMARK  status: ('A' for Active; 'I' for Inactive)
REMARK    1  A    between atoms: C_2  and  C_3 
REMARK    2  A    between atoms: C_3  and  O_6 
REMARK    3  A    between atoms: C_3  and  C_4 
REMARK    4  A    between atoms: C_7  and  O_6 
REMARK    5  A    between atoms: C_9  and  C_10 
REMARK    6  A    between atoms: N_15  and  C_14 
REMARK    7  A    between atoms: N_20  and  C_19 
REMARK       I    between atoms: C_22  and  N_20 
ROOT
ATOM      1  C   LIG d   1       2.813  88.006 114.968  0.00  0.00     0.161 C 
ATOM      2  C   LIG d   1       2.879  89.031 115.926  0.00  0.00     0.016 C 
ATOM      3  C   LIG d   1       3.823  90.082 115.878  0.00  0.00     0.038 C 
ATOM      4  C   LIG d   1       4.675  90.263 114.778  0.00  0.00     0.028 C 
ATOM      5  C   LIG d   1       4.987  88.969 114.034  0.00  0.00    -0.047 C 
ATOM      6  C   LIG d   1       3.661  88.249 113.702  0.00  0.00     0.091 C 
ENDROOT
BRANCH   1   7
ATOM      7  O   LIG d   1       1.439  87.758 114.611  0.00  0.00    -0.368 OA
BRANCH   7   8
ATOM      8  C   LIG d   1       0.849  86.547 115.146  0.00  0.00     0.119 C 
BRANCH   8   9
ATOM      9  C   LIG d   1       0.140  85.825 113.984  0.00  0.00     0.028 C 
ATOM     10  C   LIG d   1       0.718  84.424 113.724  0.00  0.00     0.006 C 
ENDBRANCH   8   9
BRANCH   8  11
ATOM     11  C   LIG d   1      -0.254  86.865 116.159  0.00  0.00     0.028 C 
ATOM     12  C   LIG d   1       0.273  86.976 117.599  0.00  0.00     0.006 C 
ENDBRANCH   8  11
ENDBRANCH   7   8
ENDBRANCH   1   7
BRANCH   6  13
ATOM     13  N   LIG d   1       3.879  86.932 113.048  0.00  0.00    -0.311 N 
ATOM     14  C   LIG d   1       3.284  86.570 111.913  0.00  0.00     0.210 C 
ATOM     15  C   LIG d   1       3.633  85.162 111.420  0.00  0.00     0.109 C 
ATOM     16  O   LIG d   1       2.525  87.293 111.250  0.00  0.00    -0.276 OA
ATOM     17  H   LIG d   1       4.505  86.295 113.501  0.00  0.00     0.149 HD
ENDBRANCH   6  13
BRANCH   5  18
ATOM     18  N   LIG d   1       5.769  89.323 112.834  0.00  0.00     0.381 N 
ATOM     19  H   LIG d   1       6.406  90.064 113.051  0.00  0.00    -0.090 HD
ATOM     20  H   LIG d   1       5.140  89.646 112.120  0.00  0.00    -0.090 HD
ATOM     21  H   LIG d   1       6.273  88.527 112.508  0.00  0.00    -0.090 HD
ENDBRANCH   5  18
BRANCH   3  22
ATOM     22  C   LIG d   1       3.950  90.942 116.958  0.00  0.00     0.382 C 
ATOM     23  O   LIG d   1       3.813  92.179 116.794  0.00  0.00    -0.241 OA
ATOM     24  O   LIG d   1       4.243  90.502 118.086  0.00  0.00    -0.241 OA
ENDBRANCH   3  22
TORSDOF 7
ENDMDL
MODEL 5
REMARK VINA RESULT:      -5.1      5.665      7.965
REMARK  7 active torsions:
REMARK  status: ('A' for Active; 'I' for Inactive)
REMARK    1  A    between atoms: C_2  and  C_3 
REMARK    2  A    between atoms: C_3  and  O_6 
REMARK    3  A    between atoms: C_3  and  C_4 
REMARK    4  A    between atoms: C_7  and  O_6 
REMARK    5  A    between atoms: C_9  and  C_10 
REMARK    6  A    between atoms: N_15  and  C_14 
REMARK    7  A    between atoms: N_20  and  C_19 
REMARK       I    between atoms: C_22  and  N_20 
ROOT
ATOM      1  C   LIG d   1       2.953  88.561 114.948  0.00  0.00     0.161 C 
ATOM      2  C   LIG d   1       2.756  87.652 113.895  0.00  0.00     0.016 C 
ATOM      3  C   LIG d   1       3.652  87.511 112.811  0.00  0.00     0.038 C 
ATOM      4  C   LIG d   1       4.891  88.168 112.782  0.00  0.00     0.028 C 
ATOM      5  C   LIG d   1       4.902  89.474 113.570  0.00  0.00    -0.047 C 
ATOM      6  C   LIG d   1       4.354  89.207 114.991  0.00  0.00     0.091 C 
ENDROOT
BRANCH   1   7
ATOM      7  O   LIG d   1       2.656  87.924 116.206  0.00  0.00    -0.368 OA
BRANCH   7   8
ATOM      8  C   LIG d   1       1.417  88.321 116.845  0.00  0.00     0.119 C 
BRANCH   8   9
ATOM      9  C   LIG d   1       0.321  87.345 116.375  0.00  0.00     0.028 C 
ATOM     10  C   LIG d   1      -0.848  87.252 117.370  0.00  0.00     0.006 C 
ENDBRANCH   8   9
BRANCH   8  11
ATOM     11  C   LIG d   1       0.962  89.703 116.367  0.00  0.00     0.028 C 
ATOM     12  C   LIG d   1       1.034  90.769 117.472  0.00  0.00     0.006 C 
ENDBRANCH   8  11
ENDBRANCH   7   8
ENDBRANCH   1   7
BRANCH   6  13
ATOM     13  N   LIG d   1       4.252  90.449 115.802  0.00  0.00    -0.311 N 
ATOM     14  C   LIG d   1       5.215  90.871 116.619  0.00  0.00     0.210 C 
ATOM     15  C   LIG d   1       4.898  92.165 117.377  0.00  0.00     0.109 C 
ATOM     16  O   LIG d   1       6.314  90.315 116.765  0.00  0.00    -0.276 OA
ATOM     17  H   LIG d   1       3.406  90.978 115.721  0.00  0.00     0.149 HD
ENDBRANCH   6  13
BRANCH   5  18
ATOM     18  N   LIG d   1       6.287  89.982 113.571  0.00  0.00     0.381 N 
ATOM     19  H   LIG d   1       6.593  90.129 114.512  0.00  0.00    -0.090 HD
ATOM     20  H   LIG d   1       6.310  90.864 113.091  0.00  0.00    -0.090 HD
ATOM     21  H   LIG d   1       6.889  89.331 113.117  0.00  0.00    -0.090 HD
ENDBRANCH   5  18
BRANCH   3  22
ATOM     22  C   LIG d   1       3.292  86.735 111.719  0.00  0.00     0.382 C 
ATOM     23  O   LIG d   1       3.895  85.659 111.490  0.00  0.00    -0.241 OA
ATOM     24  O   LIG d   1       2.404  87.120 110.936  0.00  0.00    -0.241 OA
ENDBRANCH   3  22
TORSDOF 7
ENDMDL
MODEL 6
REMARK VINA RESULT:      -5.1      3.301      4.619
REMARK  7 active torsions:
REMARK  status: ('A' for Active; 'I' for Inactive)
REMARK    1  A    between atoms: C_2  and  C_3 
REMARK    2  A    between atoms: C_3  and  O_6 
REMARK    3  A    between atoms: C_3  and  C_4 
REMARK    4  A    between atoms: C_7  and  O_6 
REMARK    5  A    between atoms: C_9  and  C_10 
REMARK    6  A    between atoms: N_15  and  C_14 
REMARK    7  A    between atoms: N_20  and  C_19 
REMARK       I    between atoms: C_22  and  N_20 
ROOT
ATOM      1  C   LIG d   1       1.972  84.899 113.919  0.00  0.00     0.161 C 
ATOM      2  C   LIG d   1       1.169  84.068 113.121  0.00  0.00     0.016 C 
ATOM      3  C   LIG d   1      -0.244  84.131 113.108  0.00  0.00     0.038 C 
ATOM      4  C   LIG d   1      -0.947  85.140 113.784  0.00  0.00     0.028 C 
ATOM      5  C   LIG d   1      -0.206  85.684 115.000  0.00  0.00    -0.047 C 
ATOM      6  C   LIG d   1       1.228  86.079 114.578  0.00  0.00     0.091 C 
ENDROOT
BRANCH   1   7
ATOM      7  O   LIG d   1       3.092  85.380 113.150  0.00  0.00    -0.368 OA
BRANCH   7   8
ATOM      8  C   LIG d   1       2.873  86.598 112.398  0.00  0.00     0.119 C 
BRANCH   8   9
ATOM      9  C   LIG d   1       2.524  86.194 110.952  0.00  0.00     0.028 C 
ATOM     10  C   LIG d   1       3.416  85.055 110.430  0.00  0.00     0.006 C 
ENDBRANCH   8   9
BRANCH   8  11
ATOM     11  C   LIG d   1       4.157  87.425 112.288  0.00  0.00     0.028 C 
ATOM     12  C   LIG d   1       4.687  87.887 113.655  0.00  0.00     0.006 C 
ENDBRANCH   8  11
ENDBRANCH   7   8
ENDBRANCH   1   7
BRANCH   6  13
ATOM     13  N   LIG d   1       2.049  86.543 115.727  0.00  0.00    -0.311 N 
ATOM     14  C   LIG d   1       2.137  87.820 116.097  0.00  0.00     0.210 C 
ATOM     15  C   LIG d   1       3.054  88.084 117.295  0.00  0.00     0.109 C 
ATOM     16  O   LIG d   1       1.517  88.754 115.567  0.00  0.00    -0.276 OA
ATOM     17  H   LIG d   1       2.561  85.847 116.233  0.00  0.00     0.149 HD
ENDBRANCH   6  13
BRANCH   5  18
ATOM     18  N   LIG d   1      -0.987  86.820 115.526  0.00  0.00     0.381 N 
ATOM     19  H   LIG d   1      -1.825  86.483 115.957  0.00  0.00    -0.090 HD
ATOM     20  H   LIG d   1      -1.243  87.420 114.762  0.00  0.00    -0.090 HD
ATOM     21  H   LIG d   1      -0.445  87.328 116.190  0.00  0.00    -0.090 HD
ENDBRANCH   5  18
BRANCH   3  22
ATOM     22  C   LIG d   1      -0.969  83.154 112.444  0.00  0.00     0.382 C 
ATOM     23  O   LIG d   1      -2.003  82.674 112.970  0.00  0.00    -0.241 OA
ATOM     24  O   LIG d   1      -0.579  82.713 111.346  0.00  0.00    -0.241 OA
ENDBRANCH   3  22
TORSDOF 7
ENDMDL
MODEL 7
REMARK VINA RESULT:      -5.0      3.467      5.859
REMARK  7 active torsions:
REMARK  status: ('A' for Active; 'I' for Inactive)
REMARK    1  A    between atoms: C_2  and  C_3 
REMARK    2  A    between atoms: C_3  and  O_6 
REMARK    3  A    between atoms: C_3  and  C_4 
REMARK    4  A    between atoms: C_7  and  O_6 
REMARK    5  A    between atoms: C_9  and  C_10 
REMARK    6  A    between atoms: N_15  and  C_14 
REMARK    7  A    between atoms: N_20  and  C_19 
REMARK       I    between atoms: C_22  and  N_20 
ROOT
ATOM      1  C   LIG d   1       1.983  86.203 113.825  0.00  0.00     0.161 C 
ATOM      2  C   LIG d   1       2.453  87.503 113.571  0.00  0.00     0.016 C 
ATOM      3  C   LIG d   1       3.656  88.014 114.108  0.00  0.00     0.038 C 
ATOM      4  C   LIG d   1       4.554  87.204 114.819  0.00  0.00     0.028 C 
ATOM      5  C   LIG d   1       3.883  86.030 115.525  0.00  0.00    -0.047 C 
ATOM      6  C   LIG d   1       3.004  85.269 114.507  0.00  0.00     0.091 C 
ENDROOT
BRANCH   1   7
ATOM      7  O   LIG d   1       1.500  85.611 112.603  0.00  0.00    -0.368 OA
BRANCH   7   8
ATOM      8  C   LIG d   1       1.236  86.527 111.511  0.00  0.00     0.119 C 
BRANCH   8   9
ATOM      9  C   LIG d   1      -0.281  86.500 111.241  0.00  0.00     0.028 C 
ATOM     10  C   LIG d   1      -0.771  85.117 110.781  0.00  0.00     0.006 C 
ENDBRANCH   8   9
BRANCH   8  11
ATOM     11  C   LIG d   1       1.887  86.047 110.211  0.00  0.00     0.028 C 
ATOM     12  C   LIG d   1       3.128  85.173 110.454  0.00  0.00     0.006 C 
ENDBRANCH   8  11
ENDBRANCH   7   8
ENDBRANCH   1   7
BRANCH   6  13
ATOM     13  N   LIG d   1       2.245  84.155 115.134  0.00  0.00    -0.311 N 
ATOM     14  C   LIG d   1       2.467  82.871 114.860  0.00  0.00     0.210 C 
ATOM     15  C   LIG d   1       1.559  81.885 115.603  0.00  0.00     0.109 C 
ATOM     16  O   LIG d   1       3.352  82.453 114.098  0.00  0.00    -0.276 OA
ATOM     17  H   LIG d   1       1.529  84.403 115.789  0.00  0.00     0.149 HD
ENDBRANCH   6  13
BRANCH   5  18
ATOM     18  N   LIG d   1       4.947  85.194 116.110  0.00  0.00     0.381 N 
ATOM     19  H   LIG d   1       5.369  85.672 116.881  0.00  0.00    -0.090 HD
ATOM     20  H   LIG d   1       5.654  85.034 115.414  0.00  0.00    -0.090 HD
ATOM     21  H   LIG d   1       4.569  84.324 116.415  0.00  0.00    -0.090 HD
ENDBRANCH   5  18
BRANCH   3  22
ATOM     22  C   LIG d   1       3.953  89.362 113.970  0.00  0.00     0.382 C 
ATOM     23  O   LIG d   1       4.496  89.780 112.919  0.00  0.00    -0.241 OA
ATOM     24  O   LIG d   1       3.725  90.157 114.901  0.00  0.00    -0.241 OA
ENDBRANCH   3  22
TORSDOF 7
ENDMDL
MODEL 8
REMARK VINA RESULT:      -4.9      4.894      7.288
REMARK  7 active torsions:
REMARK  status: ('A' for Active; 'I' for Inactive)
REMARK    1  A    between atoms: C_2  and  C_3 
REMARK    2  A    between atoms: C_3  and  O_6 
REMARK    3  A    between atoms: C_3  and  C_4 
REMARK    4  A    between atoms: C_7  and  O_6 
REMARK    5  A    between atoms: C_9  and  C_10 
REMARK    6  A    between atoms: N_15  and  C_14 
REMARK    7  A    between atoms: N_20  and  C_19 
REMARK       I    between atoms: C_22  and  N_20 
ROOT
ATOM      1  C   LIG d   1       2.738  88.300 114.446  0.00  0.00     0.161 C 
ATOM      2  C   LIG d   1       2.505  87.416 113.380  0.00  0.00     0.016 C 
ATOM      3  C   LIG d   1       3.466  87.129 112.382  0.00  0.00     0.038 C 
ATOM      4  C   LIG d   1       4.786  87.595 112.469  0.00  0.00     0.028 C 
ATOM      5  C   LIG d   1       4.919  88.895 113.255  0.00  0.00    -0.047 C 
ATOM      6  C   LIG d   1       4.210  88.732 114.619  0.00  0.00     0.091 C 
ENDROOT
BRANCH   1   7
ATOM      7  O   LIG d   1       2.236  87.732 115.671  0.00  0.00    -0.368 OA
BRANCH   7   8
ATOM      8  C   LIG d   1       1.573  86.449 115.554  0.00  0.00     0.119 C 
BRANCH   8   9
ATOM      9  C   LIG d   1       0.079  86.670 115.858  0.00  0.00     0.028 C 
ATOM     10  C   LIG d   1      -0.837  85.995 114.823  0.00  0.00     0.006 C 
ENDBRANCH   8   9
BRANCH   8  11
ATOM     11  C   LIG d   1       2.064  85.468 116.623  0.00  0.00     0.028 C 
ATOM     12  C   LIG d   1       2.922  84.333 116.041  0.00  0.00     0.006 C 
ENDBRANCH   8  11
ENDBRANCH   7   8
ENDBRANCH   1   7
BRANCH   6  13
ATOM     13  N   LIG d   1       4.220  89.986 115.416  0.00  0.00    -0.311 N 
ATOM     14  C   LIG d   1       5.172  90.286 116.298  0.00  0.00     0.210 C 
ATOM     15  C   LIG d   1       4.981  91.620 117.027  0.00  0.00     0.109 C 
ATOM     16  O   LIG d   1       6.174  89.591 116.521  0.00  0.00    -0.276 OA
ATOM     17  H   LIG d   1       3.460  90.623 115.275  0.00  0.00     0.149 HD
ENDBRANCH   6  13
BRANCH   5  18
ATOM     18  N   LIG d   1       6.358  89.192 113.384  0.00  0.00     0.381 N 
ATOM     19  H   LIG d   1       6.765  89.301 112.476  0.00  0.00    -0.090 HD
ATOM     20  H   LIG d   1       6.810  88.420 113.841  0.00  0.00    -0.090 HD
ATOM     21  H   LIG d   1       6.488  90.025 113.916  0.00  0.00    -0.090 HD
ENDBRANCH   5  18
BRANCH   3  22
ATOM     22  C   LIG d   1       3.097  86.400 111.262  0.00  0.00     0.382 C 
ATOM     23  O   LIG d   1       3.738  85.369 110.946  0.00  0.00    -0.241 OA
ATOM     24  O   LIG d   1       2.159  86.785 110.539  0.00  0.00    -0.241 OA
ENDBRANCH   3  22
TORSDOF 7
ENDMDL
MODEL 9
REMARK VINA RESULT:      -4.7      5.815      8.184
REMARK  7 active torsions:
REMARK  status: ('A' for Active; 'I' for Inactive)
REMARK    1  A    between atoms: C_2  and  C_3 
REMARK    2  A    between atoms: C_3  and  O_6 
REMARK    3  A    between atoms: C_3  and  C_4 
REMARK    4  A    between atoms: C_7  and  O_6 
REMARK    5  A    between atoms: C_9  and  C_10 
REMARK    6  A    between atoms: N_15  and  C_14 
REMARK    7  A    between atoms: N_20  and  C_19 
REMARK       I    between atoms: C_22  and  N_20 
ROOT
ATOM      1  C   LIG d   1       3.569  88.161 115.176  0.00  0.00     0.161 C 
ATOM      2  C   LIG d   1       3.225  87.366 114.070  0.00  0.00     0.016 C 
ATOM      3  C   LIG d   1       3.911  87.411 112.835  0.00  0.00     0.038 C 
ATOM      4  C   LIG d   1       5.092  88.151 112.670  0.00  0.00     0.028 C 
ATOM      5  C   LIG d   1       5.187  89.356 113.600  0.00  0.00    -0.047 C 
ATOM      6  C   LIG d   1       4.922  88.892 115.050  0.00  0.00     0.091 C 
ENDROOT
BRANCH   1   7
ATOM      7  O   LIG d   1       3.539  87.366 116.378  0.00  0.00    -0.368 OA
BRANCH   7   8
ATOM      8  C   LIG d   1       4.629  86.428 116.549  0.00  0.00     0.119 C 
BRANCH   8   9
ATOM      9  C   LIG d   1       4.011  85.030 116.748  0.00  0.00     0.028 C 
ATOM     10  C   LIG d   1       4.855  83.918 116.102  0.00  0.00     0.006 C 
ENDBRANCH   8   9
BRANCH   8  11
ATOM     11  C   LIG d   1       5.412  86.712 117.834  0.00  0.00     0.028 C 
ATOM     12  C   LIG d   1       6.933  86.714 117.618  0.00  0.00     0.006 C 
ENDBRANCH   8  11
ENDBRANCH   7   8
ENDBRANCH   1   7
BRANCH   6  13
ATOM     13  N   LIG d   1       4.913  90.024 116.014  0.00  0.00    -0.311 N 
ATOM     14  C   LIG d   1       6.003  90.459 116.644  0.00  0.00     0.210 C 
ATOM     15  C   LIG d   1       5.769  91.624 117.611  0.00  0.00     0.109 C 
ATOM     16  O   LIG d   1       7.146  90.012 116.469  0.00  0.00    -0.276 OA
ATOM     17  H   LIG d   1       4.031  90.465 116.192  0.00  0.00     0.149 HD
ENDBRANCH   6  13
BRANCH   5  18
ATOM     18  N   LIG d   1       6.523  89.954 113.419  0.00  0.00     0.381 N 
ATOM     19  H   LIG d   1       6.502  90.606 112.660  0.00  0.00    -0.090 HD
ATOM     20  H   LIG d   1       7.177  89.226 113.191  0.00  0.00    -0.090 HD
ATOM     21  H   LIG d   1       6.806  90.416 114.255  0.00  0.00    -0.090 HD
ENDBRANCH   5  18
BRANCH   3  22
ATOM     22  C   LIG d   1       3.394  86.742 111.736  0.00  0.00     0.382 C 
ATOM     23  O   LIG d   1       3.932  85.680 111.339  0.00  0.00    -0.241 OA
ATOM     24  O   LIG d   1       2.424  87.210 111.110  0.00  0.00    -0.241 OA
ENDBRANCH   3  22
TORSDOF 7
ENDMDL
