MODEL 1
REMARK VINA RESULT:      -5.8      0.000      0.000
REMARK  7 active torsions:
REMARK  status: ('A' for Active; 'I' for Inactive)
REMARK    1  A    between atoms: C_2  and  C_3 
REMARK    2  A    between atoms: C_3  and  O_6 
REMARK    3  A    between atoms: C_3  and  C_4 
REMARK    4  A    between atoms: C_7  and  O_6 
REMARK    5  A    between atoms: C_9  and  C_10 
REMARK    6  A    between atoms: N_15  and  C_14 
REMARK    7  A    between atoms: N_20  and  C_19 
REMARK       I    between atoms: C_22  and  N_20 
ROOT
ATOM      1  C   LIG d   1       2.361  84.699 113.401  0.00  0.00     0.161 C 
ATOM      2  C   LIG d   1       1.271  83.873 113.081  0.00  0.00     0.016 C 
ATOM      3  C   LIG d   1       0.282  84.222 112.134  0.00  0.00     0.038 C 
ATOM      4  C   LIG d   1       0.398  85.364 111.327  0.00  0.00     0.028 C 
ATOM      5  C   LIG d   1       1.216  86.479 111.969  0.00  0.00    -0.047 C 
ATOM      6  C   LIG d   1       2.565  85.898 112.450  0.00  0.00     0.091 C 
ENDROOT
BRANCH   1   7
ATOM      7  O   LIG d   1       3.566  83.911 113.479  0.00  0.00    -0.368 OA
BRANCH   7   8
ATOM      8  C   LIG d   1       3.692  82.843 112.508  0.00  0.00     0.119 C 
BRANCH   8   9
ATOM      9  C   LIG d   1       4.309  81.631 113.232  0.00  0.00     0.028 C 
ATOM     10  C   LIG d   1       4.023  81.641 114.743  0.00  0.00     0.006 C 
ENDBRANCH   8   9
BRANCH   8  11
ATOM     11  C   LIG d   1       4.690  83.208 111.405  0.00  0.00     0.028 C 
ATOM     12  C   LIG d   1       4.010  83.488 110.055  0.00  0.00     0.006 C 
ENDBRANCH   8  11
ENDBRANCH   7   8
ENDBRANCH   1   7
BRANCH   6  13
ATOM     13  N   LIG d   1       3.392  86.904 113.166  0.00  0.00    -0.311 N 
ATOM     14  C   LIG d   1       4.525  87.405 112.675  0.00  0.00     0.210 C 
ATOM     15  C   LIG d   1       5.232  88.415 113.584  0.00  0.00     0.109 C 
ATOM     16  O   LIG d   1       4.993  87.133 111.560  0.00  0.00    -0.276 OA
ATOM     17  H   LIG d   1       3.069  87.204 114.065  0.00  0.00     0.149 HD
ENDBRANCH   6  13
BRANCH   5  18
ATOM     18  N   LIG d   1       1.373  87.550 110.967  0.00  0.00     0.381 N 
ATOM     19  H   LIG d   1       1.298  88.443 111.412  0.00  0.00    -0.090 HD
ATOM     20  H   LIG d   1       0.634  87.473 110.290  0.00  0.00    -0.090 HD
ATOM     21  H   LIG d   1       2.257  87.469 110.516  0.00  0.00    -0.090 HD
ENDBRANCH   5  18
BRANCH   3  22
ATOM     22  C   LIG d   1      -0.861  83.445 112.015  0.00  0.00     0.382 C 
ATOM     23  O   LIG d   1      -1.218  83.024 110.889  0.00  0.00    -0.241 OA
ATOM     24  O   LIG d   1      -1.563  83.197 113.014  0.00  0.00    -0.241 OA
ENDBRANCH   3  22
TORSDOF 7
ENDMDL
MODEL 2
REMARK VINA RESULT:      -5.6      9.078     11.693
REMARK  7 active torsions:
REMARK  status: ('A' for Active; 'I' for Inactive)
REMARK    1  A    between atoms: C_2  and  C_3 
REMARK    2  A    between atoms: C_3  and  O_6 
REMARK    3  A    between atoms: C_3  and  C_4 
REMARK    4  A    between atoms: C_7  and  O_6 
REMARK    5  A    between atoms: C_9  and  C_10 
REMARK    6  A    between atoms: N_15  and  C_14 
REMARK    7  A    between atoms: N_20  and  C_19 
REMARK       I    between atoms: C_22  and  N_20 
ROOT
ATOM      1  C   LIG d   1      -3.635  76.397 114.817  0.00  0.00     0.161 C 
ATOM      2  C   LIG d   1      -3.702  77.431 113.868  0.00  0.00     0.016 C 
ATOM      3  C   LIG d   1      -2.569  78.136 113.403  0.00  0.00     0.038 C 
ATOM      4  C   LIG d   1      -1.264  77.752 113.747  0.00  0.00     0.028 C 
ATOM      5  C   LIG d   1      -1.177  77.040 115.092  0.00  0.00    -0.047 C 
ATOM      6  C   LIG d   1      -2.209  75.890 115.120  0.00  0.00     0.091 C 
ENDROOT
BRANCH   1   7
ATOM      7  O   LIG d   1      -4.480  75.304 114.410  0.00  0.00    -0.368 OA
BRANCH   7   8
ATOM      8  C   LIG d   1      -5.637  75.048 115.244  0.00  0.00     0.119 C 
BRANCH   8   9
ATOM      9  C   LIG d   1      -5.911  73.532 115.203  0.00  0.00     0.028 C 
ATOM     10  C   LIG d   1      -6.010  72.915 116.608  0.00  0.00     0.006 C 
ENDBRANCH   8   9
BRANCH   8  11
ATOM     11  C   LIG d   1      -6.895  75.703 114.667  0.00  0.00     0.028 C 
ATOM     12  C   LIG d   1      -8.028  75.828 115.698  0.00  0.00     0.006 C 
ENDBRANCH   8  11
ENDBRANCH   7   8
ENDBRANCH   1   7
BRANCH   6  13
ATOM     13  N   LIG d   1      -2.248  75.194 116.432  0.00  0.00    -0.311 N 
ATOM     14  C   LIG d   1      -1.556  74.088 116.697  0.00  0.00     0.210 C 
ATOM     15  C   LIG d   1      -1.755  73.522 118.106  0.00  0.00     0.109 C 
ATOM     16  O   LIG d   1      -0.770  73.540 115.909  0.00  0.00    -0.276 OA
ATOM     17  H   LIG d   1      -2.837  75.589 117.140  0.00  0.00     0.149 HD
ENDBRANCH   6  13
BRANCH   5  18
ATOM     18  N   LIG d   1       0.213  76.574 115.261  0.00  0.00     0.381 N 
ATOM     19  H   LIG d   1       0.699  77.179 115.892  0.00  0.00    -0.090 HD
ATOM     20  H   LIG d   1       0.677  76.609 114.370  0.00  0.00    -0.090 HD
ATOM     21  H   LIG d   1       0.219  75.641 115.611  0.00  0.00    -0.090 HD
ENDBRANCH   5  18
BRANCH   3  22
ATOM     22  C   LIG d   1      -2.737  79.266 112.617  0.00  0.00     0.382 C 
ATOM     23  O   LIG d   1      -2.033  79.425 111.590  0.00  0.00    -0.241 OA
ATOM     24  O   LIG d   1      -3.553  80.148 112.944  0.00  0.00    -0.241 OA
ENDBRANCH   3  22
TORSDOF 7
ENDMDL
MODEL 3
REMARK VINA RESULT:      -5.5      8.682     11.430
REMARK  7 active torsions:
REMARK  status: ('A' for Active; 'I' for Inactive)
REMARK    1  A    between atoms: C_2  and  C_3 
REMARK    2  A    between atoms: C_3  and  O_6 
REMARK    3  A    between atoms: C_3  and  C_4 
REMARK    4  A    between atoms: C_7  and  O_6 
REMARK    5  A    between atoms: C_9  and  C_10 
REMARK    6  A    between atoms: N_15  and  C_14 
REMARK    7  A    between atoms: N_20  and  C_19 
REMARK       I    between atoms: C_22  and  N_20 
ROOT
ATOM      1  C   LIG d   1      -2.652  76.674 114.467  0.00  0.00     0.161 C 
ATOM      2  C   LIG d   1      -1.259  76.630 114.645  0.00  0.00     0.016 C 
ATOM      3  C   LIG d   1      -0.613  75.709 115.501  0.00  0.00     0.038 C 
ATOM      4  C   LIG d   1      -1.308  74.663 116.125  0.00  0.00     0.028 C 
ATOM      5  C   LIG d   1      -2.780  74.977 116.373  0.00  0.00    -0.047 C 
ATOM      6  C   LIG d   1      -3.417  75.469 115.054  0.00  0.00     0.091 C 
ENDROOT
BRANCH   1   7
ATOM      7  O   LIG d   1      -2.961  76.830 113.068  0.00  0.00    -0.368 OA
BRANCH   7   8
ATOM      8  C   LIG d   1      -2.341  77.957 112.400  0.00  0.00     0.119 C 
BRANCH   8   9
ATOM      9  C   LIG d   1      -3.241  79.186 112.634  0.00  0.00     0.028 C 
ATOM     10  C   LIG d   1      -2.437  80.432 113.043  0.00  0.00     0.006 C 
ENDBRANCH   8   9
BRANCH   8  11
ATOM     11  C   LIG d   1      -2.313  77.758 110.882  0.00  0.00     0.028 C 
ATOM     12  C   LIG d   1      -1.152  78.504 110.205  0.00  0.00     0.006 C 
ENDBRANCH   8  11
ENDBRANCH   7   8
ENDBRANCH   1   7
BRANCH   6  13
ATOM     13  N   LIG d   1      -4.835  75.878 115.227  0.00  0.00    -0.311 N 
ATOM     14  C   LIG d   1      -5.850  75.293 114.592  0.00  0.00     0.210 C 
ATOM     15  C   LIG d   1      -7.230  75.882 114.899  0.00  0.00     0.109 C 
ATOM     16  O   LIG d   1      -5.741  74.321 113.829  0.00  0.00    -0.276 OA
ATOM     17  H   LIG d   1      -5.018  76.638 115.852  0.00  0.00     0.149 HD
ENDBRANCH   6  13
BRANCH   5  18
ATOM     18  N   LIG d   1      -3.414  73.754 116.901  0.00  0.00     0.381 N 
ATOM     19  H   LIG d   1      -4.086  73.410 116.244  0.00  0.00    -0.090 HD
ATOM     20  H   LIG d   1      -3.894  73.978 117.754  0.00  0.00    -0.090 HD
ATOM     21  H   LIG d   1      -2.722  73.058 117.073  0.00  0.00    -0.090 HD
ENDBRANCH   5  18
BRANCH   3  22
ATOM     22  C   LIG d   1       0.739  75.854 115.771  0.00  0.00     0.382 C 
ATOM     23  O   LIG d   1       1.589  75.292 115.039  0.00  0.00    -0.241 OA
ATOM     24  O   LIG d   1       1.119  76.504 116.764  0.00  0.00    -0.241 OA
ENDBRANCH   3  22
TORSDOF 7
ENDMDL
MODEL 4
REMARK VINA RESULT:      -5.3     10.520     12.513
REMARK  7 active torsions:
REMARK  status: ('A' for Active; 'I' for Inactive)
REMARK    1  A    between atoms: C_2  and  C_3 
REMARK    2  A    between atoms: C_3  and  O_6 
REMARK    3  A    between atoms: C_3  and  C_4 
REMARK    4  A    between atoms: C_7  and  O_6 
REMARK    5  A    between atoms: C_9  and  C_10 
REMARK    6  A    between atoms: N_15  and  C_14 
REMARK    7  A    between atoms: N_20  and  C_19 
REMARK       I    between atoms: C_22  and  N_20 
ROOT
ATOM      1  C   LIG d   1      -4.571  75.769 117.578  0.00  0.00     0.161 C 
ATOM      2  C   LIG d   1      -5.802  76.435 117.694  0.00  0.00     0.016 C 
ATOM      3  C   LIG d   1      -6.015  77.760 117.247  0.00  0.00     0.038 C 
ATOM      4  C   LIG d   1      -5.046  78.459 116.512  0.00  0.00     0.028 C 
ATOM      5  C   LIG d   1      -3.619  78.013 116.813  0.00  0.00    -0.047 C 
ATOM      6  C   LIG d   1      -3.534  76.476 116.679  0.00  0.00     0.091 C 
ENDROOT
BRANCH   1   7
ATOM      7  O   LIG d   1      -4.787  74.418 117.126  0.00  0.00    -0.368 OA
BRANCH   7   8
ATOM      8  C   LIG d   1      -6.055  74.160 116.472  0.00  0.00     0.119 C 
BRANCH   8   9
ATOM      9  C   LIG d   1      -6.591  72.821 117.015  0.00  0.00     0.028 C 
ATOM     10  C   LIG d   1      -6.550  71.702 115.960  0.00  0.00     0.006 C 
ENDBRANCH   8   9
BRANCH   8  11
ATOM     11  C   LIG d   1      -5.872  73.944 114.967  0.00  0.00     0.028 C 
ATOM     12  C   LIG d   1      -6.136  75.216 114.147  0.00  0.00     0.006 C 
ENDBRANCH   8  11
ENDBRANCH   7   8
ENDBRANCH   1   7
BRANCH   6  13
ATOM     13  N   LIG d   1      -2.193  75.948 117.039  0.00  0.00    -0.311 N 
ATOM     14  C   LIG d   1      -1.469  75.174 116.232  0.00  0.00     0.210 C 
ATOM     15  C   LIG d   1      -0.122  74.723 116.806  0.00  0.00     0.109 C 
ATOM     16  O   LIG d   1      -1.800  74.845 115.083  0.00  0.00    -0.276 OA
ATOM     17  H   LIG d   1      -1.833  76.192 117.941  0.00  0.00     0.149 HD
ENDBRANCH   6  13
BRANCH   5  18
ATOM     18  N   LIG d   1      -2.724  78.725 115.881  0.00  0.00     0.381 N 
ATOM     19  H   LIG d   1      -2.137  79.356 116.390  0.00  0.00    -0.090 HD
ATOM     20  H   LIG d   1      -3.282  79.260 115.240  0.00  0.00    -0.090 HD
ATOM     21  H   LIG d   1      -2.164  78.071 115.380  0.00  0.00    -0.090 HD
ENDBRANCH   5  18
BRANCH   3  22
ATOM     22  C   LIG d   1      -7.194  78.413 117.570  0.00  0.00     0.382 C 
ATOM     23  O   LIG d   1      -7.250  79.665 117.527  0.00  0.00    -0.241 OA
ATOM     24  O   LIG d   1      -8.191  77.767 117.947  0.00  0.00    -0.241 OA
ENDBRANCH   3  22
TORSDOF 7
ENDMDL
MODEL 5
REMARK VINA RESULT:      -5.2      2.678      5.796
REMARK  7 active torsions:
REMARK  status: ('A' for Active; 'I' for Inactive)
REMARK    1  A    between atoms: C_2  and  C_3 
REMARK    2  A    between atoms: C_3  and  O_6 
REMARK    3  A    between atoms: C_3  and  C_4 
REMARK    4  A    between atoms: C_7  and  O_6 
REMARK    5  A    between atoms: C_9  and  C_10 
REMARK    6  A    between atoms: N_15  and  C_14 
REMARK    7  A    between atoms: N_20  and  C_19 
REMARK       I    between atoms: C_22  and  N_20 
ROOT
ATOM      1  C   LIG d   1       3.165  86.654 112.660  0.00  0.00     0.161 C 
ATOM      2  C   LIG d   1       3.608  87.968 112.887  0.00  0.00     0.016 C 
ATOM      3  C   LIG d   1       4.483  88.323 113.939  0.00  0.00     0.038 C 
ATOM      4  C   LIG d   1       5.099  87.357 114.749  0.00  0.00     0.028 C 
ATOM      5  C   LIG d   1       4.290  86.071 114.878  0.00  0.00    -0.047 C 
ATOM      6  C   LIG d   1       3.912  85.571 113.465  0.00  0.00     0.091 C 
ENDROOT
BRANCH   1   7
ATOM      7  O   LIG d   1       3.218  86.357 111.250  0.00  0.00    -0.368 OA
BRANCH   7   8
ATOM      8  C   LIG d   1       1.942  86.185 110.586  0.00  0.00     0.119 C 
BRANCH   8   9
ATOM      9  C   LIG d   1       0.845  86.649 111.564  0.00  0.00     0.028 C 
ATOM     10  C   LIG d   1      -0.566  86.527 110.965  0.00  0.00     0.006 C 
ENDBRANCH   8   9
BRANCH   8  11
ATOM     11  C   LIG d   1       1.648  84.706 110.319  0.00  0.00     0.028 C 
ATOM     12  C   LIG d   1       2.919  83.884 110.055  0.00  0.00     0.006 C 
ENDBRANCH   8  11
ENDBRANCH   7   8
ENDBRANCH   1   7
BRANCH   6  13
ATOM     13  N   LIG d   1       3.049  84.362 113.503  0.00  0.00    -0.311 N 
ATOM     14  C   LIG d   1       3.523  83.120 113.438  0.00  0.00     0.210 C 
ATOM     15  C   LIG d   1       2.459  82.018 113.473  0.00  0.00     0.109 C 
ATOM     16  O   LIG d   1       4.727  82.824 113.386  0.00  0.00    -0.276 OA
ATOM     17  H   LIG d   1       2.061  84.510 113.575  0.00  0.00     0.149 HD
ENDBRANCH   6  13
BRANCH   5  18
ATOM     18  N   LIG d   1       5.109  85.104 115.633  0.00  0.00     0.381 N 
ATOM     19  H   LIG d   1       4.539  84.628 116.304  0.00  0.00    -0.090 HD
ATOM     20  H   LIG d   1       5.828  85.602 116.128  0.00  0.00    -0.090 HD
ATOM     21  H   LIG d   1       5.521  84.445 115.010  0.00  0.00    -0.090 HD
ENDBRANCH   5  18
BRANCH   3  22
ATOM     22  C   LIG d   1       4.720  89.661 114.214  0.00  0.00     0.382 C 
ATOM     23  O   LIG d   1       4.534  90.526 113.324  0.00  0.00    -0.241 OA
ATOM     24  O   LIG d   1       5.160  90.009 115.326  0.00  0.00    -0.241 OA
ENDBRANCH   3  22
TORSDOF 7
ENDMDL
MODEL 6
REMARK VINA RESULT:      -5.2      8.612     11.095
REMARK  7 active torsions:
REMARK  status: ('A' for Active; 'I' for Inactive)
REMARK    1  A    between atoms: C_2  and  C_3 
REMARK    2  A    between atoms: C_3  and  O_6 
REMARK    3  A    between atoms: C_3  and  C_4 
REMARK    4  A    between atoms: C_7  and  O_6 
REMARK    5  A    between atoms: C_9  and  C_10 
REMARK    6  A    between atoms: N_15  and  C_14 
REMARK    7  A    between atoms: N_20  and  C_19 
REMARK       I    between atoms: C_22  and  N_20 
ROOT
ATOM      1  C   LIG d   1      -3.115  77.671 115.562  0.00  0.00     0.161 C 
ATOM      2  C   LIG d   1      -2.309  76.557 115.275  0.00  0.00     0.016 C 
ATOM      3  C   LIG d   1      -2.457  75.304 115.915  0.00  0.00     0.038 C 
ATOM      4  C   LIG d   1      -3.527  75.036 116.782  0.00  0.00     0.028 C 
ATOM      5  C   LIG d   1      -4.064  76.279 117.483  0.00  0.00    -0.047 C 
ATOM      6  C   LIG d   1      -4.358  77.366 116.424  0.00  0.00     0.091 C 
ENDROOT
BRANCH   1   7
ATOM      7  O   LIG d   1      -3.503  78.322 114.336  0.00  0.00    -0.368 OA
BRANCH   7   8
ATOM      8  C   LIG d   1      -2.546  78.258 113.250  0.00  0.00     0.119 C 
BRANCH   8   9
ATOM      9  C   LIG d   1      -1.905  79.653 113.116  0.00  0.00     0.028 C 
ATOM     10  C   LIG d   1      -2.949  80.782 113.115  0.00  0.00     0.006 C 
ENDBRANCH   8   9
BRANCH   8  11
ATOM     11  C   LIG d   1      -3.241  78.001 111.909  0.00  0.00     0.028 C 
ATOM     12  C   LIG d   1      -2.249  77.819 110.750  0.00  0.00     0.006 C 
ENDBRANCH   8  11
ENDBRANCH   7   8
ENDBRANCH   1   7
BRANCH   6  13
ATOM     13  N   LIG d   1      -4.808  78.645 117.034  0.00  0.00    -0.311 N 
ATOM     14  C   LIG d   1      -6.089  78.954 117.227  0.00  0.00     0.210 C 
ATOM     15  C   LIG d   1      -6.334  80.331 117.851  0.00  0.00     0.109 C 
ATOM     16  O   LIG d   1      -7.044  78.206 116.970  0.00  0.00    -0.276 OA
ATOM     17  H   LIG d   1      -4.097  79.298 117.301  0.00  0.00     0.149 HD
ENDBRANCH   6  13
BRANCH   5  18
ATOM     18  N   LIG d   1      -5.260  75.878 118.248  0.00  0.00     0.381 N 
ATOM     19  H   LIG d   1      -5.477  74.920 118.059  0.00  0.00    -0.090 HD
ATOM     20  H   LIG d   1      -6.038  76.441 117.953  0.00  0.00    -0.090 HD
ATOM     21  H   LIG d   1      -5.100  76.004 119.223  0.00  0.00    -0.090 HD
ENDBRANCH   5  18
BRANCH   3  22
ATOM     22  C   LIG d   1      -1.505  74.316 115.719  0.00  0.00     0.382 C 
ATOM     23  O   LIG d   1      -0.891  74.245 114.627  0.00  0.00    -0.241 OA
ATOM     24  O   LIG d   1      -1.284  73.468 116.603  0.00  0.00    -0.241 OA
ENDBRANCH   3  22
TORSDOF 7
ENDMDL
MODEL 7
REMARK VINA RESULT:      -5.0      8.987     11.275
REMARK  7 active torsions:
REMARK  status: ('A' for Active; 'I' for Inactive)
REMARK    1  A    between atoms: C_2  and  C_3 
REMARK    2  A    between atoms: C_3  and  O_6 
REMARK    3  A    between atoms: C_3  and  C_4 
REMARK    4  A    between atoms: C_7  and  O_6 
REMARK    5  A    between atoms: C_9  and  C_10 
REMARK    6  A    between atoms: N_15  and  C_14 
REMARK    7  A    between atoms: N_20  and  C_19 
REMARK       I    between atoms: C_22  and  N_20 
ROOT
ATOM      1  C   LIG d   1      -3.295  76.330 114.746  0.00  0.00     0.161 C 
ATOM      2  C   LIG d   1      -4.673  76.260 115.010  0.00  0.00     0.016 C 
ATOM      3  C   LIG d   1      -5.245  75.344 115.923  0.00  0.00     0.038 C 
ATOM      4  C   LIG d   1      -4.455  74.533 116.752  0.00  0.00     0.028 C 
ATOM      5  C   LIG d   1      -3.087  74.212 116.159  0.00  0.00    -0.047 C 
ATOM      6  C   LIG d   1      -2.408  75.529 115.722  0.00  0.00     0.091 C 
ENDROOT
BRANCH   1   7
ATOM      7  O   LIG d   1      -2.876  77.708 114.703  0.00  0.00    -0.368 OA
BRANCH   7   8
ATOM      8  C   LIG d   1      -2.902  78.342 113.400  0.00  0.00     0.119 C 
BRANCH   8   9
ATOM      9  C   LIG d   1      -2.199  77.394 112.410  0.00  0.00     0.028 C 
ATOM     10  C   LIG d   1      -2.513  77.739 110.944  0.00  0.00     0.006 C 
ENDBRANCH   8   9
BRANCH   8  11
ATOM     11  C   LIG d   1      -2.072  79.629 113.390  0.00  0.00     0.028 C 
ATOM     12  C   LIG d   1      -2.901  80.870 113.025  0.00  0.00     0.006 C 
ENDBRANCH   8  11
ENDBRANCH   7   8
ENDBRANCH   1   7
BRANCH   6  13
ATOM     13  N   LIG d   1      -1.100  75.299 115.055  0.00  0.00    -0.311 N 
ATOM     14  C   LIG d   1       0.065  75.317 115.699  0.00  0.00     0.210 C 
ATOM     15  C   LIG d   1       1.295  75.075 114.819  0.00  0.00     0.109 C 
ATOM     16  O   LIG d   1       0.194  75.478 116.922  0.00  0.00    -0.276 OA
ATOM     17  H   LIG d   1      -1.115  75.129 114.068  0.00  0.00     0.149 HD
ENDBRANCH   6  13
BRANCH   5  18
ATOM     18  N   LIG d   1      -2.320  73.478 117.183  0.00  0.00     0.381 N 
ATOM     19  H   LIG d   1      -2.739  73.611 118.082  0.00  0.00    -0.090 HD
ATOM     20  H   LIG d   1      -1.385  73.845 117.213  0.00  0.00    -0.090 HD
ATOM     21  H   LIG d   1      -2.296  72.507 116.961  0.00  0.00    -0.090 HD
ENDBRANCH   5  18
BRANCH   3  22
ATOM     22  C   LIG d   1      -6.623  75.205 115.985  0.00  0.00     0.382 C 
ATOM     23  O   LIG d   1      -7.354  75.839 115.186  0.00  0.00    -0.241 OA
ATOM     24  O   LIG d   1      -7.147  74.487 116.858  0.00  0.00    -0.241 OA
ENDBRANCH   3  22
TORSDOF 7
ENDMDL
MODEL 8
REMARK VINA RESULT:      -5.0      1.251      2.039
REMARK  7 active torsions:
REMARK  status: ('A' for Active; 'I' for Inactive)
REMARK    1  A    between atoms: C_2  and  C_3 
REMARK    2  A    between atoms: C_3  and  O_6 
REMARK    3  A    between atoms: C_3  and  C_4 
REMARK    4  A    between atoms: C_7  and  O_6 
REMARK    5  A    between atoms: C_9  and  C_10 
REMARK    6  A    between atoms: N_15  and  C_14 
REMARK    7  A    between atoms: N_20  and  C_19 
REMARK       I    between atoms: C_22  and  N_20 
ROOT
ATOM      1  C   LIG d   1       2.474  84.573 113.291  0.00  0.00     0.161 C 
ATOM      2  C   LIG d   1       1.355  83.791 112.960  0.00  0.00     0.016 C 
ATOM      3  C   LIG d   1       0.329  84.229 112.092  0.00  0.00     0.038 C 
ATOM      4  C   LIG d   1       0.429  85.429 111.371  0.00  0.00     0.028 C 
ATOM      5  C   LIG d   1       1.297  86.478 112.059  0.00  0.00    -0.047 C 
ATOM      6  C   LIG d   1       2.656  85.840 112.428  0.00  0.00     0.091 C 
ENDROOT
BRANCH   1   7
ATOM      7  O   LIG d   1       3.666  83.764 113.249  0.00  0.00    -0.368 OA
BRANCH   7   8
ATOM      8  C   LIG d   1       4.324  83.533 114.519  0.00  0.00     0.119 C 
BRANCH   8   9
ATOM      9  C   LIG d   1       4.150  82.042 114.867  0.00  0.00     0.028 C 
ATOM     10  C   LIG d   1       2.908  81.783 115.736  0.00  0.00     0.006 C 
ENDBRANCH   8   9
BRANCH   8  11
ATOM     11  C   LIG d   1       3.633  84.297 115.652  0.00  0.00     0.028 C 
ATOM     12  C   LIG d   1       4.557  85.318 116.333  0.00  0.00     0.006 C 
ENDBRANCH   8  11
ENDBRANCH   7   8
ENDBRANCH   1   7
BRANCH   6  13
ATOM     13  N   LIG d   1       3.535  86.774 113.180  0.00  0.00    -0.311 N 
ATOM     14  C   LIG d   1       4.648  87.301 112.673  0.00  0.00     0.210 C 
ATOM     15  C   LIG d   1       5.417  88.224 113.624  0.00  0.00     0.109 C 
ATOM     16  O   LIG d   1       5.054  87.117 111.516  0.00  0.00    -0.276 OA
ATOM     17  H   LIG d   1       3.263  87.002 114.116  0.00  0.00     0.149 HD
ENDBRANCH   6  13
BRANCH   5  18
ATOM     18  N   LIG d   1       1.428  87.622 111.137  0.00  0.00     0.381 N 
ATOM     19  H   LIG d   1       2.166  87.449 110.484  0.00  0.00    -0.090 HD
ATOM     20  H   LIG d   1       1.662  88.442 111.668  0.00  0.00    -0.090 HD
ATOM     21  H   LIG d   1       0.571  87.767 110.650  0.00  0.00    -0.090 HD
ENDBRANCH   5  18
BRANCH   3  22
ATOM     22  C   LIG d   1      -0.832  83.482 111.967  0.00  0.00     0.382 C 
ATOM     23  O   LIG d   1      -1.512  83.206 112.985  0.00  0.00    -0.241 OA
ATOM     24  O   LIG d   1      -1.184  83.041 110.857  0.00  0.00    -0.241 OA
ENDBRANCH   3  22
TORSDOF 7
ENDMDL
MODEL 9
REMARK VINA RESULT:      -5.0     10.345     12.710
REMARK  7 active torsions:
REMARK  status: ('A' for Active; 'I' for Inactive)
REMARK    1  A    between atoms: C_2  and  C_3 
REMARK    2  A    between atoms: C_3  and  O_6 
REMARK    3  A    between atoms: C_3  and  C_4 
REMARK    4  A    between atoms: C_7  and  O_6 
REMARK    5  A    between atoms: C_9  and  C_10 
REMARK    6  A    between atoms: N_15  and  C_14 
REMARK    7  A    between atoms: N_20  and  C_19 
REMARK       I    between atoms: C_22  and  N_20 
ROOT
ATOM      1  C   LIG d   1      -3.770  75.300 116.474  0.00  0.00     0.161 C 
ATOM      2  C   LIG d   1      -2.672  74.717 115.818  0.00  0.00     0.016 C 
ATOM      3  C   LIG d   1      -1.345  75.182 115.960  0.00  0.00     0.038 C 
ATOM      4  C   LIG d   1      -1.002  76.173 116.892  0.00  0.00     0.028 C 
ATOM      5  C   LIG d   1      -2.146  77.132 117.205  0.00  0.00    -0.047 C 
ATOM      6  C   LIG d   1      -3.401  76.311 117.579  0.00  0.00     0.091 C 
ENDROOT
BRANCH   1   7
ATOM      7  O   LIG d   1      -4.626  74.268 117.003  0.00  0.00    -0.368 OA
BRANCH   7   8
ATOM      8  C   LIG d   1      -5.565  73.679 116.071  0.00  0.00     0.119 C 
BRANCH   8   9
ATOM      9  C   LIG d   1      -6.405  74.824 115.473  0.00  0.00     0.028 C 
ATOM     10  C   LIG d   1      -7.639  75.156 116.329  0.00  0.00     0.006 C 
ENDBRANCH   8   9
BRANCH   8  11
ATOM     11  C   LIG d   1      -6.569  72.772 116.789  0.00  0.00     0.028 C 
ATOM     12  C   LIG d   1      -6.754  71.416 116.091  0.00  0.00     0.006 C 
ENDBRANCH   8  11
ENDBRANCH   7   8
ENDBRANCH   1   7
BRANCH   6  13
ATOM     13  N   LIG d   1      -4.590  77.169 117.819  0.00  0.00    -0.311 N 
ATOM     14  C   LIG d   1      -5.096  77.992 116.902  0.00  0.00     0.210 C 
ATOM     15  C   LIG d   1      -6.313  78.802 117.362  0.00  0.00     0.109 C 
ATOM     16  O   LIG d   1      -4.674  78.104 115.741  0.00  0.00    -0.276 OA
ATOM     17  H   LIG d   1      -5.015  77.118 118.724  0.00  0.00     0.149 HD
ENDBRANCH   6  13
BRANCH   5  18
ATOM     18  N   LIG d   1      -1.695  78.025 118.289  0.00  0.00     0.381 N 
ATOM     19  H   LIG d   1      -0.790  78.392 118.071  0.00  0.00    -0.090 HD
ATOM     20  H   LIG d   1      -1.624  77.494 119.139  0.00  0.00    -0.090 HD
ATOM     21  H   LIG d   1      -2.344  78.771 118.408  0.00  0.00    -0.090 HD
ENDBRANCH   5  18
BRANCH   3  22
ATOM     22  C   LIG d   1      -0.349  74.681 115.136  0.00  0.00     0.382 C 
ATOM     23  O   LIG d   1       0.823  75.116 115.232  0.00  0.00    -0.241 OA
ATOM     24  O   LIG d   1      -0.618  73.830 114.266  0.00  0.00    -0.241 OA
ENDBRANCH   3  22
TORSDOF 7
ENDMDL
