MODEL 1
REMARK VINA RESULT:      -5.4      0.000      0.000
REMARK  7 active torsions:
REMARK  status: ('A' for Active; 'I' for Inactive)
REMARK    1  A    between atoms: C_2  and  C_3 
REMARK    2  A    between atoms: C_3  and  O_6 
REMARK    3  A    between atoms: C_3  and  C_4 
REMARK    4  A    between atoms: C_7  and  O_6 
REMARK    5  A    between atoms: C_9  and  C_10 
REMARK    6  A    between atoms: N_15  and  C_14 
REMARK    7  A    between atoms: N_20  and  C_19 
REMARK       I    between atoms: C_22  and  N_20 
ROOT
ATOM      1  C   LIG d   1       3.910  85.404 112.778  0.00  0.00     0.161 C 
ATOM      2  C   LIG d   1       4.463  86.663 113.062  0.00  0.00     0.016 C 
ATOM      3  C   LIG d   1       4.066  87.853 112.409  0.00  0.00     0.038 C 
ATOM      4  C   LIG d   1       2.974  87.886 111.530  0.00  0.00     0.028 C 
ATOM      5  C   LIG d   1       2.715  86.554 110.835  0.00  0.00    -0.047 C 
ATOM      6  C   LIG d   1       2.641  85.438 111.901  0.00  0.00     0.091 C 
ENDROOT
BRANCH   1   7
ATOM      7  O   LIG d   1       3.651  84.696 114.007  0.00  0.00    -0.368 OA
BRANCH   7   8
ATOM      8  C   LIG d   1       3.295  85.512 115.150  0.00  0.00     0.119 C 
BRANCH   8   9
ATOM      9  C   LIG d   1       3.899  84.845 116.401  0.00  0.00     0.028 C 
ATOM     10  C   LIG d   1       4.680  85.840 117.276  0.00  0.00     0.006 C 
ENDBRANCH   8   9
BRANCH   8  11
ATOM     11  C   LIG d   1       1.781  85.514 115.383  0.00  0.00     0.028 C 
ATOM     12  C   LIG d   1       1.217  86.924 115.620  0.00  0.00     0.006 C 
ENDBRANCH   8  11
ENDBRANCH   7   8
ENDBRANCH   1   7
BRANCH   6  13
ATOM     13  N   LIG d   1       2.473  84.089 111.300  0.00  0.00    -0.311 N 
ATOM     14  C   LIG d   1       1.551  83.216 111.702  0.00  0.00     0.210 C 
ATOM     15  C   LIG d   1       1.563  81.875 110.962  0.00  0.00     0.109 C 
ATOM     16  O   LIG d   1       0.703  83.437 112.580  0.00  0.00    -0.276 OA
ATOM     17  H   LIG d   1       3.099  83.839 110.560  0.00  0.00     0.149 HD
ENDBRANCH   6  13
BRANCH   5  18
ATOM     18  N   LIG d   1       1.470  86.692 110.055  0.00  0.00     0.381 N 
ATOM     19  H   LIG d   1       1.568  87.432 109.389  0.00  0.00    -0.090 HD
ATOM     20  H   LIG d   1       0.719  86.929 110.680  0.00  0.00    -0.090 HD
ATOM     21  H   LIG d   1       1.264  85.838 109.586  0.00  0.00    -0.090 HD
ENDBRANCH   5  18
BRANCH   3  22
ATOM     22  C   LIG d   1       4.790  89.019 112.605  0.00  0.00     0.382 C 
ATOM     23  O   LIG d   1       6.035  88.967 112.746  0.00  0.00    -0.241 OA
ATOM     24  O   LIG d   1       4.209  90.118 112.686  0.00  0.00    -0.241 OA
ENDBRANCH   3  22
TORSDOF 7
ENDMDL
MODEL 2
REMARK VINA RESULT:      -5.4      2.488      4.991
REMARK  7 active torsions:
REMARK  status: ('A' for Active; 'I' for Inactive)
REMARK    1  A    between atoms: C_2  and  C_3 
REMARK    2  A    between atoms: C_3  and  O_6 
REMARK    3  A    between atoms: C_3  and  C_4 
REMARK    4  A    between atoms: C_7  and  O_6 
REMARK    5  A    between atoms: C_9  and  C_10 
REMARK    6  A    between atoms: N_15  and  C_14 
REMARK    7  A    between atoms: N_20  and  C_19 
REMARK       I    between atoms: C_22  and  N_20 
ROOT
ATOM      1  C   LIG d   1       1.872  84.419 113.450  0.00  0.00     0.161 C 
ATOM      2  C   LIG d   1       2.335  85.262 112.426  0.00  0.00     0.016 C 
ATOM      3  C   LIG d   1       3.331  86.247 112.619  0.00  0.00     0.038 C 
ATOM      4  C   LIG d   1       4.044  86.354 113.823  0.00  0.00     0.028 C 
ATOM      5  C   LIG d   1       3.261  85.862 115.036  0.00  0.00    -0.047 C 
ATOM      6  C   LIG d   1       2.716  84.446 114.741  0.00  0.00     0.091 C 
ENDROOT
BRANCH   1   7
ATOM      7  O   LIG d   1       1.754  83.070 112.956  0.00  0.00    -0.368 OA
BRANCH   7   8
ATOM      8  C   LIG d   1       1.477  82.931 111.541  0.00  0.00     0.119 C 
BRANCH   8   9
ATOM      9  C   LIG d   1      -0.053  82.954 111.365  0.00  0.00     0.028 C 
ATOM     10  C   LIG d   1      -0.531  84.158 110.535  0.00  0.00     0.006 C 
ENDBRANCH   8   9
BRANCH   8  11
ATOM     11  C   LIG d   1       1.925  81.563 111.017  0.00  0.00     0.028 C 
ATOM     12  C   LIG d   1       3.143  81.652 110.084  0.00  0.00     0.006 C 
ENDBRANCH   8  11
ENDBRANCH   7   8
ENDBRANCH   1   7
BRANCH   6  13
ATOM     13  N   LIG d   1       1.867  83.925 115.844  0.00  0.00    -0.311 N 
ATOM     14  C   LIG d   1       2.321  83.112 116.797  0.00  0.00     0.210 C 
ATOM     15  C   LIG d   1       1.275  82.676 117.828  0.00  0.00     0.109 C 
ATOM     16  O   LIG d   1       3.498  82.737 116.905  0.00  0.00    -0.276 OA
ATOM     17  H   LIG d   1       0.906  84.204 115.851  0.00  0.00     0.149 HD
ENDBRANCH   6  13
BRANCH   5  18
ATOM     18  N   LIG d   1       4.169  85.902 116.198  0.00  0.00     0.381 N 
ATOM     19  H   LIG d   1       3.642  86.051 117.035  0.00  0.00    -0.090 HD
ATOM     20  H   LIG d   1       4.807  86.670 116.086  0.00  0.00    -0.090 HD
ATOM     21  H   LIG d   1       4.676  85.047 116.264  0.00  0.00    -0.090 HD
ENDBRANCH   5  18
BRANCH   3  22
ATOM     22  C   LIG d   1       3.595  87.164 111.614  0.00  0.00     0.382 C 
ATOM     23  O   LIG d   1       2.674  87.539 110.849  0.00  0.00    -0.241 OA
ATOM     24  O   LIG d   1       4.752  87.589 111.434  0.00  0.00    -0.241 OA
ENDBRANCH   3  22
TORSDOF 7
ENDMDL
MODEL 3
REMARK VINA RESULT:      -5.3      2.414      4.279
REMARK  7 active torsions:
REMARK  status: ('A' for Active; 'I' for Inactive)
REMARK    1  A    between atoms: C_2  and  C_3 
REMARK    2  A    between atoms: C_3  and  O_6 
REMARK    3  A    between atoms: C_3  and  C_4 
REMARK    4  A    between atoms: C_7  and  O_6 
REMARK    5  A    between atoms: C_9  and  C_10 
REMARK    6  A    between atoms: N_15  and  C_14 
REMARK    7  A    between atoms: N_20  and  C_19 
REMARK       I    between atoms: C_22  and  N_20 
ROOT
ATOM      1  C   LIG d   1       3.181  85.925 113.516  0.00  0.00     0.161 C 
ATOM      2  C   LIG d   1       3.773  87.016 112.859  0.00  0.00     0.016 C 
ATOM      3  C   LIG d   1       4.567  87.984 113.517  0.00  0.00     0.038 C 
ATOM      4  C   LIG d   1       4.949  87.840 114.859  0.00  0.00     0.028 C 
ATOM      5  C   LIG d   1       3.962  87.024 115.686  0.00  0.00    -0.047 C 
ATOM      6  C   LIG d   1       3.679  85.690 114.957  0.00  0.00     0.091 C 
ENDROOT
BRANCH   1   7
ATOM      7  O   LIG d   1       3.350  84.730 112.727  0.00  0.00    -0.368 OA
BRANCH   7   8
ATOM      8  C   LIG d   1       2.154  84.207 112.098  0.00  0.00     0.119 C 
BRANCH   8   9
ATOM      9  C   LIG d   1       2.270  84.477 110.586  0.00  0.00     0.028 C 
ATOM     10  C   LIG d   1       3.728  84.464 110.097  0.00  0.00     0.006 C 
ENDBRANCH   8   9
BRANCH   8  11
ATOM     11  C   LIG d   1       0.906  84.972 112.552  0.00  0.00     0.028 C 
ATOM     12  C   LIG d   1      -0.300  84.747 111.626  0.00  0.00     0.006 C 
ENDBRANCH   8  11
ENDBRANCH   7   8
ENDBRANCH   1   7
BRANCH   6  13
ATOM     13  N   LIG d   1       2.658  84.867 115.657  0.00  0.00    -0.311 N 
ATOM     14  C   LIG d   1       2.961  83.933 116.556  0.00  0.00     0.210 C 
ATOM     15  C   LIG d   1       1.759  83.186 117.143  0.00  0.00     0.109 C 
ATOM     16  O   LIG d   1       4.109  83.673 116.947  0.00  0.00    -0.276 OA
ATOM     17  H   LIG d   1       1.699  85.034 115.423  0.00  0.00     0.149 HD
ENDBRANCH   6  13
BRANCH   5  18
ATOM     18  N   LIG d   1       4.551  86.837 117.026  0.00  0.00     0.381 N 
ATOM     19  H   LIG d   1       4.823  87.722 117.403  0.00  0.00    -0.090 HD
ATOM     20  H   LIG d   1       5.373  86.264 116.942  0.00  0.00    -0.090 HD
ATOM     21  H   LIG d   1       3.892  86.398 117.630  0.00  0.00    -0.090 HD
ENDBRANCH   5  18
BRANCH   3  22
ATOM     22  C   LIG d   1       4.953  89.131 112.841  0.00  0.00     0.382 C 
ATOM     23  O   LIG d   1       6.091  89.197 112.317  0.00  0.00    -0.241 OA
ATOM     24  O   LIG d   1       4.195  90.118 112.786  0.00  0.00    -0.241 OA
ENDBRANCH   3  22
TORSDOF 7
ENDMDL
MODEL 4
REMARK VINA RESULT:      -4.8     10.410     11.894
REMARK  7 active torsions:
REMARK  status: ('A' for Active; 'I' for Inactive)
REMARK    1  A    between atoms: C_2  and  C_3 
REMARK    2  A    between atoms: C_3  and  O_6 
REMARK    3  A    between atoms: C_3  and  C_4 
REMARK    4  A    between atoms: C_7  and  O_6 
REMARK    5  A    between atoms: C_9  and  C_10 
REMARK    6  A    between atoms: N_15  and  C_14 
REMARK    7  A    between atoms: N_20  and  C_19 
REMARK       I    between atoms: C_22  and  N_20 
ROOT
ATOM      1  C   LIG d   1      13.112  80.517 114.049  0.00  0.00     0.161 C 
ATOM      2  C   LIG d   1      14.021  80.270 113.008  0.00  0.00     0.016 C 
ATOM      3  C   LIG d   1      14.237  78.988 112.451  0.00  0.00     0.038 C 
ATOM      4  C   LIG d   1      13.442  77.886 112.797  0.00  0.00     0.028 C 
ATOM      5  C   LIG d   1      12.856  77.979 114.202  0.00  0.00    -0.047 C 
ATOM      6  C   LIG d   1      12.156  79.348 114.364  0.00  0.00     0.091 C 
ENDROOT
BRANCH   1   7
ATOM      7  O   LIG d   1      12.362  81.716 113.769  0.00  0.00    -0.368 OA
BRANCH   7   8
ATOM      8  C   LIG d   1      10.995  81.524 113.329  0.00  0.00     0.119 C 
BRANCH   8   9
ATOM      9  C   LIG d   1      10.956  81.786 111.811  0.00  0.00     0.028 C 
ATOM     10  C   LIG d   1      10.152  83.048 111.454  0.00  0.00     0.006 C 
ENDBRANCH   8   9
BRANCH   8  11
ATOM     11  C   LIG d   1      10.060  82.569 113.945  0.00  0.00     0.028 C 
ATOM     12  C   LIG d   1      10.395  82.876 115.414  0.00  0.00     0.006 C 
ENDBRANCH   8  11
ENDBRANCH   7   8
ENDBRANCH   1   7
BRANCH   6  13
ATOM     13  N   LIG d   1      11.628  79.555 115.738  0.00  0.00    -0.311 N 
ATOM     14  C   LIG d   1      10.389  79.233 116.104  0.00  0.00     0.210 C 
ATOM     15  C   LIG d   1      10.042  79.549 117.562  0.00  0.00     0.109 C 
ATOM     16  O   LIG d   1       9.554  78.686 115.368  0.00  0.00    -0.276 OA
ATOM     17  H   LIG d   1      12.249  79.966 116.408  0.00  0.00     0.149 HD
ENDBRANCH   6  13
BRANCH   5  18
ATOM     18  N   LIG d   1      11.941  76.836 114.381  0.00  0.00     0.381 N 
ATOM     19  H   LIG d   1      12.065  76.183 113.633  0.00  0.00    -0.090 HD
ATOM     20  H   LIG d   1      10.994  77.171 114.353  0.00  0.00    -0.090 HD
ATOM     21  H   LIG d   1      12.118  76.391 115.254  0.00  0.00    -0.090 HD
ENDBRANCH   5  18
BRANCH   3  22
ATOM     22  C   LIG d   1      15.285  78.792 111.564  0.00  0.00     0.382 C 
ATOM     23  O   LIG d   1      16.366  79.408 111.725  0.00  0.00    -0.241 OA
ATOM     24  O   LIG d   1      15.147  78.040 110.580  0.00  0.00    -0.241 OA
ENDBRANCH   3  22
TORSDOF 7
ENDMDL
MODEL 5
REMARK VINA RESULT:      -4.7      9.718     11.085
REMARK  7 active torsions:
REMARK  status: ('A' for Active; 'I' for Inactive)
REMARK    1  A    between atoms: C_2  and  C_3 
REMARK    2  A    between atoms: C_3  and  O_6 
REMARK    3  A    between atoms: C_3  and  C_4 
REMARK    4  A    between atoms: C_7  and  O_6 
REMARK    5  A    between atoms: C_9  and  C_10 
REMARK    6  A    between atoms: N_15  and  C_14 
REMARK    7  A    between atoms: N_20  and  C_19 
REMARK       I    between atoms: C_22  and  N_20 
ROOT
ATOM      1  C   LIG d   1      11.130  79.737 115.418  0.00  0.00     0.161 C 
ATOM      2  C   LIG d   1      10.642  80.808 114.651  0.00  0.00     0.016 C 
ATOM      3  C   LIG d   1      10.952  80.991 113.284  0.00  0.00     0.038 C 
ATOM      4  C   LIG d   1      11.654  80.025 112.547  0.00  0.00     0.028 C 
ATOM      5  C   LIG d   1      12.593  79.178 113.399  0.00  0.00    -0.047 C 
ATOM      6  C   LIG d   1      11.806  78.614 114.604  0.00  0.00     0.091 C 
ENDROOT
BRANCH   1   7
ATOM      7  O   LIG d   1      10.071  79.198 116.233  0.00  0.00    -0.368 OA
BRANCH   7   8
ATOM      8  C   LIG d   1       9.068  78.416 115.539  0.00  0.00     0.119 C 
BRANCH   8   9
ATOM      9  C   LIG d   1       7.721  79.146 115.698  0.00  0.00     0.028 C 
ATOM     10  C   LIG d   1       6.521  78.186 115.634  0.00  0.00     0.006 C 
ENDBRANCH   8   9
BRANCH   8  11
ATOM     11  C   LIG d   1       8.869  77.050 116.202  0.00  0.00     0.028 C 
ATOM     12  C   LIG d   1       9.509  76.965 117.597  0.00  0.00     0.006 C 
ENDBRANCH   8  11
ENDBRANCH   7   8
ENDBRANCH   1   7
BRANCH   6  13
ATOM     13  N   LIG d   1      12.671  77.843 115.535  0.00  0.00    -0.311 N 
ATOM     14  C   LIG d   1      12.608  76.519 115.667  0.00  0.00     0.210 C 
ATOM     15  C   LIG d   1      13.574  75.925 116.696  0.00  0.00     0.109 C 
ATOM     16  O   LIG d   1      11.866  75.777 115.005  0.00  0.00    -0.276 OA
ATOM     17  H   LIG d   1      13.324  78.362 116.088  0.00  0.00     0.149 HD
ENDBRANCH   6  13
BRANCH   5  18
ATOM     18  N   LIG d   1      13.155  78.126 112.532  0.00  0.00     0.381 N 
ATOM     19  H   LIG d   1      13.455  78.525 111.665  0.00  0.00    -0.090 HD
ATOM     20  H   LIG d   1      12.438  77.449 112.336  0.00  0.00    -0.090 HD
ATOM     21  H   LIG d   1      13.924  77.684 112.986  0.00  0.00    -0.090 HD
ENDBRANCH   5  18
BRANCH   3  22
ATOM     22  C   LIG d   1      10.592  82.170 112.649  0.00  0.00     0.382 C 
ATOM     23  O   LIG d   1      11.051  82.435 111.512  0.00  0.00    -0.241 OA
ATOM     24  O   LIG d   1       9.849  82.992 113.218  0.00  0.00    -0.241 OA
ENDBRANCH   3  22
TORSDOF 7
ENDMDL
MODEL 6
REMARK VINA RESULT:      -4.7      9.502     11.473
REMARK  7 active torsions:
REMARK  status: ('A' for Active; 'I' for Inactive)
REMARK    1  A    between atoms: C_2  and  C_3 
REMARK    2  A    between atoms: C_3  and  O_6 
REMARK    3  A    between atoms: C_3  and  C_4 
REMARK    4  A    between atoms: C_7  and  O_6 
REMARK    5  A    between atoms: C_9  and  C_10 
REMARK    6  A    between atoms: N_15  and  C_14 
REMARK    7  A    between atoms: N_20  and  C_19 
REMARK       I    between atoms: C_22  and  N_20 
ROOT
ATOM      1  C   LIG d   1      10.457  79.340 114.763  0.00  0.00     0.161 C 
ATOM      2  C   LIG d   1       9.116  79.516 115.144  0.00  0.00     0.016 C 
ATOM      3  C   LIG d   1       8.315  78.479 115.676  0.00  0.00     0.038 C 
ATOM      4  C   LIG d   1       8.849  77.225 116.005  0.00  0.00     0.028 C 
ATOM      5  C   LIG d   1      10.068  76.847 115.170  0.00  0.00    -0.047 C 
ATOM      6  C   LIG d   1      11.088  78.008 115.218  0.00  0.00     0.091 C 
ENDROOT
BRANCH   1   7
ATOM      7  O   LIG d   1      11.247  80.453 115.226  0.00  0.00    -0.368 OA
BRANCH   7   8
ATOM      8  C   LIG d   1      11.550  81.472 114.242  0.00  0.00     0.119 C 
BRANCH   8   9
ATOM      9  C   LIG d   1      10.399  82.497 114.267  0.00  0.00     0.028 C 
ATOM     10  C   LIG d   1      10.189  83.109 115.661  0.00  0.00     0.006 C 
ENDBRANCH   8   9
BRANCH   8  11
ATOM     11  C   LIG d   1      11.548  80.895 112.823  0.00  0.00     0.028 C 
ATOM     12  C   LIG d   1      10.817  81.795 111.815  0.00  0.00     0.006 C 
ENDBRANCH   8  11
ENDBRANCH   7   8
ENDBRANCH   1   7
BRANCH   6  13
ATOM     13  N   LIG d   1      12.274  77.756 114.359  0.00  0.00    -0.311 N 
ATOM     14  C   LIG d   1      13.400  77.202 114.808  0.00  0.00     0.210 C 
ATOM     15  C   LIG d   1      14.508  77.051 113.760  0.00  0.00     0.109 C 
ATOM     16  O   LIG d   1      13.575  76.793 115.965  0.00  0.00    -0.276 OA
ATOM     17  H   LIG d   1      12.208  78.028 113.398  0.00  0.00     0.149 HD
ENDBRANCH   6  13
BRANCH   5  18
ATOM     18  N   LIG d   1      10.604  75.583 115.710  0.00  0.00     0.381 N 
ATOM     19  H   LIG d   1      11.496  75.747 116.133  0.00  0.00    -0.090 HD
ATOM     20  H   LIG d   1      10.728  74.934 114.954  0.00  0.00    -0.090 HD
ATOM     21  H   LIG d   1       9.973  75.205 116.382  0.00  0.00    -0.090 HD
ENDBRANCH   5  18
BRANCH   3  22
ATOM     22  C   LIG d   1       6.954  78.681 115.846  0.00  0.00     0.382 C 
ATOM     23  O   LIG d   1       6.132  77.926 115.272  0.00  0.00    -0.241 OA
ATOM     24  O   LIG d   1       6.537  79.635 116.530  0.00  0.00    -0.241 OA
ENDBRANCH   3  22
TORSDOF 7
ENDMDL
MODEL 7
REMARK VINA RESULT:      -4.6      9.607     11.085
REMARK  7 active torsions:
REMARK  status: ('A' for Active; 'I' for Inactive)
REMARK    1  A    between atoms: C_2  and  C_3 
REMARK    2  A    between atoms: C_3  and  O_6 
REMARK    3  A    between atoms: C_3  and  C_4 
REMARK    4  A    between atoms: C_7  and  O_6 
REMARK    5  A    between atoms: C_9  and  C_10 
REMARK    6  A    between atoms: N_15  and  C_14 
REMARK    7  A    between atoms: N_20  and  C_19 
REMARK       I    between atoms: C_22  and  N_20 
ROOT
ATOM      1  C   LIG d   1      10.964  80.014 115.055  0.00  0.00     0.161 C 
ATOM      2  C   LIG d   1      12.229  80.229 114.484  0.00  0.00     0.016 C 
ATOM      3  C   LIG d   1      13.083  79.182 114.067  0.00  0.00     0.038 C 
ATOM      4  C   LIG d   1      12.663  77.844 114.054  0.00  0.00     0.028 C 
ATOM      5  C   LIG d   1      11.587  77.537 115.091  0.00  0.00    -0.047 C 
ATOM      6  C   LIG d   1      10.443  78.566 114.947  0.00  0.00     0.091 C 
ENDROOT
BRANCH   1   7
ATOM      7  O   LIG d   1      10.009  80.933 114.488  0.00  0.00    -0.368 OA
BRANCH   7   8
ATOM      8  C   LIG d   1      10.488  82.278 114.240  0.00  0.00     0.119 C 
BRANCH   8   9
ATOM      9  C   LIG d   1       9.735  83.222 115.197  0.00  0.00     0.028 C 
ATOM     10  C   LIG d   1      10.508  83.472 116.503  0.00  0.00     0.006 C 
ENDBRANCH   8   9
BRANCH   8  11
ATOM     11  C   LIG d   1      10.119  82.750 112.831  0.00  0.00     0.028 C 
ATOM     12  C   LIG d   1      10.776  81.905 111.728  0.00  0.00     0.006 C 
ENDBRANCH   8  11
ENDBRANCH   7   8
ENDBRANCH   1   7
BRANCH   6  13
ATOM     13  N   LIG d   1       9.388  78.388 115.978  0.00  0.00    -0.311 N 
ATOM     14  C   LIG d   1       8.344  77.575 115.827  0.00  0.00     0.210 C 
ATOM     15  C   LIG d   1       7.364  77.556 117.004  0.00  0.00     0.109 C 
ATOM     16  O   LIG d   1       8.154  76.843 114.844  0.00  0.00    -0.276 OA
ATOM     17  H   LIG d   1       9.480  78.921 116.821  0.00  0.00     0.149 HD
ENDBRANCH   6  13
BRANCH   5  18
ATOM     18  N   LIG d   1      11.145  76.146 114.875  0.00  0.00     0.381 N 
ATOM     19  H   LIG d   1      11.905  75.518 115.046  0.00  0.00    -0.090 HD
ATOM     20  H   LIG d   1      10.858  76.041 113.918  0.00  0.00    -0.090 HD
ATOM     21  H   LIG d   1      10.385  75.932 115.482  0.00  0.00    -0.090 HD
ENDBRANCH   5  18
BRANCH   3  22
ATOM     22  C   LIG d   1      14.388  79.467 113.694  0.00  0.00     0.382 C 
ATOM     23  O   LIG d   1      14.723  79.402 112.487  0.00  0.00    -0.241 OA
ATOM     24  O   LIG d   1      15.244  79.745 114.554  0.00  0.00    -0.241 OA
ENDBRANCH   3  22
TORSDOF 7
ENDMDL
MODEL 8
REMARK VINA RESULT:      -4.5     11.245     12.600
REMARK  7 active torsions:
REMARK  status: ('A' for Active; 'I' for Inactive)
REMARK    1  A    between atoms: C_2  and  C_3 
REMARK    2  A    between atoms: C_3  and  O_6 
REMARK    3  A    between atoms: C_3  and  C_4 
REMARK    4  A    between atoms: C_7  and  O_6 
REMARK    5  A    between atoms: C_9  and  C_10 
REMARK    6  A    between atoms: N_15  and  C_14 
REMARK    7  A    between atoms: N_20  and  C_19 
REMARK       I    between atoms: C_22  and  N_20 
ROOT
ATOM      1  C   LIG d   1      12.713  79.248 113.148  0.00  0.00     0.161 C 
ATOM      2  C   LIG d   1      12.231  80.494 112.711  0.00  0.00     0.016 C 
ATOM      3  C   LIG d   1      11.121  81.146 113.294  0.00  0.00     0.038 C 
ATOM      4  C   LIG d   1      10.505  80.665 114.459  0.00  0.00     0.028 C 
ATOM      5  C   LIG d   1      10.636  79.156 114.634  0.00  0.00    -0.047 C 
ATOM      6  C   LIG d   1      12.124  78.761 114.489  0.00  0.00     0.091 C 
ENDROOT
BRANCH   1   7
ATOM      7  O   LIG d   1      14.152  79.277 113.215  0.00  0.00    -0.368 OA
BRANCH   7   8
ATOM      8  C   LIG d   1      14.854  78.879 112.011  0.00  0.00     0.119 C 
BRANCH   8   9
ATOM      9  C   LIG d   1      14.882  77.339 111.980  0.00  0.00     0.028 C 
ATOM     10  C   LIG d   1      15.601  76.740 113.201  0.00  0.00     0.006 C 
ENDBRANCH   8   9
BRANCH   8  11
ATOM     11  C   LIG d   1      16.323  79.311 112.054  0.00  0.00     0.028 C 
ATOM     12  C   LIG d   1      17.048  79.089 110.717  0.00  0.00     0.006 C 
ENDBRANCH   8  11
ENDBRANCH   7   8
ENDBRANCH   1   7
BRANCH   6  13
ATOM     13  N   LIG d   1      12.330  77.291 114.563  0.00  0.00    -0.311 N 
ATOM     14  C   LIG d   1      12.651  76.652 115.686  0.00  0.00     0.210 C 
ATOM     15  C   LIG d   1      12.837  75.138 115.538  0.00  0.00     0.109 C 
ATOM     16  O   LIG d   1      12.769  77.190 116.797  0.00  0.00    -0.276 OA
ATOM     17  H   LIG d   1      12.223  76.772 113.713  0.00  0.00     0.149 HD
ENDBRANCH   6  13
BRANCH   5  18
ATOM     18  N   LIG d   1      10.073  78.810 115.953  0.00  0.00     0.381 N 
ATOM     19  H   LIG d   1       9.381  79.484 116.213  0.00  0.00    -0.090 HD
ATOM     20  H   LIG d   1      10.808  78.833 116.637  0.00  0.00    -0.090 HD
ATOM     21  H   LIG d   1       9.666  77.901 115.922  0.00  0.00    -0.090 HD
ENDBRANCH   5  18
BRANCH   3  22
ATOM     22  C   LIG d   1      10.590  82.274 112.686  0.00  0.00     0.382 C 
ATOM     23  O   LIG d   1       9.771  82.994 113.306  0.00  0.00    -0.241 OA
ATOM     24  O   LIG d   1      10.886  82.556 111.509  0.00  0.00    -0.241 OA
ENDBRANCH   3  22
TORSDOF 7
ENDMDL
MODEL 9
REMARK VINA RESULT:      -4.4     11.119     12.788
REMARK  7 active torsions:
REMARK  status: ('A' for Active; 'I' for Inactive)
REMARK    1  A    between atoms: C_2  and  C_3 
REMARK    2  A    between atoms: C_3  and  O_6 
REMARK    3  A    between atoms: C_3  and  C_4 
REMARK    4  A    between atoms: C_7  and  O_6 
REMARK    5  A    between atoms: C_9  and  C_10 
REMARK    6  A    between atoms: N_15  and  C_14 
REMARK    7  A    between atoms: N_20  and  C_19 
REMARK       I    between atoms: C_22  and  N_20 
ROOT
ATOM      1  C   LIG d   1      12.054  78.169 114.560  0.00  0.00     0.161 C 
ATOM      2  C   LIG d   1      12.752  77.071 115.091  0.00  0.00     0.016 C 
ATOM      3  C   LIG d   1      13.955  76.573 114.540  0.00  0.00     0.038 C 
ATOM      4  C   LIG d   1      14.627  77.238 113.503  0.00  0.00     0.028 C 
ATOM      5  C   LIG d   1      13.702  78.058 112.610  0.00  0.00    -0.047 C 
ATOM      6  C   LIG d   1      12.830  78.975 113.498  0.00  0.00     0.091 C 
ENDROOT
BRANCH   1   7
ATOM      7  O   LIG d   1      11.621  79.035 115.628  0.00  0.00    -0.368 OA
BRANCH   7   8
ATOM      8  C   LIG d   1      10.213  78.975 115.964  0.00  0.00     0.119 C 
BRANCH   8   9
ATOM      9  C   LIG d   1       9.622  77.734 115.269  0.00  0.00     0.028 C 
ATOM     10  C   LIG d   1       8.136  77.524 115.604  0.00  0.00     0.006 C 
ENDBRANCH   8   9
BRANCH   8  11
ATOM     11  C   LIG d   1       9.450  80.168 115.381  0.00  0.00     0.028 C 
ATOM     12  C   LIG d   1       9.950  81.517 115.921  0.00  0.00     0.006 C 
ENDBRANCH   8  11
ENDBRANCH   7   8
ENDBRANCH   1   7
BRANCH   6  13
ATOM     13  N   LIG d   1      11.837  79.750 112.708  0.00  0.00    -0.311 N 
ATOM     14  C   LIG d   1      11.801  81.081 112.681  0.00  0.00     0.210 C 
ATOM     15  C   LIG d   1      10.685  81.680 111.820  0.00  0.00     0.109 C 
ATOM     16  O   LIG d   1      12.607  81.823 113.263  0.00  0.00    -0.276 OA
ATOM     17  H   LIG d   1      11.165  79.228 112.182  0.00  0.00     0.149 HD
ENDBRANCH   6  13
BRANCH   5  18
ATOM     18  N   LIG d   1      14.547  78.805 111.660  0.00  0.00     0.381 N 
ATOM     19  H   LIG d   1      13.973  79.384 111.079  0.00  0.00    -0.090 HD
ATOM     20  H   LIG d   1      15.032  78.151 111.072  0.00  0.00    -0.090 HD
ATOM     21  H   LIG d   1      15.203  79.367 112.156  0.00  0.00    -0.090 HD
ENDBRANCH   5  18
BRANCH   3  22
ATOM     22  C   LIG d   1      14.478  75.374 115.001  0.00  0.00     0.382 C 
ATOM     23  O   LIG d   1      13.738  74.556 115.598  0.00  0.00    -0.241 OA
ATOM     24  O   LIG d   1      15.690  75.120 114.866  0.00  0.00    -0.241 OA
ENDBRANCH   3  22
TORSDOF 7
ENDMDL
