MODEL 1
REMARK VINA RESULT:      -5.6      0.000      0.000
REMARK  7 active torsions:
REMARK  status: ('A' for Active; 'I' for Inactive)
REMARK    1  A    between atoms: C_2  and  C_3 
REMARK    2  A    between atoms: C_3  and  O_6 
REMARK    3  A    between atoms: C_3  and  C_4 
REMARK    4  A    between atoms: C_7  and  O_6 
REMARK    5  A    between atoms: C_9  and  C_10 
REMARK    6  A    between atoms: N_15  and  C_14 
REMARK    7  A    between atoms: N_20  and  C_19 
REMARK       I    between atoms: C_22  and  N_20 
ROOT
ATOM      1  C   LIG d   1       2.944  86.162 112.360  0.00  0.00     0.161 C 
ATOM      2  C   LIG d   1       3.355  87.494 112.533  0.00  0.00     0.016 C 
ATOM      3  C   LIG d   1       3.546  88.092 113.800  0.00  0.00     0.038 C 
ATOM      4  C   LIG d   1       3.485  87.347 114.987  0.00  0.00     0.028 C 
ATOM      5  C   LIG d   1       2.581  86.123 114.889  0.00  0.00    -0.047 C 
ATOM      6  C   LIG d   1       2.980  85.303 113.642  0.00  0.00     0.091 C 
ENDROOT
BRANCH   1   7
ATOM      7  O   LIG d   1       3.723  85.541 111.319  0.00  0.00    -0.368 OA
BRANCH   7   8
ATOM      8  C   LIG d   1       2.991  85.114 110.144  0.00  0.00     0.119 C 
BRANCH   8   9
ATOM      9  C   LIG d   1       1.562  85.678 110.258  0.00  0.00     0.028 C 
ATOM     10  C   LIG d   1       0.487  84.597 110.055  0.00  0.00     0.006 C 
ENDBRANCH   8   9
BRANCH   8  11
ATOM     11  C   LIG d   1       2.826  83.592 110.113  0.00  0.00     0.028 C 
ATOM     12  C   LIG d   1       4.117  82.845 110.482  0.00  0.00     0.006 C 
ENDBRANCH   8  11
ENDBRANCH   7   8
ENDBRANCH   1   7
BRANCH   6  13
ATOM     13  N   LIG d   1       2.090  84.133 113.424  0.00  0.00    -0.311 N 
ATOM     14  C   LIG d   1       2.355  82.914 113.890  0.00  0.00     0.210 C 
ATOM     15  C   LIG d   1       1.316  81.846 113.535  0.00  0.00     0.109 C 
ATOM     16  O   LIG d   1       3.336  82.622 114.591  0.00  0.00    -0.276 OA
ATOM     17  H   LIG d   1       1.256  84.287 112.892  0.00  0.00     0.149 HD
ENDBRANCH   6  13
BRANCH   5  18
ATOM     18  N   LIG d   1       2.718  85.366 116.148  0.00  0.00     0.381 N 
ATOM     19  H   LIG d   1       3.609  85.556 116.562  0.00  0.00    -0.090 HD
ATOM     20  H   LIG d   1       2.668  84.383 115.943  0.00  0.00    -0.090 HD
ATOM     21  H   LIG d   1       1.990  85.618 116.779  0.00  0.00    -0.090 HD
ENDBRANCH   5  18
BRANCH   3  22
ATOM     22  C   LIG d   1       3.763  89.458 113.890  0.00  0.00     0.382 C 
ATOM     23  O   LIG d   1       4.197  90.091 112.897  0.00  0.00    -0.241 OA
ATOM     24  O   LIG d   1       3.573  90.059 114.964  0.00  0.00    -0.241 OA
ENDBRANCH   3  22
TORSDOF 7
ENDMDL
MODEL 2
REMARK VINA RESULT:      -5.4      2.373      4.136
REMARK  7 active torsions:
REMARK  status: ('A' for Active; 'I' for Inactive)
REMARK    1  A    between atoms: C_2  and  C_3 
REMARK    2  A    between atoms: C_3  and  O_6 
REMARK    3  A    between atoms: C_3  and  C_4 
REMARK    4  A    between atoms: C_7  and  O_6 
REMARK    5  A    between atoms: C_9  and  C_10 
REMARK    6  A    between atoms: N_15  and  C_14 
REMARK    7  A    between atoms: N_20  and  C_19 
REMARK       I    between atoms: C_22  and  N_20 
ROOT
ATOM      1  C   LIG d   1       2.909  84.163 112.097  0.00  0.00     0.161 C 
ATOM      2  C   LIG d   1       3.306  85.474 112.407  0.00  0.00     0.016 C 
ATOM      3  C   LIG d   1       2.560  86.619 112.046  0.00  0.00     0.038 C 
ATOM      4  C   LIG d   1       1.281  86.522 111.479  0.00  0.00     0.028 C 
ATOM      5  C   LIG d   1       1.063  85.234 110.691  0.00  0.00    -0.047 C 
ATOM      6  C   LIG d   1       1.462  84.032 111.577  0.00  0.00     0.091 C 
ENDROOT
BRANCH   1   7
ATOM      7  O   LIG d   1       3.110  83.308 113.240  0.00  0.00    -0.368 OA
BRANCH   7   8
ATOM      8  C   LIG d   1       1.970  83.141 114.119  0.00  0.00     0.119 C 
BRANCH   8   9
ATOM      9  C   LIG d   1       2.322  83.806 115.464  0.00  0.00     0.028 C 
ATOM     10  C   LIG d   1       1.535  85.106 115.700  0.00  0.00     0.006 C 
ENDBRANCH   8   9
BRANCH   8  11
ATOM     11  C   LIG d   1       1.731  81.665 114.447  0.00  0.00     0.028 C 
ATOM     12  C   LIG d   1       2.629  81.154 115.585  0.00  0.00     0.006 C 
ENDBRANCH   8  11
ENDBRANCH   7   8
ENDBRANCH   1   7
BRANCH   6  13
ATOM     13  N   LIG d   1       1.359  82.737 110.854  0.00  0.00    -0.311 N 
ATOM     14  C   LIG d   1       0.259  81.987 110.847  0.00  0.00     0.210 C 
ATOM     15  C   LIG d   1       0.373  80.680 110.056  0.00  0.00     0.109 C 
ATOM     16  O   LIG d   1      -0.811  82.295 111.393  0.00  0.00    -0.276 OA
ATOM     17  H   LIG d   1       2.171  82.426 110.358  0.00  0.00     0.149 HD
ENDBRANCH   6  13
BRANCH   5  18
ATOM     18  N   LIG d   1      -0.351  85.201 110.273  0.00  0.00     0.381 N 
ATOM     19  H   LIG d   1      -0.409  85.205 109.275  0.00  0.00    -0.090 HD
ATOM     20  H   LIG d   1      -0.812  86.024 110.619  0.00  0.00    -0.090 HD
ATOM     21  H   LIG d   1      -0.795  84.386 110.636  0.00  0.00    -0.090 HD
ENDBRANCH   5  18
BRANCH   3  22
ATOM     22  C   LIG d   1       3.111  87.880 112.216  0.00  0.00     0.382 C 
ATOM     23  O   LIG d   1       2.373  88.895 112.199  0.00  0.00    -0.241 OA
ATOM     24  O   LIG d   1       4.342  88.020 112.341  0.00  0.00    -0.241 OA
ENDBRANCH   3  22
TORSDOF 7
ENDMDL
MODEL 3
REMARK VINA RESULT:      -5.4      1.704      2.313
REMARK  7 active torsions:
REMARK  status: ('A' for Active; 'I' for Inactive)
REMARK    1  A    between atoms: C_2  and  C_3 
REMARK    2  A    between atoms: C_3  and  O_6 
REMARK    3  A    between atoms: C_3  and  C_4 
REMARK    4  A    between atoms: C_7  and  O_6 
REMARK    5  A    between atoms: C_9  and  C_10 
REMARK    6  A    between atoms: N_15  and  C_14 
REMARK    7  A    between atoms: N_20  and  C_19 
REMARK       I    between atoms: C_22  and  N_20 
ROOT
ATOM      1  C   LIG d   1       2.893  84.784 113.217  0.00  0.00     0.161 C 
ATOM      2  C   LIG d   1       2.948  86.050 112.610  0.00  0.00     0.016 C 
ATOM      3  C   LIG d   1       3.308  87.230 113.302  0.00  0.00     0.038 C 
ATOM      4  C   LIG d   1       3.787  87.199 114.620  0.00  0.00     0.028 C 
ATOM      5  C   LIG d   1       3.269  86.013 115.426  0.00  0.00    -0.047 C 
ATOM      6  C   LIG d   1       3.520  84.715 114.626  0.00  0.00     0.091 C 
ENDROOT
BRANCH   1   7
ATOM      7  O   LIG d   1       3.495  83.801 112.352  0.00  0.00    -0.368 OA
BRANCH   7   8
ATOM      8  C   LIG d   1       2.584  83.044 111.517  0.00  0.00     0.119 C 
BRANCH   8   9
ATOM      9  C   LIG d   1       2.422  81.650 112.153  0.00  0.00     0.028 C 
ATOM     10  C   LIG d   1       0.947  81.262 112.349  0.00  0.00     0.006 C 
ENDBRANCH   8   9
BRANCH   8  11
ATOM     11  C   LIG d   1       3.182  82.790 110.130  0.00  0.00     0.028 C 
ATOM     12  C   LIG d   1       3.976  81.476 110.055  0.00  0.00     0.006 C 
ENDBRANCH   8  11
ENDBRANCH   7   8
ENDBRANCH   1   7
BRANCH   6  13
ATOM     13  N   LIG d   1       2.966  83.514 115.305  0.00  0.00    -0.311 N 
ATOM     14  C   LIG d   1       3.695  82.706 116.073  0.00  0.00     0.210 C 
ATOM     15  C   LIG d   1       2.933  81.514 116.662  0.00  0.00     0.109 C 
ATOM     16  O   LIG d   1       4.891  82.880 116.348  0.00  0.00    -0.276 OA
ATOM     17  H   LIG d   1       1.995  83.316 115.162  0.00  0.00     0.149 HD
ENDBRANCH   6  13
BRANCH   5  18
ATOM     18  N   LIG d   1       3.953  86.029 116.732  0.00  0.00     0.381 N 
ATOM     19  H   LIG d   1       3.502  85.393 117.359  0.00  0.00    -0.090 HD
ATOM     20  H   LIG d   1       3.890  86.953 117.121  0.00  0.00    -0.090 HD
ATOM     21  H   LIG d   1       4.909  85.773 116.619  0.00  0.00    -0.090 HD
ENDBRANCH   5  18
BRANCH   3  22
ATOM     22  C   LIG d   1       3.152  88.462 112.685  0.00  0.00     0.382 C 
ATOM     23  O   LIG d   1       3.978  89.381 112.903  0.00  0.00    -0.241 OA
ATOM     24  O   LIG d   1       2.171  88.681 111.950  0.00  0.00    -0.241 OA
ENDBRANCH   3  22
TORSDOF 7
ENDMDL
MODEL 4
REMARK VINA RESULT:      -5.3      2.244      4.345
REMARK  7 active torsions:
REMARK  status: ('A' for Active; 'I' for Inactive)
REMARK    1  A    between atoms: C_2  and  C_3 
REMARK    2  A    between atoms: C_3  and  O_6 
REMARK    3  A    between atoms: C_3  and  C_4 
REMARK    4  A    between atoms: C_7  and  O_6 
REMARK    5  A    between atoms: C_9  and  C_10 
REMARK    6  A    between atoms: N_15  and  C_14 
REMARK    7  A    between atoms: N_20  and  C_19 
REMARK       I    between atoms: C_22  and  N_20 
ROOT
ATOM      1  C   LIG d   1       2.422  85.682 113.833  0.00  0.00     0.161 C 
ATOM      2  C   LIG d   1       3.078  86.899 114.082  0.00  0.00     0.016 C 
ATOM      3  C   LIG d   1       3.284  87.888 113.093  0.00  0.00     0.038 C 
ATOM      4  C   LIG d   1       2.711  87.791 111.817  0.00  0.00     0.028 C 
ATOM      5  C   LIG d   1       2.470  86.354 111.368  0.00  0.00    -0.047 C 
ATOM      6  C   LIG d   1       1.692  85.606 112.476  0.00  0.00     0.091 C 
ENDROOT
BRANCH   1   7
ATOM      7  O   LIG d   1       1.509  85.390 114.910  0.00  0.00    -0.368 OA
BRANCH   7   8
ATOM      8  C   LIG d   1       2.103  84.883 116.130  0.00  0.00     0.119 C 
BRANCH   8   9
ATOM      9  C   LIG d   1       1.543  83.467 116.364  0.00  0.00     0.028 C 
ATOM     10  C   LIG d   1       2.155  82.428 115.410  0.00  0.00     0.006 C 
ENDBRANCH   8   9
BRANCH   8  11
ATOM     11  C   LIG d   1       1.661  85.701 117.347  0.00  0.00     0.028 C 
ATOM     12  C   LIG d   1       0.720  86.858 116.977  0.00  0.00     0.006 C 
ENDBRANCH   8  11
ENDBRANCH   7   8
ENDBRANCH   1   7
BRANCH   6  13
ATOM     13  N   LIG d   1       1.488  84.170 112.154  0.00  0.00    -0.311 N 
ATOM     14  C   LIG d   1       0.318  83.548 112.285  0.00  0.00     0.210 C 
ATOM     15  C   LIG d   1       0.331  82.061 111.918  0.00  0.00     0.109 C 
ATOM     16  O   LIG d   1      -0.738  84.095 112.639  0.00  0.00    -0.276 OA
ATOM     17  H   LIG d   1       2.285  83.657 111.830  0.00  0.00     0.149 HD
ENDBRANCH   6  13
BRANCH   5  18
ATOM     18  N   LIG d   1       1.745  86.402 110.085  0.00  0.00     0.381 N 
ATOM     19  H   LIG d   1       0.827  86.020 110.199  0.00  0.00    -0.090 HD
ATOM     20  H   LIG d   1       2.238  85.844 109.411  0.00  0.00    -0.090 HD
ATOM     21  H   LIG d   1       1.682  87.344 109.764  0.00  0.00    -0.090 HD
ENDBRANCH   5  18
BRANCH   3  22
ATOM     22  C   LIG d   1       4.105  88.972 113.366  0.00  0.00     0.382 C 
ATOM     23  O   LIG d   1       3.650  89.964 113.985  0.00  0.00    -0.241 OA
ATOM     24  O   LIG d   1       5.283  88.989 112.962  0.00  0.00    -0.241 OA
ENDBRANCH   3  22
TORSDOF 7
ENDMDL
MODEL 5
REMARK VINA RESULT:      -5.3      1.284      2.021
REMARK  7 active torsions:
REMARK  status: ('A' for Active; 'I' for Inactive)
REMARK    1  A    between atoms: C_2  and  C_3 
REMARK    2  A    between atoms: C_3  and  O_6 
REMARK    3  A    between atoms: C_3  and  C_4 
REMARK    4  A    between atoms: C_7  and  O_6 
REMARK    5  A    between atoms: C_9  and  C_10 
REMARK    6  A    between atoms: N_15  and  C_14 
REMARK    7  A    between atoms: N_20  and  C_19 
REMARK       I    between atoms: C_22  and  N_20 
ROOT
ATOM      1  C   LIG d   1       3.004  85.933 113.524  0.00  0.00     0.161 C 
ATOM      2  C   LIG d   1       3.277  87.295 113.315  0.00  0.00     0.016 C 
ATOM      3  C   LIG d   1       3.808  88.145 114.312  0.00  0.00     0.038 C 
ATOM      4  C   LIG d   1       4.245  87.651 115.551  0.00  0.00     0.028 C 
ATOM      5  C   LIG d   1       3.522  86.381 115.986  0.00  0.00    -0.047 C 
ATOM      6  C   LIG d   1       3.577  85.352 114.833  0.00  0.00     0.091 C 
ENDROOT
BRANCH   1   7
ATOM      7  O   LIG d   1       3.458  85.164 112.393  0.00  0.00    -0.368 OA
BRANCH   7   8
ATOM      8  C   LIG d   1       2.427  84.513 111.610  0.00  0.00     0.119 C 
BRANCH   8   9
ATOM      9  C   LIG d   1       2.870  83.055 111.382  0.00  0.00     0.028 C 
ATOM     10  C   LIG d   1       4.139  82.954 110.519  0.00  0.00     0.006 C 
ENDBRANCH   8   9
BRANCH   8  11
ATOM     11  C   LIG d   1       2.320  85.127 110.211  0.00  0.00     0.028 C 
ATOM     12  C   LIG d   1       1.104  86.055 110.059  0.00  0.00     0.006 C 
ENDBRANCH   8  11
ENDBRANCH   7   8
ENDBRANCH   1   7
BRANCH   6  13
ATOM     13  N   LIG d   1       2.821  84.111 115.144  0.00  0.00    -0.311 N 
ATOM     14  C   LIG d   1       3.380  83.025 115.675  0.00  0.00     0.210 C 
ATOM     15  C   LIG d   1       2.424  81.849 115.898  0.00  0.00     0.109 C 
ATOM     16  O   LIG d   1       4.570  82.936 116.013  0.00  0.00    -0.276 OA
ATOM     17  H   LIG d   1       1.843  84.108 114.931  0.00  0.00     0.149 HD
ENDBRANCH   6  13
BRANCH   5  18
ATOM     18  N   LIG d   1       4.170  85.901 117.221  0.00  0.00     0.381 N 
ATOM     19  H   LIG d   1       5.156  86.060 117.171  0.00  0.00    -0.090 HD
ATOM     20  H   LIG d   1       4.014  84.912 117.306  0.00  0.00    -0.090 HD
ATOM     21  H   LIG d   1       3.789  86.373 118.011  0.00  0.00    -0.090 HD
ENDBRANCH   5  18
BRANCH   3  22
ATOM     22  C   LIG d   1       3.869  89.512 114.090  0.00  0.00     0.382 C 
ATOM     23  O   LIG d   1       4.165  89.949 112.952  0.00  0.00    -0.241 OA
ATOM     24  O   LIG d   1       3.675  90.313 115.023  0.00  0.00    -0.241 OA
ENDBRANCH   3  22
TORSDOF 7
ENDMDL
MODEL 6
REMARK VINA RESULT:      -5.0      2.621      6.271
REMARK  7 active torsions:
REMARK  status: ('A' for Active; 'I' for Inactive)
REMARK    1  A    between atoms: C_2  and  C_3 
REMARK    2  A    between atoms: C_3  and  O_6 
REMARK    3  A    between atoms: C_3  and  C_4 
REMARK    4  A    between atoms: C_7  and  O_6 
REMARK    5  A    between atoms: C_9  and  C_10 
REMARK    6  A    between atoms: N_15  and  C_14 
REMARK    7  A    between atoms: N_20  and  C_19 
REMARK       I    between atoms: C_22  and  N_20 
ROOT
ATOM      1  C   LIG d   1       1.781  84.518 113.468  0.00  0.00     0.161 C 
ATOM      2  C   LIG d   1       0.976  83.435 113.077  0.00  0.00     0.016 C 
ATOM      3  C   LIG d   1       0.413  83.310 111.786  0.00  0.00     0.038 C 
ATOM      4  C   LIG d   1       0.742  84.190 110.745  0.00  0.00     0.028 C 
ATOM      5  C   LIG d   1       1.148  85.578 111.230  0.00  0.00    -0.047 C 
ATOM      6  C   LIG d   1       2.242  85.431 112.312  0.00  0.00     0.091 C 
ENDROOT
BRANCH   1   7
ATOM      7  O   LIG d   1       2.918  84.038 114.212  0.00  0.00    -0.368 OA
BRANCH   7   8
ATOM      8  C   LIG d   1       2.926  84.338 115.629  0.00  0.00     0.119 C 
BRANCH   8   9
ATOM      9  C   LIG d   1       2.688  83.016 116.384  0.00  0.00     0.028 C 
ATOM     10  C   LIG d   1       1.311  82.969 117.067  0.00  0.00     0.006 C 
ENDBRANCH   8   9
BRANCH   8  11
ATOM     11  C   LIG d   1       1.750  85.241 116.013  0.00  0.00     0.028 C 
ATOM     12  C   LIG d   1       2.199  86.614 116.537  0.00  0.00     0.006 C 
ENDBRANCH   8  11
ENDBRANCH   7   8
ENDBRANCH   1   7
BRANCH   6  13
ATOM     13  N   LIG d   1       2.636  86.737 112.901  0.00  0.00    -0.311 N 
ATOM     14  C   LIG d   1       3.664  87.460 112.460  0.00  0.00     0.210 C 
ATOM     15  C   LIG d   1       3.910  88.767 113.221  0.00  0.00     0.109 C 
ATOM     16  O   LIG d   1       4.376  87.159 111.490  0.00  0.00    -0.276 OA
ATOM     17  H   LIG d   1       2.093  87.072 113.673  0.00  0.00     0.149 HD
ENDBRANCH   6  13
BRANCH   5  18
ATOM     18  N   LIG d   1       1.597  86.348 110.055  0.00  0.00     0.381 N 
ATOM     19  H   LIG d   1       1.148  86.000 109.231  0.00  0.00    -0.090 HD
ATOM     20  H   LIG d   1       2.589  86.229 109.948  0.00  0.00    -0.090 HD
ATOM     21  H   LIG d   1       1.382  87.313 110.177  0.00  0.00    -0.090 HD
ENDBRANCH   5  18
BRANCH   3  22
ATOM     22  C   LIG d   1      -0.523  82.317 111.538  0.00  0.00     0.382 C 
ATOM     23  O   LIG d   1      -1.551  82.232 112.252  0.00  0.00    -0.241 OA
ATOM     24  O   LIG d   1      -0.330  81.478 110.637  0.00  0.00    -0.241 OA
ENDBRANCH   3  22
TORSDOF 7
ENDMDL
MODEL 7
REMARK VINA RESULT:      -4.9      2.454      4.668
REMARK  7 active torsions:
REMARK  status: ('A' for Active; 'I' for Inactive)
REMARK    1  A    between atoms: C_2  and  C_3 
REMARK    2  A    between atoms: C_3  and  O_6 
REMARK    3  A    between atoms: C_3  and  C_4 
REMARK    4  A    between atoms: C_7  and  O_6 
REMARK    5  A    between atoms: C_9  and  C_10 
REMARK    6  A    between atoms: N_15  and  C_14 
REMARK    7  A    between atoms: N_20  and  C_19 
REMARK       I    between atoms: C_22  and  N_20 
ROOT
ATOM      1  C   LIG d   1       2.035  84.092 113.027  0.00  0.00     0.161 C 
ATOM      2  C   LIG d   1       2.569  85.391 113.032  0.00  0.00     0.016 C 
ATOM      3  C   LIG d   1       2.166  86.402 112.129  0.00  0.00     0.038 C 
ATOM      4  C   LIG d   1       1.085  86.225 111.253  0.00  0.00     0.028 C 
ATOM      5  C   LIG d   1       0.851  84.768 110.866  0.00  0.00    -0.047 C 
ATOM      6  C   LIG d   1       0.776  83.914 112.152  0.00  0.00     0.091 C 
ENDROOT
BRANCH   1   7
ATOM      7  O   LIG d   1       1.769  83.668 114.379  0.00  0.00    -0.368 OA
BRANCH   7   8
ATOM      8  C   LIG d   1       2.525  84.338 115.417  0.00  0.00     0.119 C 
BRANCH   8   9
ATOM      9  C   LIG d   1       3.305  83.258 116.192  0.00  0.00     0.028 C 
ATOM     10  C   LIG d   1       2.915  81.833 115.766  0.00  0.00     0.006 C 
ENDBRANCH   8   9
BRANCH   8  11
ATOM     11  C   LIG d   1       1.600  84.989 116.449  0.00  0.00     0.028 C 
ATOM     12  C   LIG d   1       1.391  86.491 116.199  0.00  0.00     0.006 C 
ENDBRANCH   8  11
ENDBRANCH   7   8
ENDBRANCH   1   7
BRANCH   6  13
ATOM     13  N   LIG d   1       0.633  82.463 111.861  0.00  0.00    -0.311 N 
ATOM     14  C   LIG d   1      -0.532  81.819 111.903  0.00  0.00     0.210 C 
ATOM     15  C   LIG d   1      -0.454  80.321 111.588  0.00  0.00     0.109 C 
ATOM     16  O   LIG d   1      -1.627  82.351 112.138  0.00  0.00    -0.276 OA
ATOM     17  H   LIG d   1       1.467  81.960 111.630  0.00  0.00     0.149 HD
ENDBRANCH   6  13
BRANCH   5  18
ATOM     18  N   LIG d   1      -0.386  84.713 110.063  0.00  0.00     0.381 N 
ATOM     19  H   LIG d   1      -0.162  84.505 109.111  0.00  0.00    -0.090 HD
ATOM     20  H   LIG d   1      -0.833  85.613 110.093  0.00  0.00    -0.090 HD
ATOM     21  H   LIG d   1      -0.998  84.018 110.428  0.00  0.00    -0.090 HD
ENDBRANCH   5  18
BRANCH   3  22
ATOM     22  C   LIG d   1       2.873  87.593 112.070  0.00  0.00     0.382 C 
ATOM     23  O   LIG d   1       4.115  87.576 111.890  0.00  0.00    -0.241 OA
ATOM     24  O   LIG d   1       2.292  88.682 112.238  0.00  0.00    -0.241 OA
ENDBRANCH   3  22
TORSDOF 7
ENDMDL
MODEL 8
REMARK VINA RESULT:      -4.8     27.320     28.855
REMARK  7 active torsions:
REMARK  status: ('A' for Active; 'I' for Inactive)
REMARK    1  A    between atoms: C_2  and  C_3 
REMARK    2  A    between atoms: C_3  and  O_6 
REMARK    3  A    between atoms: C_3  and  C_4 
REMARK    4  A    between atoms: C_7  and  O_6 
REMARK    5  A    between atoms: C_9  and  C_10 
REMARK    6  A    between atoms: N_15  and  C_14 
REMARK    7  A    between atoms: N_20  and  C_19 
REMARK       I    between atoms: C_22  and  N_20 
ROOT
ATOM      1  C   LIG d   1     -26.057  86.124 114.160  0.00  0.00     0.161 C 
ATOM      2  C   LIG d   1     -24.829  86.805 114.221  0.00  0.00     0.016 C 
ATOM      3  C   LIG d   1     -23.593  86.211 113.879  0.00  0.00     0.038 C 
ATOM      4  C   LIG d   1     -23.517  84.933 113.306  0.00  0.00     0.028 C 
ATOM      5  C   LIG d   1     -24.676  84.024 113.698  0.00  0.00    -0.047 C 
ATOM      6  C   LIG d   1     -26.007  84.765 113.432  0.00  0.00     0.091 C 
ENDROOT
BRANCH   1   7
ATOM      7  O   LIG d   1     -27.058  86.974 113.568  0.00  0.00    -0.368 OA
BRANCH   7   8
ATOM      8  C   LIG d   1     -26.632  87.765 112.431  0.00  0.00     0.119 C 
BRANCH   8   9
ATOM      9  C   LIG d   1     -27.289  89.152 112.559  0.00  0.00     0.028 C 
ATOM     10  C   LIG d   1     -27.052  90.031 111.320  0.00  0.00     0.006 C 
ENDBRANCH   8   9
BRANCH   8  11
ATOM     11  C   LIG d   1     -27.164  87.184 111.117  0.00  0.00     0.028 C 
ATOM     12  C   LIG d   1     -28.528  86.494 111.280  0.00  0.00     0.006 C 
ENDBRANCH   8  11
ENDBRANCH   7   8
ENDBRANCH   1   7
BRANCH   6  13
ATOM     13  N   LIG d   1     -27.190  83.978 113.866  0.00  0.00    -0.311 N 
ATOM     14  C   LIG d   1     -27.882  83.184 113.051  0.00  0.00     0.210 C 
ATOM     15  C   LIG d   1     -29.079  82.479 113.697  0.00  0.00     0.109 C 
ATOM     16  O   LIG d   1     -27.599  82.971 111.863  0.00  0.00    -0.276 OA
ATOM     17  H   LIG d   1     -27.471  84.067 114.823  0.00  0.00     0.149 HD
ENDBRANCH   6  13
BRANCH   5  18
ATOM     18  N   LIG d   1     -24.545  82.776 112.923  0.00  0.00     0.381 N 
ATOM     19  H   LIG d   1     -25.308  82.163 113.135  0.00  0.00    -0.090 HD
ATOM     20  H   LIG d   1     -23.690  82.318 113.187  0.00  0.00    -0.090 HD
ATOM     21  H   LIG d   1     -24.535  82.979 111.948  0.00  0.00    -0.090 HD
ENDBRANCH   5  18
BRANCH   3  22
ATOM     22  C   LIG d   1     -22.410  86.884 114.148  0.00  0.00     0.382 C 
ATOM     23  O   LIG d   1     -22.384  87.779 115.027  0.00  0.00    -0.241 OA
ATOM     24  O   LIG d   1     -21.380  86.638 113.492  0.00  0.00    -0.241 OA
ENDBRANCH   3  22
TORSDOF 7
ENDMDL
MODEL 9
REMARK VINA RESULT:      -4.8      1.621      4.799
REMARK  7 active torsions:
REMARK  status: ('A' for Active; 'I' for Inactive)
REMARK    1  A    between atoms: C_2  and  C_3 
REMARK    2  A    between atoms: C_3  and  O_6 
REMARK    3  A    between atoms: C_3  and  C_4 
REMARK    4  A    between atoms: C_7  and  O_6 
REMARK    5  A    between atoms: C_9  and  C_10 
REMARK    6  A    between atoms: N_15  and  C_14 
REMARK    7  A    between atoms: N_20  and  C_19 
REMARK       I    between atoms: C_22  and  N_20 
ROOT
ATOM      1  C   LIG d   1       2.724  85.333 113.431  0.00  0.00     0.161 C 
ATOM      2  C   LIG d   1       2.205  84.067 113.750  0.00  0.00     0.016 C 
ATOM      3  C   LIG d   1       2.183  83.543 115.063  0.00  0.00     0.038 C 
ATOM      4  C   LIG d   1       2.545  84.317 116.176  0.00  0.00     0.028 C 
ATOM      5  C   LIG d   1       3.547  85.418 115.849  0.00  0.00    -0.047 C 
ATOM      6  C   LIG d   1       3.021  86.235 114.647  0.00  0.00     0.091 C 
ENDROOT
BRANCH   1   7
ATOM      7  O   LIG d   1       1.842  86.005 112.511  0.00  0.00    -0.368 OA
BRANCH   7   8
ATOM      8  C   LIG d   1       2.408  86.354 111.224  0.00  0.00     0.119 C 
BRANCH   8   9
ATOM      9  C   LIG d   1       1.429  85.864 110.140  0.00  0.00     0.028 C 
ATOM     10  C   LIG d   1       0.018  85.608 110.695  0.00  0.00     0.006 C 
ENDBRANCH   8   9
BRANCH   8  11
ATOM     11  C   LIG d   1       3.713  85.595 110.966  0.00  0.00     0.028 C 
ATOM     12  C   LIG d   1       3.520  84.372 110.055  0.00  0.00     0.006 C 
ENDBRANCH   8  11
ENDBRANCH   7   8
ENDBRANCH   1   7
BRANCH   6  13
ATOM     13  N   LIG d   1       3.981  87.281 114.208  0.00  0.00    -0.311 N 
ATOM     14  C   LIG d   1       3.640  88.552 114.006  0.00  0.00     0.210 C 
ATOM     15  C   LIG d   1       4.780  89.461 113.536  0.00  0.00     0.109 C 
ATOM     16  O   LIG d   1       2.509  89.020 114.204  0.00  0.00    -0.276 OA
ATOM     17  H   LIG d   1       4.928  86.994 114.054  0.00  0.00     0.149 HD
ENDBRANCH   6  13
BRANCH   5  18
ATOM     18  N   LIG d   1       3.730  86.231 117.066  0.00  0.00     0.381 N 
ATOM     19  H   LIG d   1       3.400  85.725 117.864  0.00  0.00    -0.090 HD
ATOM     20  H   LIG d   1       3.187  87.072 116.979  0.00  0.00    -0.090 HD
ATOM     21  H   LIG d   1       4.692  86.459 117.183  0.00  0.00    -0.090 HD
ENDBRANCH   5  18
BRANCH   3  22
ATOM     22  C   LIG d   1       1.834  82.217 115.268  0.00  0.00     0.382 C 
ATOM     23  O   LIG d   1       1.112  81.902 116.245  0.00  0.00    -0.241 OA
ATOM     24  O   LIG d   1       2.269  81.325 114.515  0.00  0.00    -0.241 OA
ENDBRANCH   3  22
TORSDOF 7
ENDMDL
