MODEL 1
REMARK VINA RESULT:      -5.6      0.000      0.000
REMARK  7 active torsions:
REMARK  status: ('A' for Active; 'I' for Inactive)
REMARK    1  A    between atoms: C_2  and  C_3 
REMARK    2  A    between atoms: C_3  and  O_6 
REMARK    3  A    between atoms: C_3  and  C_4 
REMARK    4  A    between atoms: C_7  and  O_6 
REMARK    5  A    between atoms: C_9  and  C_10 
REMARK    6  A    between atoms: N_15  and  C_14 
REMARK    7  A    between atoms: N_20  and  C_19 
REMARK       I    between atoms: C_22  and  N_20 
ROOT
ATOM      1  C   LIG d   1       1.879  85.760 114.088  0.00  0.00     0.161 C 
ATOM      2  C   LIG d   1       2.414  86.819 113.336  0.00  0.00     0.016 C 
ATOM      3  C   LIG d   1       3.761  87.238 113.430  0.00  0.00     0.038 C 
ATOM      4  C   LIG d   1       4.709  86.522 114.176  0.00  0.00     0.028 C 
ATOM      5  C   LIG d   1       4.104  85.750 115.344  0.00  0.00    -0.047 C 
ATOM      6  C   LIG d   1       2.925  84.897 114.824  0.00  0.00     0.091 C 
ENDROOT
BRANCH   1   7
ATOM      7  O   LIG d   1       1.050  84.934 113.247  0.00  0.00    -0.368 OA
BRANCH   7   8
ATOM      8  C   LIG d   1       0.750  85.462 111.931  0.00  0.00     0.119 C 
BRANCH   8   9
ATOM      9  C   LIG d   1      -0.779  85.631 111.838  0.00  0.00     0.028 C 
ATOM     10  C   LIG d   1      -1.185  86.836 110.973  0.00  0.00     0.006 C 
ENDBRANCH   8   9
BRANCH   8  11
ATOM     11  C   LIG d   1       1.114  84.461 110.832  0.00  0.00     0.028 C 
ATOM     12  C   LIG d   1       2.504  84.719 110.228  0.00  0.00     0.006 C 
ENDBRANCH   8  11
ENDBRANCH   7   8
ENDBRANCH   1   7
BRANCH   6  13
ATOM     13  N   LIG d   1       2.223  84.174 115.917  0.00  0.00    -0.311 N 
ATOM     14  C   LIG d   1       2.498  82.917 116.259  0.00  0.00     0.210 C 
ATOM     15  C   LIG d   1       1.643  82.355 117.400  0.00  0.00     0.109 C 
ATOM     16  O   LIG d   1       3.390  82.224 115.748  0.00  0.00    -0.276 OA
ATOM     17  H   LIG d   1       1.505  84.672 116.405  0.00  0.00     0.149 HD
ENDBRANCH   6  13
BRANCH   5  18
ATOM     18  N   LIG d   1       5.179  84.942 115.950  0.00  0.00     0.381 N 
ATOM     19  H   LIG d   1       6.018  85.484 116.008  0.00  0.00    -0.090 HD
ATOM     20  H   LIG d   1       5.358  84.147 115.363  0.00  0.00    -0.090 HD
ATOM     21  H   LIG d   1       4.907  84.639 116.859  0.00  0.00    -0.090 HD
ENDBRANCH   5  18
BRANCH   3  22
ATOM     22  C   LIG d   1       4.163  88.408 112.804  0.00  0.00     0.382 C 
ATOM     23  O   LIG d   1       5.366  88.568 112.487  0.00  0.00    -0.241 OA
ATOM     24  O   LIG d   1       3.345  89.323 112.592  0.00  0.00    -0.241 OA
ENDBRANCH   3  22
TORSDOF 7
ENDMDL
MODEL 2
REMARK VINA RESULT:      -5.5      2.550      4.616
REMARK  7 active torsions:
REMARK  status: ('A' for Active; 'I' for Inactive)
REMARK    1  A    between atoms: C_2  and  C_3 
REMARK    2  A    between atoms: C_3  and  O_6 
REMARK    3  A    between atoms: C_3  and  C_4 
REMARK    4  A    between atoms: C_7  and  O_6 
REMARK    5  A    between atoms: C_9  and  C_10 
REMARK    6  A    between atoms: N_15  and  C_14 
REMARK    7  A    between atoms: N_20  and  C_19 
REMARK       I    between atoms: C_22  and  N_20 
ROOT
ATOM      1  C   LIG d   1       1.641  84.834 112.864  0.00  0.00     0.161 C 
ATOM      2  C   LIG d   1       0.488  84.932 112.067  0.00  0.00     0.016 C 
ATOM      3  C   LIG d   1       0.076  86.129 111.439  0.00  0.00     0.038 C 
ATOM      4  C   LIG d   1       0.876  87.282 111.442  0.00  0.00     0.028 C 
ATOM      5  C   LIG d   1       1.798  87.375 112.653  0.00  0.00    -0.047 C 
ATOM      6  C   LIG d   1       2.585  86.052 112.789  0.00  0.00     0.091 C 
ENDROOT
BRANCH   1   7
ATOM      7  O   LIG d   1       2.356  83.625 112.543  0.00  0.00    -0.368 OA
BRANCH   7   8
ATOM      8  C   LIG d   1       1.799  82.819 111.476  0.00  0.00     0.119 C 
BRANCH   8   9
ATOM      9  C   LIG d   1       1.404  81.458 112.081  0.00  0.00     0.028 C 
ATOM     10  C   LIG d   1       0.072  80.931 111.521  0.00  0.00     0.006 C 
ENDBRANCH   8   9
BRANCH   8  11
ATOM     11  C   LIG d   1       2.852  82.498 110.411  0.00  0.00     0.028 C 
ATOM     12  C   LIG d   1       3.939  83.580 110.304  0.00  0.00     0.006 C 
ENDBRANCH   8  11
ENDBRANCH   7   8
ENDBRANCH   1   7
BRANCH   6  13
ATOM     13  N   LIG d   1       3.449  86.027 113.997  0.00  0.00    -0.311 N 
ATOM     14  C   LIG d   1       4.718  86.433 114.000  0.00  0.00     0.210 C 
ATOM     15  C   LIG d   1       5.435  86.304 115.348  0.00  0.00     0.109 C 
ATOM     16  O   LIG d   1       5.308  86.917 113.023  0.00  0.00    -0.276 OA
ATOM     17  H   LIG d   1       3.041  85.679 114.843  0.00  0.00     0.149 HD
ENDBRANCH   6  13
BRANCH   5  18
ATOM     18  N   LIG d   1       2.670  88.549 112.460  0.00  0.00     0.381 N 
ATOM     19  H   LIG d   1       2.187  89.380 112.740  0.00  0.00    -0.090 HD
ATOM     20  H   LIG d   1       2.895  88.630 111.484  0.00  0.00    -0.090 HD
ATOM     21  H   LIG d   1       3.505  88.446 112.993  0.00  0.00    -0.090 HD
ENDBRANCH   5  18
BRANCH   3  22
ATOM     22  C   LIG d   1      -1.169  86.193 110.831  0.00  0.00     0.382 C 
ATOM     23  O   LIG d   1      -1.925  87.170 111.052  0.00  0.00    -0.241 OA
ATOM     24  O   LIG d   1      -1.563  85.265 110.100  0.00  0.00    -0.241 OA
ENDBRANCH   3  22
TORSDOF 7
ENDMDL
MODEL 3
REMARK VINA RESULT:      -5.3      7.340      9.666
REMARK  7 active torsions:
REMARK  status: ('A' for Active; 'I' for Inactive)
REMARK    1  A    between atoms: C_2  and  C_3 
REMARK    2  A    between atoms: C_3  and  O_6 
REMARK    3  A    between atoms: C_3  and  C_4 
REMARK    4  A    between atoms: C_7  and  O_6 
REMARK    5  A    between atoms: C_9  and  C_10 
REMARK    6  A    between atoms: N_15  and  C_14 
REMARK    7  A    between atoms: N_20  and  C_19 
REMARK       I    between atoms: C_22  and  N_20 
ROOT
ATOM      1  C   LIG d   1      -1.545  78.481 114.542  0.00  0.00     0.161 C 
ATOM      2  C   LIG d   1      -1.982  79.732 114.076  0.00  0.00     0.016 C 
ATOM      3  C   LIG d   1      -2.520  79.938 112.785  0.00  0.00     0.038 C 
ATOM      4  C   LIG d   1      -2.798  78.869 111.920  0.00  0.00     0.028 C 
ATOM      5  C   LIG d   1      -1.908  77.653 112.152  0.00  0.00    -0.047 C 
ATOM      6  C   LIG d   1      -1.943  77.285 113.653  0.00  0.00     0.091 C 
ENDROOT
BRANCH   1   7
ATOM      7  O   LIG d   1      -2.002  78.276 115.893  0.00  0.00    -0.368 OA
BRANCH   7   8
ATOM      8  C   LIG d   1      -1.109  78.722 116.943  0.00  0.00     0.119 C 
BRANCH   8   9
ATOM      9  C   LIG d   1      -0.809  77.507 117.843  0.00  0.00     0.028 C 
ATOM     10  C   LIG d   1       0.525  76.829 117.489  0.00  0.00     0.006 C 
ENDBRANCH   8   9
BRANCH   8  11
ATOM     11  C   LIG d   1      -1.790  79.745 117.857  0.00  0.00     0.028 C 
ATOM     12  C   LIG d   1      -0.956  81.021 118.049  0.00  0.00     0.006 C 
ENDBRANCH   8  11
ENDBRANCH   7   8
ENDBRANCH   1   7
BRANCH   6  13
ATOM     13  N   LIG d   1      -1.033  76.157 113.982  0.00  0.00    -0.311 N 
ATOM     14  C   LIG d   1      -1.382  75.138 114.765  0.00  0.00     0.210 C 
ATOM     15  C   LIG d   1      -0.285  74.092 114.991  0.00  0.00     0.109 C 
ATOM     16  O   LIG d   1      -2.505  74.984 115.267  0.00  0.00    -0.276 OA
ATOM     17  H   LIG d   1      -0.112  76.186 113.590  0.00  0.00     0.149 HD
ENDBRANCH   6  13
BRANCH   5  18
ATOM     18  N   LIG d   1      -2.396  76.569 111.279  0.00  0.00     0.381 N 
ATOM     19  H   LIG d   1      -2.340  75.695 111.761  0.00  0.00    -0.090 HD
ATOM     20  H   LIG d   1      -1.810  76.519 110.464  0.00  0.00    -0.090 HD
ATOM     21  H   LIG d   1      -3.339  76.748 111.009  0.00  0.00    -0.090 HD
ENDBRANCH   5  18
BRANCH   3  22
ATOM     22  C   LIG d   1      -2.748  81.228 112.332  0.00  0.00     0.382 C 
ATOM     23  O   LIG d   1      -1.779  81.971 112.042  0.00  0.00    -0.241 OA
ATOM     24  O   LIG d   1      -3.908  81.674 112.253  0.00  0.00    -0.241 OA
ENDBRANCH   3  22
TORSDOF 7
ENDMDL
MODEL 4
REMARK VINA RESULT:      -5.2      7.595      9.774
REMARK  7 active torsions:
REMARK  status: ('A' for Active; 'I' for Inactive)
REMARK    1  A    between atoms: C_2  and  C_3 
REMARK    2  A    between atoms: C_3  and  O_6 
REMARK    3  A    between atoms: C_3  and  C_4 
REMARK    4  A    between atoms: C_7  and  O_6 
REMARK    5  A    between atoms: C_9  and  C_10 
REMARK    6  A    between atoms: N_15  and  C_14 
REMARK    7  A    between atoms: N_20  and  C_19 
REMARK       I    between atoms: C_22  and  N_20 
ROOT
ATOM      1  C   LIG d   1      -1.706  78.589 114.847  0.00  0.00     0.161 C 
ATOM      2  C   LIG d   1      -2.129  79.799 114.273  0.00  0.00     0.016 C 
ATOM      3  C   LIG d   1      -2.507  79.927 112.916  0.00  0.00     0.038 C 
ATOM      4  C   LIG d   1      -2.632  78.813 112.074  0.00  0.00     0.028 C 
ATOM      5  C   LIG d   1      -1.732  77.648 112.471  0.00  0.00    -0.047 C 
ATOM      6  C   LIG d   1      -1.943  77.340 113.972  0.00  0.00     0.091 C 
ENDROOT
BRANCH   1   7
ATOM      7  O   LIG d   1      -2.322  78.419 116.139  0.00  0.00    -0.368 OA
BRANCH   7   8
ATOM      8  C   LIG d   1      -3.756  78.213 116.139  0.00  0.00     0.119 C 
BRANCH   8   9
ATOM      9  C   LIG d   1      -4.402  79.450 116.794  0.00  0.00     0.028 C 
ATOM     10  C   LIG d   1      -3.469  80.128 117.812  0.00  0.00     0.006 C 
ENDBRANCH   8   9
BRANCH   8  11
ATOM     11  C   LIG d   1      -4.150  77.031 117.029  0.00  0.00     0.028 C 
ATOM     12  C   LIG d   1      -3.013  76.581 117.960  0.00  0.00     0.006 C 
ENDBRANCH   8  11
ENDBRANCH   7   8
ENDBRANCH   1   7
BRANCH   6  13
ATOM     13  N   LIG d   1      -1.038  76.268 114.463  0.00  0.00    -0.311 N 
ATOM     14  C   LIG d   1      -1.472  75.099 114.929  0.00  0.00     0.210 C 
ATOM     15  C   LIG d   1      -0.373  74.143 115.404  0.00  0.00     0.109 C 
ATOM     16  O   LIG d   1      -2.662  74.749 114.964  0.00  0.00    -0.276 OA
ATOM     17  H   LIG d   1      -0.055  76.456 114.441  0.00  0.00     0.149 HD
ENDBRANCH   6  13
BRANCH   5  18
ATOM     18  N   LIG d   1      -2.064  76.508 111.595  0.00  0.00     0.381 N 
ATOM     19  H   LIG d   1      -3.057  76.418 111.520  0.00  0.00    -0.090 HD
ATOM     20  H   LIG d   1      -1.700  75.666 112.006  0.00  0.00    -0.090 HD
ATOM     21  H   LIG d   1      -1.665  76.645 110.692  0.00  0.00    -0.090 HD
ENDBRANCH   5  18
BRANCH   3  22
ATOM     22  C   LIG d   1      -2.725  81.187 112.380  0.00  0.00     0.382 C 
ATOM     23  O   LIG d   1      -1.752  81.892 112.020  0.00  0.00    -0.241 OA
ATOM     24  O   LIG d   1      -3.881  81.644 112.292  0.00  0.00    -0.241 OA
ENDBRANCH   3  22
TORSDOF 7
ENDMDL
MODEL 5
REMARK VINA RESULT:      -5.1      2.823      5.645
REMARK  7 active torsions:
REMARK  status: ('A' for Active; 'I' for Inactive)
REMARK    1  A    between atoms: C_2  and  C_3 
REMARK    2  A    between atoms: C_3  and  O_6 
REMARK    3  A    between atoms: C_3  and  C_4 
REMARK    4  A    between atoms: C_7  and  O_6 
REMARK    5  A    between atoms: C_9  and  C_10 
REMARK    6  A    between atoms: N_15  and  C_14 
REMARK    7  A    between atoms: N_20  and  C_19 
REMARK       I    between atoms: C_22  and  N_20 
ROOT
ATOM      1  C   LIG d   1       3.761  85.669 114.039  0.00  0.00     0.161 C 
ATOM      2  C   LIG d   1       3.834  84.708 113.017  0.00  0.00     0.016 C 
ATOM      3  C   LIG d   1       3.347  84.927 111.708  0.00  0.00     0.038 C 
ATOM      4  C   LIG d   1       2.888  86.185 111.288  0.00  0.00     0.028 C 
ATOM      5  C   LIG d   1       2.329  87.036 112.423  0.00  0.00    -0.047 C 
ATOM      6  C   LIG d   1       3.365  87.085 113.570  0.00  0.00     0.091 C 
ENDROOT
BRANCH   1   7
ATOM      7  O   LIG d   1       5.009  85.711 114.760  0.00  0.00    -0.368 OA
BRANCH   7   8
ATOM      8  C   LIG d   1       4.968  85.252 116.133  0.00  0.00     0.119 C 
BRANCH   8   9
ATOM      9  C   LIG d   1       3.512  84.854 116.445  0.00  0.00     0.028 C 
ATOM     10  C   LIG d   1       2.936  85.629 117.642  0.00  0.00     0.006 C 
ENDBRANCH   8   9
BRANCH   8  11
ATOM     11  C   LIG d   1       5.298  86.384 117.110  0.00  0.00     0.028 C 
ATOM     12  C   LIG d   1       6.162  87.485 116.475  0.00  0.00     0.006 C 
ENDBRANCH   8  11
ENDBRANCH   7   8
ENDBRANCH   1   7
BRANCH   6  13
ATOM     13  N   LIG d   1       2.864  87.828 114.755  0.00  0.00    -0.311 N 
ATOM     14  C   LIG d   1       3.122  89.116 114.976  0.00  0.00     0.210 C 
ATOM     15  C   LIG d   1       2.526  89.682 116.268  0.00  0.00     0.109 C 
ATOM     16  O   LIG d   1       3.761  89.851 114.209  0.00  0.00    -0.276 OA
ATOM     17  H   LIG d   1       2.310  87.316 115.414  0.00  0.00     0.149 HD
ENDBRANCH   6  13
BRANCH   5  18
ATOM     18  N   LIG d   1       2.016  88.367 111.870  0.00  0.00     0.381 N 
ATOM     19  H   LIG d   1       1.093  88.639 112.144  0.00  0.00    -0.090 HD
ATOM     20  H   LIG d   1       2.045  88.317 110.867  0.00  0.00    -0.090 HD
ATOM     21  H   LIG d   1       2.678  89.036 112.196  0.00  0.00    -0.090 HD
ENDBRANCH   5  18
BRANCH   3  22
ATOM     22  C   LIG d   1       3.279  83.869 110.814  0.00  0.00     0.382 C 
ATOM     23  O   LIG d   1       4.231  83.056 110.732  0.00  0.00    -0.241 OA
ATOM     24  O   LIG d   1       2.298  83.743 110.057  0.00  0.00    -0.241 OA
ENDBRANCH   3  22
TORSDOF 7
ENDMDL
MODEL 6
REMARK VINA RESULT:      -5.0      6.293      9.778
REMARK  7 active torsions:
REMARK  status: ('A' for Active; 'I' for Inactive)
REMARK    1  A    between atoms: C_2  and  C_3 
REMARK    2  A    between atoms: C_3  and  O_6 
REMARK    3  A    between atoms: C_3  and  C_4 
REMARK    4  A    between atoms: C_7  and  O_6 
REMARK    5  A    between atoms: C_9  and  C_10 
REMARK    6  A    between atoms: N_15  and  C_14 
REMARK    7  A    between atoms: N_20  and  C_19 
REMARK       I    between atoms: C_22  and  N_20 
ROOT
ATOM      1  C   LIG d   1      -1.883  79.767 114.100  0.00  0.00     0.161 C 
ATOM      2  C   LIG d   1      -2.559  78.571 114.390  0.00  0.00     0.016 C 
ATOM      3  C   LIG d   1      -2.828  77.575 113.423  0.00  0.00     0.038 C 
ATOM      4  C   LIG d   1      -2.303  77.641 112.124  0.00  0.00     0.028 C 
ATOM      5  C   LIG d   1      -2.044  79.066 111.648  0.00  0.00    -0.047 C 
ATOM      6  C   LIG d   1      -1.205  79.807 112.714  0.00  0.00     0.091 C 
ENDROOT
BRANCH   1   7
ATOM      7  O   LIG d   1      -0.922  80.049 115.136  0.00  0.00    -0.368 OA
BRANCH   7   8
ATOM      8  C   LIG d   1      -1.116  79.353 116.392  0.00  0.00     0.119 C 
BRANCH   8   9
ATOM      9  C   LIG d   1      -1.396  80.416 117.472  0.00  0.00     0.028 C 
ATOM     10  C   LIG d   1      -2.785  80.250 118.111  0.00  0.00     0.006 C 
ENDBRANCH   8   9
BRANCH   8  11
ATOM     11  C   LIG d   1       0.167  78.647 116.841  0.00  0.00     0.028 C 
ATOM     12  C   LIG d   1      -0.043  77.150 117.120  0.00  0.00     0.006 C 
ENDBRANCH   8  11
ENDBRANCH   7   8
ENDBRANCH   1   7
BRANCH   6  13
ATOM     13  N   LIG d   1      -0.978  81.234 112.365  0.00  0.00    -0.311 N 
ATOM     14  C   LIG d   1       0.082  81.662 111.682  0.00  0.00     0.210 C 
ATOM     15  C   LIG d   1       0.132  83.175 111.448  0.00  0.00     0.109 C 
ATOM     16  O   LIG d   1       0.969  80.929 111.221  0.00  0.00    -0.276 OA
ATOM     17  H   LIG d   1      -1.665  81.894 112.674  0.00  0.00     0.149 HD
ENDBRANCH   6  13
BRANCH   5  18
ATOM     18  N   LIG d   1      -1.371  78.983 110.338  0.00  0.00     0.381 N 
ATOM     19  H   LIG d   1      -1.097  79.898 110.039  0.00  0.00    -0.090 HD
ATOM     20  H   LIG d   1      -2.016  78.611 109.664  0.00  0.00    -0.090 HD
ATOM     21  H   LIG d   1      -0.570  78.393 110.403  0.00  0.00    -0.090 HD
ENDBRANCH   5  18
BRANCH   3  22
ATOM     22  C   LIG d   1      -3.665  76.516 113.742  0.00  0.00     0.382 C 
ATOM     23  O   LIG d   1      -4.734  76.348 113.107  0.00  0.00    -0.241 OA
ATOM     24  O   LIG d   1      -3.386  75.752 114.686  0.00  0.00    -0.241 OA
ENDBRANCH   3  22
TORSDOF 7
ENDMDL
MODEL 7
REMARK VINA RESULT:      -5.0      2.900      4.933
REMARK  7 active torsions:
REMARK  status: ('A' for Active; 'I' for Inactive)
REMARK    1  A    between atoms: C_2  and  C_3 
REMARK    2  A    between atoms: C_3  and  O_6 
REMARK    3  A    between atoms: C_3  and  C_4 
REMARK    4  A    between atoms: C_7  and  O_6 
REMARK    5  A    between atoms: C_9  and  C_10 
REMARK    6  A    between atoms: N_15  and  C_14 
REMARK    7  A    between atoms: N_20  and  C_19 
REMARK       I    between atoms: C_22  and  N_20 
ROOT
ATOM      1  C   LIG d   1       2.966  87.954 115.053  0.00  0.00     0.161 C 
ATOM      2  C   LIG d   1       2.170  87.525 113.978  0.00  0.00     0.016 C 
ATOM      3  C   LIG d   1       2.574  87.614 112.626  0.00  0.00     0.038 C 
ATOM      4  C   LIG d   1       3.872  88.003 112.265  0.00  0.00     0.028 C 
ATOM      5  C   LIG d   1       4.535  88.923 113.284  0.00  0.00    -0.047 C 
ATOM      6  C   LIG d   1       4.429  88.278 114.685  0.00  0.00     0.091 C 
ENDROOT
BRANCH   1   7
ATOM      7  O   LIG d   1       2.920  86.981 116.115  0.00  0.00    -0.368 OA
BRANCH   7   8
ATOM      8  C   LIG d   1       2.644  85.616 115.717  0.00  0.00     0.119 C 
BRANCH   8   9
ATOM      9  C   LIG d   1       1.891  84.938 116.877  0.00  0.00     0.028 C 
ATOM     10  C   LIG d   1       2.255  83.451 117.025  0.00  0.00     0.006 C 
ENDBRANCH   8   9
BRANCH   8  11
ATOM     11  C   LIG d   1       3.937  84.812 115.549  0.00  0.00     0.028 C 
ATOM     12  C   LIG d   1       4.341  84.633 114.077  0.00  0.00     0.006 C 
ENDBRANCH   8  11
ENDBRANCH   7   8
ENDBRANCH   1   7
BRANCH   6  13
ATOM     13  N   LIG d   1       4.978  89.152 115.754  0.00  0.00    -0.311 N 
ATOM     14  C   LIG d   1       5.835  88.726 116.682  0.00  0.00     0.210 C 
ATOM     15  C   LIG d   1       6.261  89.786 117.703  0.00  0.00     0.109 C 
ATOM     16  O   LIG d   1       6.306  87.581 116.736  0.00  0.00    -0.276 OA
ATOM     17  H   LIG d   1       4.673  90.106 115.766  0.00  0.00     0.149 HD
ENDBRANCH   6  13
BRANCH   5  18
ATOM     18  N   LIG d   1       5.928  89.138 112.851  0.00  0.00     0.381 N 
ATOM     19  H   LIG d   1       5.956  89.287 111.862  0.00  0.00    -0.090 HD
ATOM     20  H   LIG d   1       6.465  88.314 113.061  0.00  0.00    -0.090 HD
ATOM     21  H   LIG d   1       6.315  89.925 113.324  0.00  0.00    -0.090 HD
ENDBRANCH   5  18
BRANCH   3  22
ATOM     22  C   LIG d   1       1.660  87.350 111.617  0.00  0.00     0.382 C 
ATOM     23  O   LIG d   1       0.435  87.538 111.815  0.00  0.00    -0.241 OA
ATOM     24  O   LIG d   1       2.040  86.884 110.527  0.00  0.00    -0.241 OA
ENDBRANCH   3  22
TORSDOF 7
ENDMDL
MODEL 8
REMARK VINA RESULT:      -4.8     25.897     28.236
REMARK  7 active torsions:
REMARK  status: ('A' for Active; 'I' for Inactive)
REMARK    1  A    between atoms: C_2  and  C_3 
REMARK    2  A    between atoms: C_3  and  O_6 
REMARK    3  A    between atoms: C_3  and  C_4 
REMARK    4  A    between atoms: C_7  and  O_6 
REMARK    5  A    between atoms: C_9  and  C_10 
REMARK    6  A    between atoms: N_15  and  C_14 
REMARK    7  A    between atoms: N_20  and  C_19 
REMARK       I    between atoms: C_22  and  N_20 
ROOT
ATOM      1  C   LIG d   1     -16.877  65.246 114.545  0.00  0.00     0.161 C 
ATOM      2  C   LIG d   1     -16.339  66.246 113.718  0.00  0.00     0.016 C 
ATOM      3  C   LIG d   1     -15.447  67.241 114.178  0.00  0.00     0.038 C 
ATOM      4  C   LIG d   1     -14.910  67.213 115.474  0.00  0.00     0.028 C 
ATOM      5  C   LIG d   1     -15.812  66.519 116.489  0.00  0.00    -0.047 C 
ATOM      6  C   LIG d   1     -16.217  65.133 115.935  0.00  0.00     0.091 C 
ENDROOT
BRANCH   1   7
ATOM      7  O   LIG d   1     -16.837  63.976 113.867  0.00  0.00    -0.368 OA
BRANCH   7   8
ATOM      8  C   LIG d   1     -18.119  63.399 113.516  0.00  0.00     0.119 C 
BRANCH   8   9
ATOM      9  C   LIG d   1     -19.213  64.355 114.031  0.00  0.00     0.028 C 
ATOM     10  C   LIG d   1     -20.195  64.774 112.924  0.00  0.00     0.006 C 
ENDBRANCH   8   9
BRANCH   8  11
ATOM     11  C   LIG d   1     -18.356  62.078 114.252  0.00  0.00     0.028 C 
ATOM     12  C   LIG d   1     -19.408  61.193 113.565  0.00  0.00     0.006 C 
ENDBRANCH   8  11
ENDBRANCH   7   8
ENDBRANCH   1   7
BRANCH   6  13
ATOM     13  N   LIG d   1     -17.168  64.422 116.829  0.00  0.00    -0.311 N 
ATOM     14  C   LIG d   1     -16.878  63.278 117.446  0.00  0.00     0.210 C 
ATOM     15  C   LIG d   1     -18.008  62.702 118.305  0.00  0.00     0.109 C 
ATOM     16  O   LIG d   1     -15.781  62.701 117.389  0.00  0.00    -0.276 OA
ATOM     17  H   LIG d   1     -18.070  64.836 116.956  0.00  0.00     0.149 HD
ENDBRANCH   6  13
BRANCH   5  18
ATOM     18  N   LIG d   1     -15.072  66.439 117.762  0.00  0.00     0.381 N 
ATOM     19  H   LIG d   1     -15.592  66.895 118.485  0.00  0.00    -0.090 HD
ATOM     20  H   LIG d   1     -14.193  66.915 117.658  0.00  0.00    -0.090 HD
ATOM     21  H   LIG d   1     -14.915  65.486 118.006  0.00  0.00    -0.090 HD
ENDBRANCH   5  18
BRANCH   3  22
ATOM     22  C   LIG d   1     -15.113  68.302 113.350  0.00  0.00     0.382 C 
ATOM     23  O   LIG d   1     -15.608  68.379 112.200  0.00  0.00    -0.241 OA
ATOM     24  O   LIG d   1     -14.289  69.159 113.722  0.00  0.00    -0.241 OA
ENDBRANCH   3  22
TORSDOF 7
ENDMDL
MODEL 9
REMARK VINA RESULT:      -4.8      2.737      5.146
REMARK  7 active torsions:
REMARK  status: ('A' for Active; 'I' for Inactive)
REMARK    1  A    between atoms: C_2  and  C_3 
REMARK    2  A    between atoms: C_3  and  O_6 
REMARK    3  A    between atoms: C_3  and  C_4 
REMARK    4  A    between atoms: C_7  and  O_6 
REMARK    5  A    between atoms: C_9  and  C_10 
REMARK    6  A    between atoms: N_15  and  C_14 
REMARK    7  A    between atoms: N_20  and  C_19 
REMARK       I    between atoms: C_22  and  N_20 
ROOT
ATOM      1  C   LIG d   1       3.300  86.442 114.373  0.00  0.00     0.161 C 
ATOM      2  C   LIG d   1       2.817  85.910 113.166  0.00  0.00     0.016 C 
ATOM      3  C   LIG d   1       3.411  86.167 111.909  0.00  0.00     0.038 C 
ATOM      4  C   LIG d   1       4.627  86.857 111.791  0.00  0.00     0.028 C 
ATOM      5  C   LIG d   1       4.879  87.839 112.930  0.00  0.00    -0.047 C 
ATOM      6  C   LIG d   1       4.690  87.105 114.277  0.00  0.00     0.091 C 
ENDROOT
BRANCH   1   7
ATOM      7  O   LIG d   1       3.302  85.421 115.390  0.00  0.00    -0.368 OA
BRANCH   7   8
ATOM      8  C   LIG d   1       2.322  85.573 116.447  0.00  0.00     0.119 C 
BRANCH   8   9
ATOM      9  C   LIG d   1       1.535  86.867 116.165  0.00  0.00     0.028 C 
ATOM     10  C   LIG d   1       1.348  87.726 117.427  0.00  0.00     0.006 C 
ENDBRANCH   8   9
BRANCH   8  11
ATOM     11  C   LIG d   1       2.995  85.794 117.804  0.00  0.00     0.028 C 
ATOM     12  C   LIG d   1       4.453  85.310 117.832  0.00  0.00     0.006 C 
ENDBRANCH   8  11
ENDBRANCH   7   8
ENDBRANCH   1   7
BRANCH   6  13
ATOM     13  N   LIG d   1       4.836  88.014 115.443  0.00  0.00    -0.311 N 
ATOM     14  C   LIG d   1       4.256  89.211 115.517  0.00  0.00     0.210 C 
ATOM     15  C   LIG d   1       4.552  89.995 116.799  0.00  0.00     0.109 C 
ATOM     16  O   LIG d   1       3.497  89.684 114.657  0.00  0.00    -0.276 OA
ATOM     17  H   LIG d   1       5.409  87.697 116.200  0.00  0.00     0.149 HD
ENDBRANCH   6  13
BRANCH   5  18
ATOM     18  N   LIG d   1       6.238  88.385 112.754  0.00  0.00     0.381 N 
ATOM     19  H   LIG d   1       6.897  87.636 112.679  0.00  0.00    -0.090 HD
ATOM     20  H   LIG d   1       6.475  88.933 113.563  0.00  0.00    -0.090 HD
ATOM     21  H   LIG d   1       6.275  88.954 111.937  0.00  0.00    -0.090 HD
ENDBRANCH   5  18
BRANCH   3  22
ATOM     22  C   LIG d   1       2.766  85.767 110.749  0.00  0.00     0.382 C 
ATOM     23  O   LIG d   1       1.878  86.494 110.242  0.00  0.00    -0.241 OA
ATOM     24  O   LIG d   1       3.030  84.667 110.227  0.00  0.00    -0.241 OA
ENDBRANCH   3  22
TORSDOF 7
ENDMDL
