MODEL 1
REMARK VINA RESULT:      -5.7      0.000      0.000
REMARK  7 active torsions:
REMARK  status: ('A' for Active; 'I' for Inactive)
REMARK    1  A    between atoms: C_2  and  C_3 
REMARK    2  A    between atoms: C_3  and  O_6 
REMARK    3  A    between atoms: C_3  and  C_4 
REMARK    4  A    between atoms: C_7  and  O_6 
REMARK    5  A    between atoms: C_9  and  C_10 
REMARK    6  A    between atoms: N_15  and  C_14 
REMARK    7  A    between atoms: N_20  and  C_19 
REMARK       I    between atoms: C_22  and  N_20 
ROOT
ATOM      1  C   LIG d   1       0.273  83.338 112.419  0.00  0.00     0.161 C 
ATOM      2  C   LIG d   1      -0.940  82.725 112.775  0.00  0.00     0.016 C 
ATOM      3  C   LIG d   1      -1.332  81.449 112.309  0.00  0.00     0.038 C 
ATOM      4  C   LIG d   1      -0.465  80.630 111.571  0.00  0.00     0.028 C 
ATOM      5  C   LIG d   1       0.568  81.412 110.767  0.00  0.00    -0.047 C 
ATOM      6  C   LIG d   1       1.280  82.414 111.704  0.00  0.00     0.091 C 
ENDROOT
BRANCH   1   7
ATOM      7  O   LIG d   1       0.879  83.935 113.583  0.00  0.00    -0.368 OA
BRANCH   7   8
ATOM      8  C   LIG d   1       0.726  85.370 113.716  0.00  0.00     0.119 C 
BRANCH   8   9
ATOM      9  C   LIG d   1       2.137  85.977 113.831  0.00  0.00     0.028 C 
ATOM     10  C   LIG d   1       3.216  84.911 114.087  0.00  0.00     0.006 C 
ENDBRANCH   8   9
BRANCH   8  11
ATOM     11  C   LIG d   1       0.019  85.735 115.025  0.00  0.00     0.028 C 
ATOM     12  C   LIG d   1      -0.108  84.543 115.986  0.00  0.00     0.006 C 
ENDBRANCH   8  11
ENDBRANCH   7   8
ENDBRANCH   1   7
BRANCH   6  13
ATOM     13  N   LIG d   1       2.249  83.278 110.980  0.00  0.00    -0.311 N 
ATOM     14  C   LIG d   1       3.532  82.963 110.816  0.00  0.00     0.210 C 
ATOM     15  C   LIG d   1       4.361  84.003 110.056  0.00  0.00     0.109 C 
ATOM     16  O   LIG d   1       4.056  81.906 111.200  0.00  0.00    -0.276 OA
ATOM     17  H   LIG d   1       1.901  84.140 110.609  0.00  0.00     0.149 HD
ENDBRANCH   6  13
BRANCH   5  18
ATOM     18  N   LIG d   1       1.491  80.435 110.157  0.00  0.00     0.381 N 
ATOM     19  H   LIG d   1       0.981  79.624 109.866  0.00  0.00    -0.090 HD
ATOM     20  H   LIG d   1       2.166  80.153 110.845  0.00  0.00    -0.090 HD
ATOM     21  H   LIG d   1       1.953  80.844 109.375  0.00  0.00    -0.090 HD
ENDBRANCH   5  18
BRANCH   3  22
ATOM     22  C   LIG d   1      -2.621  80.997 112.548  0.00  0.00     0.382 C 
ATOM     23  O   LIG d   1      -3.598  81.582 112.021  0.00  0.00    -0.241 OA
ATOM     24  O   LIG d   1      -2.822  80.039 113.318  0.00  0.00    -0.241 OA
ENDBRANCH   3  22
TORSDOF 7
ENDMDL
MODEL 2
REMARK VINA RESULT:      -5.7      4.176      6.262
REMARK  7 active torsions:
REMARK  status: ('A' for Active; 'I' for Inactive)
REMARK    1  A    between atoms: C_2  and  C_3 
REMARK    2  A    between atoms: C_3  and  O_6 
REMARK    3  A    between atoms: C_3  and  C_4 
REMARK    4  A    between atoms: C_7  and  O_6 
REMARK    5  A    between atoms: C_9  and  C_10 
REMARK    6  A    between atoms: N_15  and  C_14 
REMARK    7  A    between atoms: N_20  and  C_19 
REMARK       I    between atoms: C_22  and  N_20 
ROOT
ATOM      1  C   LIG d   1       2.333  86.404 113.378  0.00  0.00     0.161 C 
ATOM      2  C   LIG d   1       1.317  85.640 113.975  0.00  0.00     0.016 C 
ATOM      3  C   LIG d   1       0.894  85.816 115.312  0.00  0.00     0.038 C 
ATOM      4  C   LIG d   1       1.358  86.877 116.103  0.00  0.00     0.028 C 
ATOM      5  C   LIG d   1       2.750  87.361 115.710  0.00  0.00    -0.047 C 
ATOM      6  C   LIG d   1       2.774  87.640 114.190  0.00  0.00     0.091 C 
ENDROOT
BRANCH   1   7
ATOM      7  O   LIG d   1       1.935  86.794 112.049  0.00  0.00    -0.368 OA
BRANCH   7   8
ATOM      8  C   LIG d   1       2.721  86.245 110.962  0.00  0.00     0.119 C 
BRANCH   8   9
ATOM      9  C   LIG d   1       1.763  85.445 110.057  0.00  0.00     0.028 C 
ATOM     10  C   LIG d   1       0.338  86.022 110.056  0.00  0.00     0.006 C 
ENDBRANCH   8   9
BRANCH   8  11
ATOM     11  C   LIG d   1       3.743  85.225 111.473  0.00  0.00     0.028 C 
ATOM     12  C   LIG d   1       4.050  84.124 110.445  0.00  0.00     0.006 C 
ENDBRANCH   8  11
ENDBRANCH   7   8
ENDBRANCH   1   7
BRANCH   6  13
ATOM     13  N   LIG d   1       4.122  88.037 113.708  0.00  0.00    -0.311 N 
ATOM     14  C   LIG d   1       4.518  89.304 113.600  0.00  0.00     0.210 C 
ATOM     15  C   LIG d   1       5.940  89.494 113.063  0.00  0.00     0.109 C 
ATOM     16  O   LIG d   1       3.838  90.288 113.928  0.00  0.00    -0.276 OA
ATOM     17  H   LIG d   1       4.750  87.301 113.450  0.00  0.00     0.149 HD
ENDBRANCH   6  13
BRANCH   5  18
ATOM     18  N   LIG d   1       3.052  88.556 116.522  0.00  0.00     0.381 N 
ATOM     19  H   LIG d   1       3.988  88.858 116.344  0.00  0.00    -0.090 HD
ATOM     20  H   LIG d   1       2.978  88.315 117.495  0.00  0.00    -0.090 HD
ATOM     21  H   LIG d   1       2.411  89.287 116.304  0.00  0.00    -0.090 HD
ENDBRANCH   5  18
BRANCH   3  22
ATOM     22  C   LIG d   1       0.025  84.899 115.885  0.00  0.00     0.382 C 
ATOM     23  O   LIG d   1       0.141  84.598 117.097  0.00  0.00    -0.241 OA
ATOM     24  O   LIG d   1      -0.845  84.336 115.194  0.00  0.00    -0.241 OA
ENDBRANCH   3  22
TORSDOF 7
ENDMDL
MODEL 3
REMARK VINA RESULT:      -5.6      4.384      7.580
REMARK  7 active torsions:
REMARK  status: ('A' for Active; 'I' for Inactive)
REMARK    1  A    between atoms: C_2  and  C_3 
REMARK    2  A    between atoms: C_3  and  O_6 
REMARK    3  A    between atoms: C_3  and  C_4 
REMARK    4  A    between atoms: C_7  and  O_6 
REMARK    5  A    between atoms: C_9  and  C_10 
REMARK    6  A    between atoms: N_15  and  C_14 
REMARK    7  A    between atoms: N_20  and  C_19 
REMARK       I    between atoms: C_22  and  N_20 
ROOT
ATOM      1  C   LIG d   1       2.400  87.767 114.998  0.00  0.00     0.161 C 
ATOM      2  C   LIG d   1       2.321  88.778 115.970  0.00  0.00     0.016 C 
ATOM      3  C   LIG d   1       3.171  89.908 115.989  0.00  0.00     0.038 C 
ATOM      4  C   LIG d   1       4.065  90.181 114.943  0.00  0.00     0.028 C 
ATOM      5  C   LIG d   1       4.532  88.932 114.204  0.00  0.00    -0.047 C 
ATOM      6  C   LIG d   1       3.295  88.104 113.786  0.00  0.00     0.091 C 
ENDROOT
BRANCH   1   7
ATOM      7  O   LIG d   1       1.076  87.407 114.558  0.00  0.00    -0.368 OA
BRANCH   7   8
ATOM      8  C   LIG d   1       0.411  86.371 115.321  0.00  0.00     0.119 C 
BRANCH   8   9
ATOM      9  C   LIG d   1       1.481  85.343 115.737  0.00  0.00     0.028 C 
ATOM     10  C   LIG d   1       1.296  84.856 117.184  0.00  0.00     0.006 C 
ENDBRANCH   8   9
BRANCH   8  11
ATOM     11  C   LIG d   1      -0.584  85.593 114.455  0.00  0.00     0.028 C 
ATOM     12  C   LIG d   1      -0.025  85.251 113.065  0.00  0.00     0.006 C 
ENDBRANCH   8  11
ENDBRANCH   7   8
ENDBRANCH   1   7
BRANCH   6  13
ATOM     13  N   LIG d   1       3.665  86.822 113.131  0.00  0.00    -0.311 N 
ATOM     14  C   LIG d   1       3.244  86.471 111.917  0.00  0.00     0.210 C 
ATOM     15  C   LIG d   1       3.727  85.099 111.436  0.00  0.00     0.109 C 
ATOM     16  O   LIG d   1       2.542  87.180 111.179  0.00  0.00    -0.276 OA
ATOM     17  H   LIG d   1       4.257  86.201 113.646  0.00  0.00     0.149 HD
ENDBRANCH   6  13
BRANCH   5  18
ATOM     18  N   LIG d   1       5.347  89.372 113.056  0.00  0.00     0.381 N 
ATOM     19  H   LIG d   1       4.844  89.218 112.204  0.00  0.00    -0.090 HD
ATOM     20  H   LIG d   1       6.190  88.825 113.027  0.00  0.00    -0.090 HD
ATOM     21  H   LIG d   1       5.572  90.338 113.148  0.00  0.00    -0.090 HD
ENDBRANCH   5  18
BRANCH   3  22
ATOM     22  C   LIG d   1       3.159  90.758 117.084  0.00  0.00     0.382 C 
ATOM     23  O   LIG d   1       3.477  91.964 116.946  0.00  0.00    -0.241 OA
ATOM     24  O   LIG d   1       2.878  90.324 118.218  0.00  0.00    -0.241 OA
ENDBRANCH   3  22
TORSDOF 7
ENDMDL
MODEL 4
REMARK VINA RESULT:      -5.6     21.217     24.756
REMARK  7 active torsions:
REMARK  status: ('A' for Active; 'I' for Inactive)
REMARK    1  A    between atoms: C_2  and  C_3 
REMARK    2  A    between atoms: C_3  and  O_6 
REMARK    3  A    between atoms: C_3  and  C_4 
REMARK    4  A    between atoms: C_7  and  O_6 
REMARK    5  A    between atoms: C_9  and  C_10 
REMARK    6  A    between atoms: N_15  and  C_14 
REMARK    7  A    between atoms: N_20  and  C_19 
REMARK       I    between atoms: C_22  and  N_20 
ROOT
ATOM      1  C   LIG d   1     -16.433  65.967 113.543  0.00  0.00     0.161 C 
ATOM      2  C   LIG d   1     -15.908  66.770 112.517  0.00  0.00     0.016 C 
ATOM      3  C   LIG d   1     -15.228  67.987 112.754  0.00  0.00     0.038 C 
ATOM      4  C   LIG d   1     -14.892  68.410 114.049  0.00  0.00     0.028 C 
ATOM      5  C   LIG d   1     -15.842  67.887 115.121  0.00  0.00    -0.047 C 
ATOM      6  C   LIG d   1     -15.980  66.355 114.966  0.00  0.00     0.091 C 
ENDROOT
BRANCH   1   7
ATOM      7  O   LIG d   1     -16.131  64.582 113.282  0.00  0.00    -0.368 OA
BRANCH   7   8
ATOM      8  C   LIG d   1     -17.248  63.751 112.880  0.00  0.00     0.119 C 
BRANCH   8   9
ATOM      9  C   LIG d   1     -18.469  64.673 112.698  0.00  0.00     0.028 C 
ATOM     10  C   LIG d   1     -19.323  64.283 111.480  0.00  0.00     0.006 C 
ENDBRANCH   8   9
BRANCH   8  11
ATOM     11  C   LIG d   1     -17.641  62.771 113.990  0.00  0.00     0.028 C 
ATOM     12  C   LIG d   1     -17.747  61.320 113.494  0.00  0.00     0.006 C 
ENDBRANCH   8  11
ENDBRANCH   7   8
ENDBRANCH   1   7
BRANCH   6  13
ATOM     13  N   LIG d   1     -16.957  65.774 115.923  0.00  0.00    -0.311 N 
ATOM     14  C   LIG d   1     -16.646  64.821 116.800  0.00  0.00     0.210 C 
ATOM     15  C   LIG d   1     -17.807  64.349 117.681  0.00  0.00     0.109 C 
ATOM     16  O   LIG d   1     -15.512  64.344 116.954  0.00  0.00    -0.276 OA
ATOM     17  H   LIG d   1     -17.894  66.126 115.889  0.00  0.00     0.149 HD
ENDBRANCH   6  13
BRANCH   5  18
ATOM     18  N   LIG d   1     -15.297  68.288 116.432  0.00  0.00     0.381 N 
ATOM     19  H   LIG d   1     -14.826  69.167 116.349  0.00  0.00    -0.090 HD
ATOM     20  H   LIG d   1     -14.630  67.599 116.732  0.00  0.00    -0.090 HD
ATOM     21  H   LIG d   1     -16.033  68.360 117.100  0.00  0.00    -0.090 HD
ENDBRANCH   5  18
BRANCH   3  22
ATOM     22  C   LIG d   1     -14.910  68.815 111.688  0.00  0.00     0.382 C 
ATOM     23  O   LIG d   1     -13.734  68.855 111.253  0.00  0.00    -0.241 OA
ATOM     24  O   LIG d   1     -15.776  69.556 111.184  0.00  0.00    -0.241 OA
ENDBRANCH   3  22
TORSDOF 7
ENDMDL
MODEL 5
REMARK VINA RESULT:      -5.4      3.537      7.256
REMARK  7 active torsions:
REMARK  status: ('A' for Active; 'I' for Inactive)
REMARK    1  A    between atoms: C_2  and  C_3 
REMARK    2  A    between atoms: C_3  and  O_6 
REMARK    3  A    between atoms: C_3  and  C_4 
REMARK    4  A    between atoms: C_7  and  O_6 
REMARK    5  A    between atoms: C_9  and  C_10 
REMARK    6  A    between atoms: N_15  and  C_14 
REMARK    7  A    between atoms: N_20  and  C_19 
REMARK       I    between atoms: C_22  and  N_20 
ROOT
ATOM      1  C   LIG d   1       2.534  86.349 112.394  0.00  0.00     0.161 C 
ATOM      2  C   LIG d   1       3.494  87.366 112.262  0.00  0.00     0.016 C 
ATOM      3  C   LIG d   1       3.836  88.253 113.309  0.00  0.00     0.038 C 
ATOM      4  C   LIG d   1       3.348  88.085 114.613  0.00  0.00     0.028 C 
ATOM      5  C   LIG d   1       1.995  87.384 114.668  0.00  0.00    -0.047 C 
ATOM      6  C   LIG d   1       2.073  86.079 113.842  0.00  0.00     0.091 C 
ENDROOT
BRANCH   1   7
ATOM      7  O   LIG d   1       3.023  85.135 111.790  0.00  0.00    -0.368 OA
BRANCH   7   8
ATOM      8  C   LIG d   1       2.703  84.945 110.390  0.00  0.00     0.119 C 
BRANCH   8   9
ATOM      9  C   LIG d   1       1.327  85.592 110.139  0.00  0.00     0.028 C 
ATOM     10  C   LIG d   1       0.185  84.561 110.140  0.00  0.00     0.006 C 
ENDBRANCH   8   9
BRANCH   8  11
ATOM     11  C   LIG d   1       2.521  83.462 110.055  0.00  0.00     0.028 C 
ATOM     12  C   LIG d   1       3.735  82.608 110.454  0.00  0.00     0.006 C 
ENDBRANCH   8  11
ENDBRANCH   7   8
ENDBRANCH   1   7
BRANCH   6  13
ATOM     13  N   LIG d   1       0.766  85.374 113.773  0.00  0.00    -0.311 N 
ATOM     14  C   LIG d   1       0.409  84.409 114.619  0.00  0.00     0.210 C 
ATOM     15  C   LIG d   1      -0.973  83.800 114.359  0.00  0.00     0.109 C 
ATOM     16  O   LIG d   1       1.091  84.022 115.580  0.00  0.00    -0.276 OA
ATOM     17  H   LIG d   1       0.138  85.646 113.043  0.00  0.00     0.149 HD
ENDBRANCH   6  13
BRANCH   5  18
ATOM     18  N   LIG d   1       1.671  87.151 116.088  0.00  0.00     0.381 N 
ATOM     19  H   LIG d   1       1.513  86.175 116.243  0.00  0.00    -0.090 HD
ATOM     20  H   LIG d   1       0.827  87.647 116.314  0.00  0.00    -0.090 HD
ATOM     21  H   LIG d   1       2.418  87.470 116.665  0.00  0.00    -0.090 HD
ENDBRANCH   5  18
BRANCH   3  22
ATOM     22  C   LIG d   1       4.646  89.347 113.044  0.00  0.00     0.382 C 
ATOM     23  O   LIG d   1       4.168  90.506 113.088  0.00  0.00    -0.241 OA
ATOM     24  O   LIG d   1       5.838  89.187 112.720  0.00  0.00    -0.241 OA
ENDBRANCH   3  22
TORSDOF 7
ENDMDL
MODEL 6
REMARK VINA RESULT:      -5.3      1.884      2.499
REMARK  7 active torsions:
REMARK  status: ('A' for Active; 'I' for Inactive)
REMARK    1  A    between atoms: C_2  and  C_3 
REMARK    2  A    between atoms: C_3  and  O_6 
REMARK    3  A    between atoms: C_3  and  C_4 
REMARK    4  A    between atoms: C_7  and  O_6 
REMARK    5  A    between atoms: C_9  and  C_10 
REMARK    6  A    between atoms: N_15  and  C_14 
REMARK    7  A    between atoms: N_20  and  C_19 
REMARK       I    between atoms: C_22  and  N_20 
ROOT
ATOM      1  C   LIG d   1       0.097  84.298 113.909  0.00  0.00     0.161 C 
ATOM      2  C   LIG d   1      -0.917  83.330 113.987  0.00  0.00     0.016 C 
ATOM      3  C   LIG d   1      -1.266  82.480 112.912  0.00  0.00     0.038 C 
ATOM      4  C   LIG d   1      -0.517  82.439 111.726  0.00  0.00     0.028 C 
ATOM      5  C   LIG d   1       0.198  83.750 111.415  0.00  0.00    -0.047 C 
ATOM      6  C   LIG d   1       0.999  84.192 112.661  0.00  0.00     0.091 C 
ENDROOT
BRANCH   1   7
ATOM      7  O   LIG d   1       0.896  84.267 115.109  0.00  0.00    -0.368 OA
BRANCH   7   8
ATOM      8  C   LIG d   1       0.481  85.155 116.175  0.00  0.00     0.119 C 
BRANCH   8   9
ATOM      9  C   LIG d   1       1.570  86.235 116.328  0.00  0.00     0.028 C 
ATOM     10  C   LIG d   1       1.245  87.513 115.537  0.00  0.00     0.006 C 
ENDBRANCH   8   9
BRANCH   8  11
ATOM     11  C   LIG d   1       0.438  84.428 117.522  0.00  0.00     0.028 C 
ATOM     12  C   LIG d   1      -0.776  83.495 117.657  0.00  0.00     0.006 C 
ENDBRANCH   8  11
ENDBRANCH   7   8
ENDBRANCH   1   7
BRANCH   6  13
ATOM     13  N   LIG d   1       1.661  85.509 112.471  0.00  0.00    -0.311 N 
ATOM     14  C   LIG d   1       2.980  85.683 112.541  0.00  0.00     0.210 C 
ATOM     15  C   LIG d   1       3.453  87.125 112.334  0.00  0.00     0.109 C 
ATOM     16  O   LIG d   1       3.805  84.775 112.722  0.00  0.00    -0.276 OA
ATOM     17  H   LIG d   1       1.069  86.295 112.289  0.00  0.00     0.149 HD
ENDBRANCH   6  13
BRANCH   5  18
ATOM     18  N   LIG d   1       1.048  83.524 110.232  0.00  0.00     0.381 N 
ATOM     19  H   LIG d   1       1.617  82.713 110.373  0.00  0.00    -0.090 HD
ATOM     20  H   LIG d   1       1.654  84.316 110.110  0.00  0.00    -0.090 HD
ATOM     21  H   LIG d   1       0.481  83.404 109.422  0.00  0.00    -0.090 HD
ENDBRANCH   5  18
BRANCH   3  22
ATOM     22  C   LIG d   1      -2.400  81.688 113.002  0.00  0.00     0.382 C 
ATOM     23  O   LIG d   1      -2.645  81.063 114.062  0.00  0.00    -0.241 OA
ATOM     24  O   LIG d   1      -3.158  81.556 112.022  0.00  0.00    -0.241 OA
ENDBRANCH   3  22
TORSDOF 7
ENDMDL
MODEL 7
REMARK VINA RESULT:      -5.3      2.253      5.059
REMARK  7 active torsions:
REMARK  status: ('A' for Active; 'I' for Inactive)
REMARK    1  A    between atoms: C_2  and  C_3 
REMARK    2  A    between atoms: C_3  and  O_6 
REMARK    3  A    between atoms: C_3  and  C_4 
REMARK    4  A    between atoms: C_7  and  O_6 
REMARK    5  A    between atoms: C_9  and  C_10 
REMARK    6  A    between atoms: N_15  and  C_14 
REMARK    7  A    between atoms: N_20  and  C_19 
REMARK       I    between atoms: C_22  and  N_20 
ROOT
ATOM      1  C   LIG d   1       0.704  83.835 113.503  0.00  0.00     0.161 C 
ATOM      2  C   LIG d   1       1.504  84.864 112.979  0.00  0.00     0.016 C 
ATOM      3  C   LIG d   1       1.653  85.105 111.594  0.00  0.00     0.038 C 
ATOM      4  C   LIG d   1       0.887  84.423 110.636  0.00  0.00     0.028 C 
ATOM      5  C   LIG d   1       0.444  83.036 111.090  0.00  0.00    -0.047 C 
ATOM      6  C   LIG d   1      -0.226  83.153 112.477  0.00  0.00     0.091 C 
ENDROOT
BRANCH   1   7
ATOM      7  O   LIG d   1      -0.061  84.331 114.620  0.00  0.00    -0.368 OA
BRANCH   7   8
ATOM      8  C   LIG d   1       0.650  84.449 115.876  0.00  0.00     0.119 C 
BRANCH   8   9
ATOM      9  C   LIG d   1      -0.243  83.837 116.973  0.00  0.00     0.028 C 
ATOM     10  C   LIG d   1      -1.479  83.128 116.395  0.00  0.00     0.006 C 
ENDBRANCH   8   9
BRANCH   8  11
ATOM     11  C   LIG d   1       0.835  85.916 116.276  0.00  0.00     0.028 C 
ATOM     12  C   LIG d   1       1.725  86.088 117.517  0.00  0.00     0.006 C 
ENDBRANCH   8  11
ENDBRANCH   7   8
ENDBRANCH   1   7
BRANCH   6  13
ATOM     13  N   LIG d   1      -0.614  81.830 113.032  0.00  0.00    -0.311 N 
ATOM     14  C   LIG d   1      -1.823  81.294 112.875  0.00  0.00     0.210 C 
ATOM     15  C   LIG d   1      -2.019  79.931 113.545  0.00  0.00     0.109 C 
ATOM     16  O   LIG d   1      -2.742  81.805 112.217  0.00  0.00    -0.276 OA
ATOM     17  H   LIG d   1       0.081  81.332 113.554  0.00  0.00     0.149 HD
ENDBRANCH   6  13
BRANCH   5  18
ATOM     18  N   LIG d   1      -0.458  82.496 110.055  0.00  0.00     0.381 N 
ATOM     19  H   LIG d   1       0.064  82.282 109.229  0.00  0.00    -0.090 HD
ATOM     20  H   LIG d   1      -1.142  83.195 109.823  0.00  0.00    -0.090 HD
ATOM     21  H   LIG d   1      -0.911  81.676 110.393  0.00  0.00    -0.090 HD
ENDBRANCH   5  18
BRANCH   3  22
ATOM     22  C   LIG d   1       2.607  86.010 111.153  0.00  0.00     0.382 C 
ATOM     23  O   LIG d   1       3.813  85.670 111.092  0.00  0.00    -0.241 OA
ATOM     24  O   LIG d   1       2.282  87.175 110.857  0.00  0.00    -0.241 OA
ENDBRANCH   3  22
TORSDOF 7
ENDMDL
MODEL 8
REMARK VINA RESULT:      -5.2      1.730      2.509
REMARK  7 active torsions:
REMARK  status: ('A' for Active; 'I' for Inactive)
REMARK    1  A    between atoms: C_2  and  C_3 
REMARK    2  A    between atoms: C_3  and  O_6 
REMARK    3  A    between atoms: C_3  and  C_4 
REMARK    4  A    between atoms: C_7  and  O_6 
REMARK    5  A    between atoms: C_9  and  C_10 
REMARK    6  A    between atoms: N_15  and  C_14 
REMARK    7  A    between atoms: N_20  and  C_19 
REMARK       I    between atoms: C_22  and  N_20 
ROOT
ATOM      1  C   LIG d   1      -0.184  84.485 112.791  0.00  0.00     0.161 C 
ATOM      2  C   LIG d   1      -1.123  83.441 112.746  0.00  0.00     0.016 C 
ATOM      3  C   LIG d   1      -0.831  82.154 112.238  0.00  0.00     0.038 C 
ATOM      4  C   LIG d   1       0.471  81.777 111.877  0.00  0.00     0.028 C 
ATOM      5  C   LIG d   1       1.340  82.949 111.432  0.00  0.00    -0.047 C 
ATOM      6  C   LIG d   1       1.271  84.060 112.505  0.00  0.00     0.091 C 
ENDROOT
BRANCH   1   7
ATOM      7  O   LIG d   1      -0.268  85.162 114.061  0.00  0.00    -0.368 OA
BRANCH   7   8
ATOM      8  C   LIG d   1       0.505  84.586 115.143  0.00  0.00     0.119 C 
BRANCH   8   9
ATOM      9  C   LIG d   1      -0.491  84.035 116.181  0.00  0.00     0.028 C 
ATOM     10  C   LIG d   1      -0.450  82.500 116.275  0.00  0.00     0.006 C 
ENDBRANCH   8   9
BRANCH   8  11
ATOM     11  C   LIG d   1       1.311  85.658 115.883  0.00  0.00     0.028 C 
ATOM     12  C   LIG d   1       1.074  87.071 115.329  0.00  0.00     0.006 C 
ENDBRANCH   8  11
ENDBRANCH   7   8
ENDBRANCH   1   7
BRANCH   6  13
ATOM     13  N   LIG d   1       2.026  85.277 112.110  0.00  0.00    -0.311 N 
ATOM     14  C   LIG d   1       3.266  85.537 112.522  0.00  0.00     0.210 C 
ATOM     15  C   LIG d   1       3.853  86.857 112.012  0.00  0.00     0.109 C 
ATOM     16  O   LIG d   1       3.946  84.785 113.235  0.00  0.00    -0.276 OA
ATOM     17  H   LIG d   1       1.560  85.927 111.507  0.00  0.00     0.149 HD
ENDBRANCH   6  13
BRANCH   5  18
ATOM     18  N   LIG d   1       2.706  82.435 111.218  0.00  0.00     0.381 N 
ATOM     19  H   LIG d   1       2.718  81.442 111.344  0.00  0.00    -0.090 HD
ATOM     20  H   LIG d   1       3.318  82.847 111.900  0.00  0.00    -0.090 HD
ATOM     21  H   LIG d   1       3.017  82.665 110.300  0.00  0.00    -0.090 HD
ENDBRANCH   5  18
BRANCH   3  22
ATOM     22  C   LIG d   1      -1.857  81.241 112.049  0.00  0.00     0.382 C 
ATOM     23  O   LIG d   1      -1.594  80.066 111.695  0.00  0.00    -0.241 OA
ATOM     24  O   LIG d   1      -3.046  81.589 112.185  0.00  0.00    -0.241 OA
ENDBRANCH   3  22
TORSDOF 7
ENDMDL
MODEL 9
REMARK VINA RESULT:      -5.1      2.096      4.133
REMARK  7 active torsions:
REMARK  status: ('A' for Active; 'I' for Inactive)
REMARK    1  A    between atoms: C_2  and  C_3 
REMARK    2  A    between atoms: C_3  and  O_6 
REMARK    3  A    between atoms: C_3  and  C_4 
REMARK    4  A    between atoms: C_7  and  O_6 
REMARK    5  A    between atoms: C_9  and  C_10 
REMARK    6  A    between atoms: N_15  and  C_14 
REMARK    7  A    between atoms: N_20  and  C_19 
REMARK       I    between atoms: C_22  and  N_20 
ROOT
ATOM      1  C   LIG d   1       0.616  83.347 112.168  0.00  0.00     0.161 C 
ATOM      2  C   LIG d   1      -0.489  82.495 112.009  0.00  0.00     0.016 C 
ATOM      3  C   LIG d   1      -1.504  82.345 112.982  0.00  0.00     0.038 C 
ATOM      4  C   LIG d   1      -1.560  83.157 114.125  0.00  0.00     0.028 C 
ATOM      5  C   LIG d   1      -0.195  83.672 114.569  0.00  0.00    -0.047 C 
ATOM      6  C   LIG d   1       0.514  84.322 113.359  0.00  0.00     0.091 C 
ENDROOT
BRANCH   1   7
ATOM      7  O   LIG d   1       0.855  84.072 110.946  0.00  0.00    -0.368 OA
BRANCH   7   8
ATOM      8  C   LIG d   1       2.020  83.670 110.184  0.00  0.00     0.119 C 
BRANCH   8   9
ATOM      9  C   LIG d   1       2.730  82.555 110.977  0.00  0.00     0.028 C 
ATOM     10  C   LIG d   1       3.445  81.548 110.061  0.00  0.00     0.006 C 
ENDBRANCH   8   9
BRANCH   8  11
ATOM     11  C   LIG d   1       3.040  84.809 110.084  0.00  0.00     0.028 C 
ATOM     12  C   LIG d   1       4.197  84.662 111.085  0.00  0.00     0.006 C 
ENDBRANCH   8  11
ENDBRANCH   7   8
ENDBRANCH   1   7
BRANCH   6  13
ATOM     13  N   LIG d   1       1.890  84.778 113.687  0.00  0.00    -0.311 N 
ATOM     14  C   LIG d   1       2.181  86.024 114.056  0.00  0.00     0.210 C 
ATOM     15  C   LIG d   1       3.665  86.288 114.329  0.00  0.00     0.109 C 
ATOM     16  O   LIG d   1       1.347  86.928 114.216  0.00  0.00    -0.276 OA
ATOM     17  H   LIG d   1       2.624  84.101 113.614  0.00  0.00     0.149 HD
ENDBRANCH   6  13
BRANCH   5  18
ATOM     18  N   LIG d   1      -0.416  84.613 115.684  0.00  0.00     0.381 N 
ATOM     19  H   LIG d   1      -0.664  84.107 116.511  0.00  0.00    -0.090 HD
ATOM     20  H   LIG d   1      -1.177  85.224 115.448  0.00  0.00    -0.090 HD
ATOM     21  H   LIG d   1       0.410  85.146 115.848  0.00  0.00    -0.090 HD
ENDBRANCH   5  18
BRANCH   3  22
ATOM     22  C   LIG d   1      -2.454  81.347 112.836  0.00  0.00     0.382 C 
ATOM     23  O   LIG d   1      -3.371  81.473 111.989  0.00  0.00    -0.241 OA
ATOM     24  O   LIG d   1      -2.433  80.341 113.571  0.00  0.00    -0.241 OA
ENDBRANCH   3  22
TORSDOF 7
ENDMDL
