MODEL 1
REMARK VINA RESULT:      -5.7      0.000      0.000
REMARK  7 active torsions:
REMARK  status: ('A' for Active; 'I' for Inactive)
REMARK    1  A    between atoms: C_2  and  C_3 
REMARK    2  A    between atoms: C_3  and  O_6 
REMARK    3  A    between atoms: C_3  and  C_4 
REMARK    4  A    between atoms: C_7  and  O_6 
REMARK    5  A    between atoms: C_9  and  C_10 
REMARK    6  A    between atoms: N_15  and  C_14 
REMARK    7  A    between atoms: N_20  and  C_19 
REMARK       I    between atoms: C_22  and  N_20 
ROOT
ATOM      1  C   LIG d   1       2.968  84.426 113.332  0.00  0.00     0.161 C 
ATOM      2  C   LIG d   1       1.664  84.495 112.814  0.00  0.00     0.016 C 
ATOM      3  C   LIG d   1       0.792  85.585 113.041  0.00  0.00     0.038 C 
ATOM      4  C   LIG d   1       1.223  86.757 113.681  0.00  0.00     0.028 C 
ATOM      5  C   LIG d   1       2.371  86.527 114.658  0.00  0.00    -0.047 C 
ATOM      6  C   LIG d   1       3.493  85.744 113.939  0.00  0.00     0.091 C 
ENDROOT
BRANCH   1   7
ATOM      7  O   LIG d   1       3.872  83.946 112.317  0.00  0.00    -0.368 OA
BRANCH   7   8
ATOM      8  C   LIG d   1       3.369  83.956 110.958  0.00  0.00     0.119 C 
BRANCH   8   9
ATOM      9  C   LIG d   1       4.142  82.882 110.170  0.00  0.00     0.028 C 
ATOM     10  C   LIG d   1       3.366  81.558 110.066  0.00  0.00     0.006 C 
ENDBRANCH   8   9
BRANCH   8  11
ATOM     11  C   LIG d   1       3.685  85.280 110.257  0.00  0.00     0.028 C 
ATOM     12  C   LIG d   1       2.442  86.162 110.058  0.00  0.00     0.006 C 
ENDBRANCH   8  11
ENDBRANCH   7   8
ENDBRANCH   1   7
BRANCH   6  13
ATOM     13  N   LIG d   1       4.618  85.403 114.847  0.00  0.00    -0.311 N 
ATOM     14  C   LIG d   1       5.687  86.180 115.013  0.00  0.00     0.210 C 
ATOM     15  C   LIG d   1       6.741  85.633 115.981  0.00  0.00     0.109 C 
ATOM     16  O   LIG d   1       5.848  87.286 114.475  0.00  0.00    -0.276 OA
ATOM     17  H   LIG d   1       4.555  84.538 115.347  0.00  0.00     0.149 HD
ENDBRANCH   6  13
BRANCH   5  18
ATOM     18  N   LIG d   1       2.810  87.847 115.148  0.00  0.00     0.381 N 
ATOM     19  H   LIG d   1       3.200  87.755 116.065  0.00  0.00    -0.090 HD
ATOM     20  H   LIG d   1       2.011  88.454 115.205  0.00  0.00    -0.090 HD
ATOM     21  H   LIG d   1       3.487  88.233 114.528  0.00  0.00    -0.090 HD
ENDBRANCH   5  18
BRANCH   3  22
ATOM     22  C   LIG d   1      -0.538  85.492 112.660  0.00  0.00     0.382 C 
ATOM     23  O   LIG d   1      -0.970  84.435 112.142  0.00  0.00    -0.241 OA
ATOM     24  O   LIG d   1      -1.301  86.469 112.788  0.00  0.00    -0.241 OA
ENDBRANCH   3  22
TORSDOF 7
ENDMDL
MODEL 2
REMARK VINA RESULT:      -5.5      2.561      4.245
REMARK  7 active torsions:
REMARK  status: ('A' for Active; 'I' for Inactive)
REMARK    1  A    between atoms: C_2  and  C_3 
REMARK    2  A    between atoms: C_3  and  O_6 
REMARK    3  A    between atoms: C_3  and  C_4 
REMARK    4  A    between atoms: C_7  and  O_6 
REMARK    5  A    between atoms: C_9  and  C_10 
REMARK    6  A    between atoms: N_15  and  C_14 
REMARK    7  A    between atoms: N_20  and  C_19 
REMARK       I    between atoms: C_22  and  N_20 
ROOT
ATOM      1  C   LIG d   1       1.921  84.814 113.854  0.00  0.00     0.161 C 
ATOM      2  C   LIG d   1       2.526  85.847 113.118  0.00  0.00     0.016 C 
ATOM      3  C   LIG d   1       3.728  86.480 113.509  0.00  0.00     0.038 C 
ATOM      4  C   LIG d   1       4.491  86.019 114.592  0.00  0.00     0.028 C 
ATOM      5  C   LIG d   1       3.663  85.307 115.657  0.00  0.00    -0.047 C 
ATOM      6  C   LIG d   1       2.797  84.222 114.977  0.00  0.00     0.091 C 
ENDROOT
BRANCH   1   7
ATOM      7  O   LIG d   1       1.479  83.772 112.961  0.00  0.00    -0.368 OA
BRANCH   7   8
ATOM      8  C   LIG d   1       1.575  84.063 111.545  0.00  0.00     0.119 C 
BRANCH   8   9
ATOM      9  C   LIG d   1       0.159  83.935 110.950  0.00  0.00     0.028 C 
ATOM     10  C   LIG d   1      -0.264  85.190 110.167  0.00  0.00     0.006 C 
ENDBRANCH   8   9
BRANCH   8  11
ATOM     11  C   LIG d   1       2.417  83.012 110.816  0.00  0.00     0.028 C 
ATOM     12  C   LIG d   1       3.900  83.404 110.714  0.00  0.00     0.006 C 
ENDBRANCH   8  11
ENDBRANCH   7   8
ENDBRANCH   1   7
BRANCH   6  13
ATOM     13  N   LIG d   1       1.894  83.535 115.937  0.00  0.00    -0.311 N 
ATOM     14  C   LIG d   1       2.043  82.262 116.301  0.00  0.00     0.210 C 
ATOM     15  C   LIG d   1       0.990  81.744 117.286  0.00  0.00     0.109 C 
ATOM     16  O   LIG d   1       2.965  81.523 115.927  0.00  0.00    -0.276 OA
ATOM     17  H   LIG d   1       1.136  84.070 116.314  0.00  0.00     0.149 HD
ENDBRANCH   6  13
BRANCH   5  18
ATOM     18  N   LIG d   1       4.599  84.758 116.656  0.00  0.00     0.381 N 
ATOM     19  H   LIG d   1       4.382  83.798 116.832  0.00  0.00    -0.090 HD
ATOM     20  H   LIG d   1       4.493  85.268 117.515  0.00  0.00    -0.090 HD
ATOM     21  H   LIG d   1       5.536  84.839 116.327  0.00  0.00    -0.090 HD
ENDBRANCH   5  18
BRANCH   3  22
ATOM     22  C   LIG d   1       4.157  87.615 112.838  0.00  0.00     0.382 C 
ATOM     23  O   LIG d   1       5.378  87.902 112.808  0.00  0.00    -0.241 OA
ATOM     24  O   LIG d   1       3.334  88.379 112.299  0.00  0.00    -0.241 OA
ENDBRANCH   3  22
TORSDOF 7
ENDMDL
MODEL 3
REMARK VINA RESULT:      -5.3     25.274     28.707
REMARK  7 active torsions:
REMARK  status: ('A' for Active; 'I' for Inactive)
REMARK    1  A    between atoms: C_2  and  C_3 
REMARK    2  A    between atoms: C_3  and  O_6 
REMARK    3  A    between atoms: C_3  and  C_4 
REMARK    4  A    between atoms: C_7  and  O_6 
REMARK    5  A    between atoms: C_9  and  C_10 
REMARK    6  A    between atoms: N_15  and  C_14 
REMARK    7  A    between atoms: N_20  and  C_19 
REMARK       I    between atoms: C_22  and  N_20 
ROOT
ATOM      1  C   LIG d   1     -25.415  85.667 112.784  0.00  0.00     0.161 C 
ATOM      2  C   LIG d   1     -24.419  86.575 113.182  0.00  0.00     0.016 C 
ATOM      3  C   LIG d   1     -23.058  86.222 113.328  0.00  0.00     0.038 C 
ATOM      4  C   LIG d   1     -22.571  84.966 112.937  0.00  0.00     0.028 C 
ATOM      5  C   LIG d   1     -23.621  83.861 113.008  0.00  0.00    -0.047 C 
ATOM      6  C   LIG d   1     -24.885  84.321 112.247  0.00  0.00     0.091 C 
ENDROOT
BRANCH   1   7
ATOM      7  O   LIG d   1     -26.282  86.287 111.815  0.00  0.00    -0.368 OA
BRANCH   7   8
ATOM      8  C   LIG d   1     -27.447  86.968 112.344  0.00  0.00     0.119 C 
BRANCH   8   9
ATOM      9  C   LIG d   1     -28.614  85.962 112.337  0.00  0.00     0.028 C 
ATOM     10  C   LIG d   1     -29.291  85.859 110.959  0.00  0.00     0.006 C 
ENDBRANCH   8   9
BRANCH   8  11
ATOM     11  C   LIG d   1     -27.890  88.110 111.426  0.00  0.00     0.028 C 
ATOM     12  C   LIG d   1     -27.523  89.496 111.979  0.00  0.00     0.006 C 
ENDBRANCH   8  11
ENDBRANCH   7   8
ENDBRANCH   1   7
BRANCH   6  13
ATOM     13  N   LIG d   1     -25.992  83.333 112.338  0.00  0.00    -0.311 N 
ATOM     14  C   LIG d   1     -26.749  82.983 111.299  0.00  0.00     0.210 C 
ATOM     15  C   LIG d   1     -27.848  81.963 111.615  0.00  0.00     0.109 C 
ATOM     16  O   LIG d   1     -26.594  83.395 110.140  0.00  0.00    -0.276 OA
ATOM     17  H   LIG d   1     -26.167  82.926 113.235  0.00  0.00     0.149 HD
ENDBRANCH   6  13
BRANCH   5  18
ATOM     18  N   LIG d   1     -23.019  82.638 112.444  0.00  0.00     0.381 N 
ATOM     19  H   LIG d   1     -23.160  82.617 111.453  0.00  0.00    -0.090 HD
ATOM     20  H   LIG d   1     -23.474  81.837 112.844  0.00  0.00    -0.090 HD
ATOM     21  H   LIG d   1     -22.044  82.612 112.648  0.00  0.00    -0.090 HD
ENDBRANCH   5  18
BRANCH   3  22
ATOM     22  C   LIG d   1     -22.174  87.119 113.908  0.00  0.00     0.382 C 
ATOM     23  O   LIG d   1     -22.523  87.781 114.916  0.00  0.00    -0.241 OA
ATOM     24  O   LIG d   1     -21.048  87.309 113.410  0.00  0.00    -0.241 OA
ENDBRANCH   3  22
TORSDOF 7
ENDMDL
MODEL 4
REMARK VINA RESULT:      -5.0     25.640     28.042
REMARK  7 active torsions:
REMARK  status: ('A' for Active; 'I' for Inactive)
REMARK    1  A    between atoms: C_2  and  C_3 
REMARK    2  A    between atoms: C_3  and  O_6 
REMARK    3  A    between atoms: C_3  and  C_4 
REMARK    4  A    between atoms: C_7  and  O_6 
REMARK    5  A    between atoms: C_9  and  C_10 
REMARK    6  A    between atoms: N_15  and  C_14 
REMARK    7  A    between atoms: N_20  and  C_19 
REMARK       I    between atoms: C_22  and  N_20 
ROOT
ATOM      1  C   LIG d   1     -23.940  83.628 112.619  0.00  0.00     0.161 C 
ATOM      2  C   LIG d   1     -23.013  84.566 113.105  0.00  0.00     0.016 C 
ATOM      3  C   LIG d   1     -23.333  85.922 113.346  0.00  0.00     0.038 C 
ATOM      4  C   LIG d   1     -24.648  86.400 113.260  0.00  0.00     0.028 C 
ATOM      5  C   LIG d   1     -25.518  85.610 112.288  0.00  0.00    -0.047 C 
ATOM      6  C   LIG d   1     -25.407  84.105 112.625  0.00  0.00     0.091 C 
ENDROOT
BRANCH   1   7
ATOM      7  O   LIG d   1     -23.812  82.392 113.350  0.00  0.00    -0.368 OA
BRANCH   7   8
ATOM      8  C   LIG d   1     -24.421  82.362 114.664  0.00  0.00     0.119 C 
BRANCH   8   9
ATOM      9  C   LIG d   1     -23.316  82.010 115.678  0.00  0.00     0.028 C 
ATOM     10  C   LIG d   1     -22.932  83.205 116.566  0.00  0.00     0.006 C 
ENDBRANCH   8   9
BRANCH   8  11
ATOM     11  C   LIG d   1     -25.450  81.233 114.776  0.00  0.00     0.028 C 
ATOM     12  C   LIG d   1     -24.915  80.014 115.544  0.00  0.00     0.006 C 
ENDBRANCH   8  11
ENDBRANCH   7   8
ENDBRANCH   1   7
BRANCH   6  13
ATOM     13  N   LIG d   1     -26.161  83.253 111.669  0.00  0.00    -0.311 N 
ATOM     14  C   LIG d   1     -27.400  82.818 111.895  0.00  0.00     0.210 C 
ATOM     15  C   LIG d   1     -27.986  81.935 110.788  0.00  0.00     0.109 C 
ATOM     16  O   LIG d   1     -28.080  83.105 112.891  0.00  0.00    -0.276 OA
ATOM     17  H   LIG d   1     -25.696  82.998 110.820  0.00  0.00     0.149 HD
ENDBRANCH   6  13
BRANCH   5  18
ATOM     18  N   LIG d   1     -26.895  86.127 112.400  0.00  0.00     0.381 N 
ATOM     19  H   LIG d   1     -27.024  86.557 113.294  0.00  0.00    -0.090 HD
ATOM     20  H   LIG d   1     -27.538  85.359 112.324  0.00  0.00    -0.090 HD
ATOM     21  H   LIG d   1     -27.070  86.790 111.677  0.00  0.00    -0.090 HD
ENDBRANCH   5  18
BRANCH   3  22
ATOM     22  C   LIG d   1     -22.321  86.824 113.639  0.00  0.00     0.382 C 
ATOM     23  O   LIG d   1     -21.201  86.712 113.085  0.00  0.00    -0.241 OA
ATOM     24  O   LIG d   1     -22.501  87.722 114.483  0.00  0.00    -0.241 OA
ENDBRANCH   3  22
TORSDOF 7
ENDMDL
MODEL 5
REMARK VINA RESULT:      -4.8     25.280     28.369
REMARK  7 active torsions:
REMARK  status: ('A' for Active; 'I' for Inactive)
REMARK    1  A    between atoms: C_2  and  C_3 
REMARK    2  A    between atoms: C_3  and  O_6 
REMARK    3  A    between atoms: C_3  and  C_4 
REMARK    4  A    between atoms: C_7  and  O_6 
REMARK    5  A    between atoms: C_9  and  C_10 
REMARK    6  A    between atoms: N_15  and  C_14 
REMARK    7  A    between atoms: N_20  and  C_19 
REMARK       I    between atoms: C_22  and  N_20 
ROOT
ATOM      1  C   LIG d   1     -25.043  84.795 114.898  0.00  0.00     0.161 C 
ATOM      2  C   LIG d   1     -24.252  85.937 114.685  0.00  0.00     0.016 C 
ATOM      3  C   LIG d   1     -23.114  85.950 113.847  0.00  0.00     0.038 C 
ATOM      4  C   LIG d   1     -22.774  84.853 113.041  0.00  0.00     0.028 C 
ATOM      5  C   LIG d   1     -23.248  83.518 113.604  0.00  0.00    -0.047 C 
ATOM      6  C   LIG d   1     -24.753  83.620 113.941  0.00  0.00     0.091 C 
ENDROOT
BRANCH   1   7
ATOM      7  O   LIG d   1     -26.439  85.151 114.845  0.00  0.00    -0.368 OA
BRANCH   7   8
ATOM      8  C   LIG d   1     -26.919  85.665 113.579  0.00  0.00     0.119 C 
BRANCH   8   9
ATOM      9  C   LIG d   1     -27.422  87.101 113.823  0.00  0.00     0.028 C 
ATOM     10  C   LIG d   1     -26.701  88.133 112.938  0.00  0.00     0.006 C 
ENDBRANCH   8   9
BRANCH   8  11
ATOM     11  C   LIG d   1     -28.142  84.885 113.088  0.00  0.00     0.028 C 
ATOM     12  C   LIG d   1     -28.112  84.620 111.575  0.00  0.00     0.006 C 
ENDBRANCH   8  11
ENDBRANCH   7   8
ENDBRANCH   1   7
BRANCH   6  13
ATOM     13  N   LIG d   1     -25.278  82.383 114.575  0.00  0.00    -0.311 N 
ATOM     14  C   LIG d   1     -26.155  81.573 113.987  0.00  0.00     0.210 C 
ATOM     15  C   LIG d   1     -26.581  80.363 114.824  0.00  0.00     0.109 C 
ATOM     16  O   LIG d   1     -26.597  81.724 112.838  0.00  0.00    -0.276 OA
ATOM     17  H   LIG d   1     -24.948  82.168 115.496  0.00  0.00     0.149 HD
ENDBRANCH   6  13
BRANCH   5  18
ATOM     18  N   LIG d   1     -22.949  82.479 112.600  0.00  0.00     0.381 N 
ATOM     19  H   LIG d   1     -23.017  82.868 111.680  0.00  0.00    -0.090 HD
ATOM     20  H   LIG d   1     -23.628  81.743 112.682  0.00  0.00    -0.090 HD
ATOM     21  H   LIG d   1     -22.034  82.115 112.748  0.00  0.00    -0.090 HD
ENDBRANCH   5  18
BRANCH   3  22
ATOM     22  C   LIG d   1     -22.278  87.056 113.840  0.00  0.00     0.382 C 
ATOM     23  O   LIG d   1     -21.222  87.040 113.163  0.00  0.00    -0.241 OA
ATOM     24  O   LIG d   1     -22.545  88.054 114.536  0.00  0.00    -0.241 OA
ENDBRANCH   3  22
TORSDOF 7
ENDMDL
MODEL 6
REMARK VINA RESULT:      -4.7     10.172     12.502
REMARK  7 active torsions:
REMARK  status: ('A' for Active; 'I' for Inactive)
REMARK    1  A    between atoms: C_2  and  C_3 
REMARK    2  A    between atoms: C_3  and  O_6 
REMARK    3  A    between atoms: C_3  and  C_4 
REMARK    4  A    between atoms: C_7  and  O_6 
REMARK    5  A    between atoms: C_9  and  C_10 
REMARK    6  A    between atoms: N_15  and  C_14 
REMARK    7  A    between atoms: N_20  and  C_19 
REMARK       I    between atoms: C_22  and  N_20 
ROOT
ATOM      1  C   LIG d   1      12.683  78.635 114.233  0.00  0.00     0.161 C 
ATOM      2  C   LIG d   1      11.535  78.962 114.973  0.00  0.00     0.016 C 
ATOM      3  C   LIG d   1      10.604  79.949 114.572  0.00  0.00     0.038 C 
ATOM      4  C   LIG d   1      10.680  80.573 113.318  0.00  0.00     0.028 C 
ATOM      5  C   LIG d   1      12.098  80.640 112.760  0.00  0.00    -0.047 C 
ATOM      6  C   LIG d   1      12.723  79.227 112.808  0.00  0.00     0.091 C 
ENDROOT
BRANCH   1   7
ATOM      7  O   LIG d   1      12.842  77.204 114.185  0.00  0.00    -0.368 OA
BRANCH   7   8
ATOM      8  C   LIG d   1      13.787  76.636 115.126  0.00  0.00     0.119 C 
BRANCH   8   9
ATOM      9  C   LIG d   1      15.064  76.280 114.342  0.00  0.00     0.028 C 
ATOM     10  C   LIG d   1      16.227  77.239 114.648  0.00  0.00     0.006 C 
ENDBRANCH   8   9
BRANCH   8  11
ATOM     11  C   LIG d   1      13.277  75.309 115.695  0.00  0.00     0.028 C 
ATOM     12  C   LIG d   1      11.811  75.027 115.328  0.00  0.00     0.006 C 
ENDBRANCH   8  11
ENDBRANCH   7   8
ENDBRANCH   1   7
BRANCH   6  13
ATOM     13  N   LIG d   1      14.140  79.219 112.358  0.00  0.00    -0.311 N 
ATOM     14  C   LIG d   1      14.585  78.466 111.353  0.00  0.00     0.210 C 
ATOM     15  C   LIG d   1      16.084  78.594 111.065  0.00  0.00     0.109 C 
ATOM     16  O   LIG d   1      13.875  77.729 110.653  0.00  0.00    -0.276 OA
ATOM     17  H   LIG d   1      14.779  79.811 112.851  0.00  0.00     0.149 HD
ENDBRANCH   6  13
BRANCH   5  18
ATOM     18  N   LIG d   1      12.013  81.188 111.393  0.00  0.00     0.381 N 
ATOM     19  H   LIG d   1      12.700  80.754 110.810  0.00  0.00    -0.090 HD
ATOM     20  H   LIG d   1      12.204  82.174 111.425  0.00  0.00    -0.090 HD
ATOM     21  H   LIG d   1      11.103  81.031 111.018  0.00  0.00    -0.090 HD
ENDBRANCH   5  18
BRANCH   3  22
ATOM     22  C   LIG d   1       9.606  80.348 115.447  0.00  0.00     0.382 C 
ATOM     23  O   LIG d   1       8.997  81.428 115.254  0.00  0.00    -0.241 OA
ATOM     24  O   LIG d   1       9.336  79.664 116.453  0.00  0.00    -0.241 OA
ENDBRANCH   3  22
TORSDOF 7
ENDMDL
MODEL 7
REMARK VINA RESULT:      -4.6     25.386     28.379
REMARK  7 active torsions:
REMARK  status: ('A' for Active; 'I' for Inactive)
REMARK    1  A    between atoms: C_2  and  C_3 
REMARK    2  A    between atoms: C_3  and  O_6 
REMARK    3  A    between atoms: C_3  and  C_4 
REMARK    4  A    between atoms: C_7  and  O_6 
REMARK    5  A    between atoms: C_9  and  C_10 
REMARK    6  A    between atoms: N_15  and  C_14 
REMARK    7  A    between atoms: N_20  and  C_19 
REMARK       I    between atoms: C_22  and  N_20 
ROOT
ATOM      1  C   LIG d   1     -25.585  85.098 114.763  0.00  0.00     0.161 C 
ATOM      2  C   LIG d   1     -24.653  86.050 114.316  0.00  0.00     0.016 C 
ATOM      3  C   LIG d   1     -23.296  85.747 114.056  0.00  0.00     0.038 C 
ATOM      4  C   LIG d   1     -22.812  84.431 114.080  0.00  0.00     0.028 C 
ATOM      5  C   LIG d   1     -23.595  83.515 115.014  0.00  0.00    -0.047 C 
ATOM      6  C   LIG d   1     -25.102  83.635 114.689  0.00  0.00     0.091 C 
ENDROOT
BRANCH   1   7
ATOM      7  O   LIG d   1     -26.825  85.254 114.045  0.00  0.00    -0.368 OA
BRANCH   7   8
ATOM      8  C   LIG d   1     -26.709  85.548 112.631  0.00  0.00     0.119 C 
BRANCH   8   9
ATOM      9  C   LIG d   1     -27.657  86.723 112.323  0.00  0.00     0.028 C 
ATOM     10  C   LIG d   1     -26.898  87.998 111.918  0.00  0.00     0.006 C 
ENDBRANCH   8   9
BRANCH   8  11
ATOM     11  C   LIG d   1     -27.217  84.383 111.776  0.00  0.00     0.028 C 
ATOM     12  C   LIG d   1     -26.079  83.545 111.173  0.00  0.00     0.006 C 
ENDBRANCH   8  11
ENDBRANCH   7   8
ENDBRANCH   1   7
BRANCH   6  13
ATOM     13  N   LIG d   1     -25.947  82.834 115.613  0.00  0.00    -0.311 N 
ATOM     14  C   LIG d   1     -26.390  81.611 115.327  0.00  0.00     0.210 C 
ATOM     15  C   LIG d   1     -27.263  80.971 116.411  0.00  0.00     0.109 C 
ATOM     16  O   LIG d   1     -26.116  80.983 114.294  0.00  0.00    -0.276 OA
ATOM     17  H   LIG d   1     -26.191  83.256 116.488  0.00  0.00     0.149 HD
ENDBRANCH   6  13
BRANCH   5  18
ATOM     18  N   LIG d   1     -23.073  82.146 114.838  0.00  0.00     0.381 N 
ATOM     19  H   LIG d   1     -22.523  82.099 114.003  0.00  0.00    -0.090 HD
ATOM     20  H   LIG d   1     -23.847  81.513 114.742  0.00  0.00    -0.090 HD
ATOM     21  H   LIG d   1     -22.519  81.889 115.625  0.00  0.00    -0.090 HD
ENDBRANCH   5  18
BRANCH   3  22
ATOM     22  C   LIG d   1     -22.399  86.774 113.805  0.00  0.00     0.382 C 
ATOM     23  O   LIG d   1     -21.407  86.573 113.063  0.00  0.00    -0.241 OA
ATOM     24  O   LIG d   1     -22.545  87.886 114.347  0.00  0.00    -0.241 OA
ENDBRANCH   3  22
TORSDOF 7
ENDMDL
MODEL 8
REMARK VINA RESULT:      -4.6      2.791      4.510
REMARK  7 active torsions:
REMARK  status: ('A' for Active; 'I' for Inactive)
REMARK    1  A    between atoms: C_2  and  C_3 
REMARK    2  A    between atoms: C_3  and  O_6 
REMARK    3  A    between atoms: C_3  and  C_4 
REMARK    4  A    between atoms: C_7  and  O_6 
REMARK    5  A    between atoms: C_9  and  C_10 
REMARK    6  A    between atoms: N_15  and  C_14 
REMARK    7  A    between atoms: N_20  and  C_19 
REMARK       I    between atoms: C_22  and  N_20 
ROOT
ATOM      1  C   LIG d   1       2.255  83.960 113.451  0.00  0.00     0.161 C 
ATOM      2  C   LIG d   1       1.439  83.133 112.661  0.00  0.00     0.016 C 
ATOM      3  C   LIG d   1       1.371  83.225 111.251  0.00  0.00     0.038 C 
ATOM      4  C   LIG d   1       2.234  84.054 110.520  0.00  0.00     0.028 C 
ATOM      5  C   LIG d   1       2.717  85.269 111.306  0.00  0.00    -0.047 C 
ATOM      6  C   LIG d   1       3.285  84.795 112.663  0.00  0.00     0.091 C 
ENDROOT
BRANCH   1   7
ATOM      7  O   LIG d   1       2.915  83.172 114.461  0.00  0.00    -0.368 OA
BRANCH   7   8
ATOM      8  C   LIG d   1       2.193  82.997 115.705  0.00  0.00     0.119 C 
BRANCH   8   9
ATOM      9  C   LIG d   1       2.920  83.824 116.783  0.00  0.00     0.028 C 
ATOM     10  C   LIG d   1       1.995  84.851 117.458  0.00  0.00     0.006 C 
ENDBRANCH   8   9
BRANCH   8  11
ATOM     11  C   LIG d   1       2.265  81.546 116.191  0.00  0.00     0.028 C 
ATOM     12  C   LIG d   1       1.007  81.113 116.960  0.00  0.00     0.006 C 
ENDBRANCH   8  11
ENDBRANCH   7   8
ENDBRANCH   1   7
BRANCH   6  13
ATOM     13  N   LIG d   1       3.703  85.928 113.529  0.00  0.00    -0.311 N 
ATOM     14  C   LIG d   1       4.833  85.934 114.235  0.00  0.00     0.210 C 
ATOM     15  C   LIG d   1       5.062  87.192 115.078  0.00  0.00     0.109 C 
ATOM     16  O   LIG d   1       5.682  85.030 114.217  0.00  0.00    -0.276 OA
ATOM     17  H   LIG d   1       3.087  86.716 113.578  0.00  0.00     0.149 HD
ENDBRANCH   6  13
BRANCH   5  18
ATOM     18  N   LIG d   1       3.714  85.970 110.475  0.00  0.00     0.381 N 
ATOM     19  H   LIG d   1       3.943  86.850 110.891  0.00  0.00    -0.090 HD
ATOM     20  H   LIG d   1       3.317  86.143 109.568  0.00  0.00    -0.090 HD
ATOM     21  H   LIG d   1       4.535  85.413 110.385  0.00  0.00    -0.090 HD
ENDBRANCH   5  18
BRANCH   3  22
ATOM     22  C   LIG d   1       0.404  82.509 110.562  0.00  0.00     0.382 C 
ATOM     23  O   LIG d   1       0.689  81.397 110.056  0.00  0.00    -0.241 OA
ATOM     24  O   LIG d   1      -0.737  82.983 110.401  0.00  0.00    -0.241 OA
ENDBRANCH   3  22
TORSDOF 7
ENDMDL
MODEL 9
REMARK VINA RESULT:      -4.6      3.251      5.591
REMARK  7 active torsions:
REMARK  status: ('A' for Active; 'I' for Inactive)
REMARK    1  A    between atoms: C_2  and  C_3 
REMARK    2  A    between atoms: C_3  and  O_6 
REMARK    3  A    between atoms: C_3  and  C_4 
REMARK    4  A    between atoms: C_7  and  O_6 
REMARK    5  A    between atoms: C_9  and  C_10 
REMARK    6  A    between atoms: N_15  and  C_14 
REMARK    7  A    between atoms: N_20  and  C_19 
REMARK       I    between atoms: C_22  and  N_20 
ROOT
ATOM      1  C   LIG d   1       1.991  83.952 112.834  0.00  0.00     0.161 C 
ATOM      2  C   LIG d   1       2.212  83.125 113.948  0.00  0.00     0.016 C 
ATOM      3  C   LIG d   1       1.696  81.813 114.057  0.00  0.00     0.038 C 
ATOM      4  C   LIG d   1       1.046  81.180 112.988  0.00  0.00     0.028 C 
ATOM      5  C   LIG d   1       0.362  82.154 112.033  0.00  0.00    -0.047 C 
ATOM      6  C   LIG d   1       1.378  83.239 111.610  0.00  0.00     0.091 C 
ENDROOT
BRANCH   1   7
ATOM      7  O   LIG d   1       3.218  84.614 112.465  0.00  0.00    -0.368 OA
BRANCH   7   8
ATOM      8  C   LIG d   1       3.534  85.824 113.197  0.00  0.00     0.119 C 
BRANCH   8   9
ATOM      9  C   LIG d   1       3.852  86.921 112.163  0.00  0.00     0.028 C 
ATOM     10  C   LIG d   1       2.692  87.155 111.181  0.00  0.00     0.006 C 
ENDBRANCH   8   9
BRANCH   8  11
ATOM     11  C   LIG d   1       4.815  85.659 114.020  0.00  0.00     0.028 C 
ATOM     12  C   LIG d   1       5.388  87.000 114.506  0.00  0.00     0.006 C 
ENDBRANCH   8  11
ENDBRANCH   7   8
ENDBRANCH   1   7
BRANCH   6  13
ATOM     13  N   LIG d   1       0.768  84.279 110.742  0.00  0.00    -0.311 N 
ATOM     14  C   LIG d   1      -0.278  85.018 111.108  0.00  0.00     0.210 C 
ATOM     15  C   LIG d   1      -0.763  86.020 110.055  0.00  0.00     0.109 C 
ATOM     16  O   LIG d   1      -0.830  84.962 112.217  0.00  0.00    -0.276 OA
ATOM     17  H   LIG d   1       1.173  84.413 109.836  0.00  0.00     0.149 HD
ENDBRANCH   6  13
BRANCH   5  18
ATOM     18  N   LIG d   1      -0.155  81.371 110.895  0.00  0.00     0.381 N 
ATOM     19  H   LIG d   1      -1.118  81.595 110.740  0.00  0.00    -0.090 HD
ATOM     20  H   LIG d   1      -0.091  80.393 111.116  0.00  0.00    -0.090 HD
ATOM     21  H   LIG d   1       0.375  81.570 110.075  0.00  0.00    -0.090 HD
ENDBRANCH   5  18
BRANCH   3  22
ATOM     22  C   LIG d   1       1.794  81.135 115.263  0.00  0.00     0.382 C 
ATOM     23  O   LIG d   1       2.920  80.813 115.711  0.00  0.00    -0.241 OA
ATOM     24  O   LIG d   1       0.768  80.803 115.886  0.00  0.00    -0.241 OA
ENDBRANCH   3  22
TORSDOF 7
ENDMDL
