MODEL 1
REMARK VINA RESULT:      -6.0      0.000      0.000
REMARK  7 active torsions:
REMARK  status: ('A' for Active; 'I' for Inactive)
REMARK    1  A    between atoms: C_2  and  C_3 
REMARK    2  A    between atoms: C_3  and  O_6 
REMARK    3  A    between atoms: C_3  and  C_4 
REMARK    4  A    between atoms: C_7  and  O_6 
REMARK    5  A    between atoms: C_9  and  C_10 
REMARK    6  A    between atoms: N_15  and  C_14 
REMARK    7  A    between atoms: N_20  and  C_19 
REMARK       I    between atoms: C_22  and  N_20 
ROOT
ATOM      1  C   LIG d   1      -3.354  76.765 114.632  0.00  0.00     0.161 C 
ATOM      2  C   LIG d   1      -3.441  77.788 113.673  0.00  0.00     0.016 C 
ATOM      3  C   LIG d   1      -2.334  78.566 113.263  0.00  0.00     0.038 C 
ATOM      4  C   LIG d   1      -1.026  78.271 113.676  0.00  0.00     0.028 C 
ATOM      5  C   LIG d   1      -0.962  77.571 115.030  0.00  0.00    -0.047 C 
ATOM      6  C   LIG d   1      -1.915  76.355 115.011  0.00  0.00     0.091 C 
ENDROOT
BRANCH   1   7
ATOM      7  O   LIG d   1      -4.102  75.616 114.189  0.00  0.00    -0.368 OA
BRANCH   7   8
ATOM      8  C   LIG d   1      -5.160  75.165 115.071  0.00  0.00     0.119 C 
BRANCH   8   9
ATOM      9  C   LIG d   1      -5.621  73.782 114.573  0.00  0.00     0.028 C 
ATOM     10  C   LIG d   1      -6.686  73.154 115.486  0.00  0.00     0.006 C 
ENDBRANCH   8   9
BRANCH   8  11
ATOM     11  C   LIG d   1      -6.394  76.066 114.966  0.00  0.00     0.028 C 
ATOM     12  C   LIG d   1      -6.666  76.857 116.256  0.00  0.00     0.006 C 
ENDBRANCH   8  11
ENDBRANCH   7   8
ENDBRANCH   1   7
BRANCH   6  13
ATOM     13  N   LIG d   1      -1.977  75.663 116.325  0.00  0.00    -0.311 N 
ATOM     14  C   LIG d   1      -1.598  74.399 116.507  0.00  0.00     0.210 C 
ATOM     15  C   LIG d   1      -1.763  73.874 117.936  0.00  0.00     0.109 C 
ATOM     16  O   LIG d   1      -1.112  73.673 115.627  0.00  0.00    -0.276 OA
ATOM     17  H   LIG d   1      -2.329  76.188 117.101  0.00  0.00     0.149 HD
ENDBRANCH   6  13
BRANCH   5  18
ATOM     18  N   LIG d   1       0.445  77.200 115.273  0.00  0.00     0.381 N 
ATOM     19  H   LIG d   1       1.002  78.026 115.365  0.00  0.00    -0.090 HD
ATOM     20  H   LIG d   1       0.784  76.677 114.485  0.00  0.00    -0.090 HD
ATOM     21  H   LIG d   1       0.514  76.650 116.101  0.00  0.00    -0.090 HD
ENDBRANCH   5  18
BRANCH   3  22
ATOM     22  C   LIG d   1      -2.535  79.679 112.460  0.00  0.00     0.382 C 
ATOM     23  O   LIG d   1      -1.824  79.854 111.442  0.00  0.00    -0.241 OA
ATOM     24  O   LIG d   1      -3.390  80.532 112.767  0.00  0.00    -0.241 OA
ENDBRANCH   3  22
TORSDOF 7
ENDMDL
MODEL 2
REMARK VINA RESULT:      -5.8      8.824     11.395
REMARK  7 active torsions:
REMARK  status: ('A' for Active; 'I' for Inactive)
REMARK    1  A    between atoms: C_2  and  C_3 
REMARK    2  A    between atoms: C_3  and  O_6 
REMARK    3  A    between atoms: C_3  and  C_4 
REMARK    4  A    between atoms: C_7  and  O_6 
REMARK    5  A    between atoms: C_9  and  C_10 
REMARK    6  A    between atoms: N_15  and  C_14 
REMARK    7  A    between atoms: N_20  and  C_19 
REMARK       I    between atoms: C_22  and  N_20 
ROOT
ATOM      1  C   LIG d   1       2.666  84.635 113.207  0.00  0.00     0.161 C 
ATOM      2  C   LIG d   1       1.610  83.820 112.769  0.00  0.00     0.016 C 
ATOM      3  C   LIG d   1       0.658  84.229 111.806  0.00  0.00     0.038 C 
ATOM      4  C   LIG d   1       0.788  85.435 111.102  0.00  0.00     0.028 C 
ATOM      5  C   LIG d   1       1.552  86.507 111.871  0.00  0.00    -0.047 C 
ATOM      6  C   LIG d   1       2.889  85.911 112.369  0.00  0.00     0.091 C 
ENDROOT
BRANCH   1   7
ATOM      7  O   LIG d   1       3.882  83.864 113.279  0.00  0.00    -0.368 OA
BRANCH   7   8
ATOM      8  C   LIG d   1       3.910  82.645 112.497  0.00  0.00     0.119 C 
BRANCH   8   9
ATOM      9  C   LIG d   1       4.442  81.522 113.408  0.00  0.00     0.028 C 
ATOM     10  C   LIG d   1       3.979  81.681 114.866  0.00  0.00     0.006 C 
ENDBRANCH   8   9
BRANCH   8  11
ATOM     11  C   LIG d   1       4.916  82.744 111.346  0.00  0.00     0.028 C 
ATOM     12  C   LIG d   1       4.293  83.300 110.056  0.00  0.00     0.006 C 
ENDBRANCH   8  11
ENDBRANCH   7   8
ENDBRANCH   1   7
BRANCH   6  13
ATOM     13  N   LIG d   1       3.661  86.869 113.204  0.00  0.00    -0.311 N 
ATOM     14  C   LIG d   1       4.650  87.624 112.728  0.00  0.00     0.210 C 
ATOM     15  C   LIG d   1       5.327  88.528 113.763  0.00  0.00     0.109 C 
ATOM     16  O   LIG d   1       5.009  87.654 111.542  0.00  0.00    -0.276 OA
ATOM     17  H   LIG d   1       3.415  86.931 114.172  0.00  0.00     0.149 HD
ENDBRANCH   6  13
BRANCH   5  18
ATOM     18  N   LIG d   1       1.734  87.660 110.969  0.00  0.00     0.381 N 
ATOM     19  H   LIG d   1       1.571  87.379 110.023  0.00  0.00    -0.090 HD
ATOM     20  H   LIG d   1       2.681  87.985 111.044  0.00  0.00    -0.090 HD
ATOM     21  H   LIG d   1       1.104  88.391 111.219  0.00  0.00    -0.090 HD
ENDBRANCH   5  18
BRANCH   3  22
ATOM     22  C   LIG d   1      -0.461  83.446 111.569  0.00  0.00     0.382 C 
ATOM     23  O   LIG d   1      -0.538  82.764 110.519  0.00  0.00    -0.241 OA
ATOM     24  O   LIG d   1      -1.414  83.446 112.372  0.00  0.00    -0.241 OA
ENDBRANCH   3  22
TORSDOF 7
ENDMDL
MODEL 3
REMARK VINA RESULT:      -5.6     14.439     17.142
REMARK  7 active torsions:
REMARK  status: ('A' for Active; 'I' for Inactive)
REMARK    1  A    between atoms: C_2  and  C_3 
REMARK    2  A    between atoms: C_3  and  O_6 
REMARK    3  A    between atoms: C_3  and  C_4 
REMARK    4  A    between atoms: C_7  and  O_6 
REMARK    5  A    between atoms: C_9  and  C_10 
REMARK    6  A    between atoms: N_15  and  C_14 
REMARK    7  A    between atoms: N_20  and  C_19 
REMARK       I    between atoms: C_22  and  N_20 
ROOT
ATOM      1  C   LIG d   1     -16.469  66.096 114.014  0.00  0.00     0.161 C 
ATOM      2  C   LIG d   1     -15.903  66.917 113.025  0.00  0.00     0.016 C 
ATOM      3  C   LIG d   1     -15.215  68.119 113.311  0.00  0.00     0.038 C 
ATOM      4  C   LIG d   1     -14.913  68.506 114.626  0.00  0.00     0.028 C 
ATOM      5  C   LIG d   1     -15.901  67.970 115.657  0.00  0.00    -0.047 C 
ATOM      6  C   LIG d   1     -16.054  66.444 115.459  0.00  0.00     0.091 C 
ENDROOT
BRANCH   1   7
ATOM      7  O   LIG d   1     -16.176  64.714 113.728  0.00  0.00    -0.368 OA
BRANCH   7   8
ATOM      8  C   LIG d   1     -17.285  63.914 113.247  0.00  0.00     0.119 C 
BRANCH   8   9
ATOM      9  C   LIG d   1     -18.476  64.864 113.020  0.00  0.00     0.028 C 
ATOM     10  C   LIG d   1     -19.391  64.394 111.876  0.00  0.00     0.006 C 
ENDBRANCH   8   9
BRANCH   8  11
ATOM     11  C   LIG d   1     -17.757  62.919 114.312  0.00  0.00     0.028 C 
ATOM     12  C   LIG d   1     -18.021  61.517 113.741  0.00  0.00     0.006 C 
ENDBRANCH   8  11
ENDBRANCH   7   8
ENDBRANCH   1   7
BRANCH   6  13
ATOM     13  N   LIG d   1     -17.066  65.853 116.373  0.00  0.00    -0.311 N 
ATOM     14  C   LIG d   1     -16.791  64.880 117.240  0.00  0.00     0.210 C 
ATOM     15  C   LIG d   1     -17.984  64.401 118.073  0.00  0.00     0.109 C 
ATOM     16  O   LIG d   1     -15.666  64.391 117.422  0.00  0.00    -0.276 OA
ATOM     17  H   LIG d   1     -17.998  66.213 116.315  0.00  0.00     0.149 HD
ENDBRANCH   6  13
BRANCH   5  18
ATOM     18  N   LIG d   1     -15.391  68.332 116.993  0.00  0.00     0.381 N 
ATOM     19  H   LIG d   1     -15.363  69.327 117.086  0.00  0.00    -0.090 HD
ATOM     20  H   LIG d   1     -14.455  67.980 117.090  0.00  0.00    -0.090 HD
ATOM     21  H   LIG d   1     -15.976  67.941 117.698  0.00  0.00    -0.090 HD
ENDBRANCH   5  18
BRANCH   3  22
ATOM     22  C   LIG d   1     -14.855  68.968 112.276  0.00  0.00     0.382 C 
ATOM     23  O   LIG d   1     -13.746  68.829 111.707  0.00  0.00    -0.241 OA
ATOM     24  O   LIG d   1     -15.607  69.901 111.934  0.00  0.00    -0.241 OA
ENDBRANCH   3  22
TORSDOF 7
ENDMDL
MODEL 4
REMARK VINA RESULT:      -5.4      8.745     11.665
REMARK  7 active torsions:
REMARK  status: ('A' for Active; 'I' for Inactive)
REMARK    1  A    between atoms: C_2  and  C_3 
REMARK    2  A    between atoms: C_3  and  O_6 
REMARK    3  A    between atoms: C_3  and  C_4 
REMARK    4  A    between atoms: C_7  and  O_6 
REMARK    5  A    between atoms: C_9  and  C_10 
REMARK    6  A    between atoms: N_15  and  C_14 
REMARK    7  A    between atoms: N_20  and  C_19 
REMARK       I    between atoms: C_22  and  N_20 
ROOT
ATOM      1  C   LIG d   1       3.513  85.084 112.073  0.00  0.00     0.161 C 
ATOM      2  C   LIG d   1       4.260  86.195 112.499  0.00  0.00     0.016 C 
ATOM      3  C   LIG d   1       3.783  87.525 112.431  0.00  0.00     0.038 C 
ATOM      4  C   LIG d   1       2.460  87.821 112.071  0.00  0.00     0.028 C 
ATOM      5  C   LIG d   1       1.834  86.776 111.153  0.00  0.00    -0.047 C 
ATOM      6  C   LIG d   1       2.027  85.377 111.780  0.00  0.00     0.091 C 
ENDROOT
BRANCH   1   7
ATOM      7  O   LIG d   1       3.634  84.017 113.034  0.00  0.00    -0.368 OA
BRANCH   7   8
ATOM      8  C   LIG d   1       3.891  82.697 112.492  0.00  0.00     0.119 C 
BRANCH   8   9
ATOM      9  C   LIG d   1       4.215  81.766 113.676  0.00  0.00     0.028 C 
ATOM     10  C   LIG d   1       4.046  82.465 115.036  0.00  0.00     0.006 C 
ENDBRANCH   8   9
BRANCH   8  11
ATOM     11  C   LIG d   1       5.147  82.690 111.615  0.00  0.00     0.028 C 
ATOM     12  C   LIG d   1       4.876  82.180 110.191  0.00  0.00     0.006 C 
ENDBRANCH   8  11
ENDBRANCH   7   8
ENDBRANCH   1   7
BRANCH   6  13
ATOM     13  N   LIG d   1       1.517  84.289 110.906  0.00  0.00    -0.311 N 
ATOM     14  C   LIG d   1       0.634  83.377 111.309  0.00  0.00     0.210 C 
ATOM     15  C   LIG d   1       0.257  82.331 110.255  0.00  0.00     0.109 C 
ATOM     16  O   LIG d   1       0.102  83.355 112.429  0.00  0.00    -0.276 OA
ATOM     17  H   LIG d   1       1.873  84.251 109.971  0.00  0.00     0.149 HD
ENDBRANCH   6  13
BRANCH   5  18
ATOM     18  N   LIG d   1       0.416  87.138 110.969  0.00  0.00     0.381 N 
ATOM     19  H   LIG d   1      -0.051  86.421 110.450  0.00  0.00    -0.090 HD
ATOM     20  H   LIG d   1       0.364  87.992 110.444  0.00  0.00    -0.090 HD
ATOM     21  H   LIG d   1      -0.023  87.256 111.855  0.00  0.00    -0.090 HD
ENDBRANCH   5  18
BRANCH   3  22
ATOM     22  C   LIG d   1       4.647  88.578 112.689  0.00  0.00     0.382 C 
ATOM     23  O   LIG d   1       4.192  89.684 113.068  0.00  0.00    -0.241 OA
ATOM     24  O   LIG d   1       5.873  88.450 112.504  0.00  0.00    -0.241 OA
ENDBRANCH   3  22
TORSDOF 7
ENDMDL
MODEL 5
REMARK VINA RESULT:      -5.3      2.084      2.680
REMARK  7 active torsions:
REMARK  status: ('A' for Active; 'I' for Inactive)
REMARK    1  A    between atoms: C_2  and  C_3 
REMARK    2  A    between atoms: C_3  and  O_6 
REMARK    3  A    between atoms: C_3  and  C_4 
REMARK    4  A    between atoms: C_7  and  O_6 
REMARK    5  A    between atoms: C_9  and  C_10 
REMARK    6  A    between atoms: N_15  and  C_14 
REMARK    7  A    between atoms: N_20  and  C_19 
REMARK       I    between atoms: C_22  and  N_20 
ROOT
ATOM      1  C   LIG d   1      -2.799  78.440 115.384  0.00  0.00     0.161 C 
ATOM      2  C   LIG d   1      -2.874  79.624 114.632  0.00  0.00     0.016 C 
ATOM      3  C   LIG d   1      -2.337  79.755 113.330  0.00  0.00     0.038 C 
ATOM      4  C   LIG d   1      -1.819  78.657 112.628  0.00  0.00     0.028 C 
ATOM      5  C   LIG d   1      -1.266  77.564 113.536  0.00  0.00    -0.047 C 
ATOM      6  C   LIG d   1      -2.335  77.200 114.591  0.00  0.00     0.091 C 
ENDROOT
BRANCH   1   7
ATOM      7  O   LIG d   1      -4.067  78.184 116.019  0.00  0.00    -0.368 OA
BRANCH   7   8
ATOM      8  C   LIG d   1      -4.049  78.100 117.466  0.00  0.00     0.119 C 
BRANCH   8   9
ATOM      9  C   LIG d   1      -5.234  77.212 117.892  0.00  0.00     0.028 C 
ATOM     10  C   LIG d   1      -5.952  76.575 116.691  0.00  0.00     0.006 C 
ENDBRANCH   8   9
BRANCH   8  11
ATOM     11  C   LIG d   1      -4.314  79.465 118.106  0.00  0.00     0.028 C 
ATOM     12  C   LIG d   1      -5.566  80.155 117.543  0.00  0.00     0.006 C 
ENDBRANCH   8  11
ENDBRANCH   7   8
ENDBRANCH   1   7
BRANCH   6  13
ATOM     13  N   LIG d   1      -1.845  76.196 115.572  0.00  0.00    -0.311 N 
ATOM     14  C   LIG d   1      -2.444  75.026 115.785  0.00  0.00     0.210 C 
ATOM     15  C   LIG d   1      -1.786  74.148 116.854  0.00  0.00     0.109 C 
ATOM     16  O   LIG d   1      -3.438  74.617 115.166  0.00  0.00    -0.276 OA
ATOM     17  H   LIG d   1      -1.025  76.433 116.096  0.00  0.00     0.149 HD
ENDBRANCH   6  13
BRANCH   5  18
ATOM     18  N   LIG d   1      -0.886  76.424 112.681  0.00  0.00     0.381 N 
ATOM     19  H   LIG d   1       0.038  76.119 112.913  0.00  0.00    -0.090 HD
ATOM     20  H   LIG d   1      -0.887  76.723 111.721  0.00  0.00    -0.090 HD
ATOM     21  H   LIG d   1      -1.531  75.675 112.804  0.00  0.00    -0.090 HD
ENDBRANCH   5  18
BRANCH   3  22
ATOM     22  C   LIG d   1      -2.280  81.006 112.733  0.00  0.00     0.382 C 
ATOM     23  O   LIG d   1      -1.169  81.548 112.519  0.00  0.00    -0.241 OA
ATOM     24  O   LIG d   1      -3.326  81.617 112.447  0.00  0.00    -0.241 OA
ENDBRANCH   3  22
TORSDOF 7
ENDMDL
MODEL 6
REMARK VINA RESULT:      -5.1      3.303      6.830
REMARK  7 active torsions:
REMARK  status: ('A' for Active; 'I' for Inactive)
REMARK    1  A    between atoms: C_2  and  C_3 
REMARK    2  A    between atoms: C_3  and  O_6 
REMARK    3  A    between atoms: C_3  and  C_4 
REMARK    4  A    between atoms: C_7  and  O_6 
REMARK    5  A    between atoms: C_9  and  C_10 
REMARK    6  A    between atoms: N_15  and  C_14 
REMARK    7  A    between atoms: N_20  and  C_19 
REMARK       I    between atoms: C_22  and  N_20 
ROOT
ATOM      1  C   LIG d   1      -5.689  75.905 116.046  0.00  0.00     0.161 C 
ATOM      2  C   LIG d   1      -6.151  74.617 115.730  0.00  0.00     0.016 C 
ATOM      3  C   LIG d   1      -7.366  74.084 116.221  0.00  0.00     0.038 C 
ATOM      4  C   LIG d   1      -8.279  74.865 116.944  0.00  0.00     0.028 C 
ATOM      5  C   LIG d   1      -7.625  76.009 117.710  0.00  0.00    -0.047 C 
ATOM      6  C   LIG d   1      -6.726  76.811 116.742  0.00  0.00     0.091 C 
ENDROOT
BRANCH   1   7
ATOM      7  O   LIG d   1      -5.181  76.546 114.859  0.00  0.00    -0.368 OA
BRANCH   7   8
ATOM      8  C   LIG d   1      -3.781  76.320 114.562  0.00  0.00     0.119 C 
BRANCH   8   9
ATOM      9  C   LIG d   1      -3.031  76.238 115.906  0.00  0.00     0.028 C 
ATOM     10  C   LIG d   1      -2.289  74.902 116.083  0.00  0.00     0.006 C 
ENDBRANCH   8   9
BRANCH   8  11
ATOM     11  C   LIG d   1      -3.167  77.515 113.827  0.00  0.00     0.028 C 
ATOM     12  C   LIG d   1      -1.870  77.156 113.085  0.00  0.00     0.006 C 
ENDBRANCH   8  11
ENDBRANCH   7   8
ENDBRANCH   1   7
BRANCH   6  13
ATOM     13  N   LIG d   1      -5.982  77.899 117.429  0.00  0.00    -0.311 N 
ATOM     14  C   LIG d   1      -6.463  79.131 117.585  0.00  0.00     0.210 C 
ATOM     15  C   LIG d   1      -5.526  80.106 118.305  0.00  0.00     0.109 C 
ATOM     16  O   LIG d   1      -7.591  79.501 117.224  0.00  0.00    -0.276 OA
ATOM     17  H   LIG d   1      -5.071  77.678 117.781  0.00  0.00     0.149 HD
ENDBRANCH   6  13
BRANCH   5  18
ATOM     18  N   LIG d   1      -8.703  76.821 118.305  0.00  0.00     0.381 N 
ATOM     19  H   LIG d   1      -8.735  77.718 117.862  0.00  0.00    -0.090 HD
ATOM     20  H   LIG d   1      -8.507  76.958 119.281  0.00  0.00    -0.090 HD
ATOM     21  H   LIG d   1      -9.579  76.358 118.197  0.00  0.00    -0.090 HD
ENDBRANCH   5  18
BRANCH   3  22
ATOM     22  C   LIG d   1      -7.657  72.742 116.023  0.00  0.00     0.382 C 
ATOM     23  O   LIG d   1      -8.625  72.216 116.624  0.00  0.00    -0.241 OA
ATOM     24  O   LIG d   1      -6.938  72.042 115.287  0.00  0.00    -0.241 OA
ENDBRANCH   3  22
TORSDOF 7
ENDMDL
MODEL 7
REMARK VINA RESULT:      -5.1     21.789     24.333
REMARK  7 active torsions:
REMARK  status: ('A' for Active; 'I' for Inactive)
REMARK    1  A    between atoms: C_2  and  C_3 
REMARK    2  A    between atoms: C_3  and  O_6 
REMARK    3  A    between atoms: C_3  and  C_4 
REMARK    4  A    between atoms: C_7  and  O_6 
REMARK    5  A    between atoms: C_9  and  C_10 
REMARK    6  A    between atoms: N_15  and  C_14 
REMARK    7  A    between atoms: N_20  and  C_19 
REMARK       I    between atoms: C_22  and  N_20 
ROOT
ATOM      1  C   LIG d   1     -25.927  85.207 113.761  0.00  0.00     0.161 C 
ATOM      2  C   LIG d   1     -24.812  86.052 113.892  0.00  0.00     0.016 C 
ATOM      3  C   LIG d   1     -23.477  85.603 113.777  0.00  0.00     0.038 C 
ATOM      4  C   LIG d   1     -23.167  84.297 113.370  0.00  0.00     0.028 C 
ATOM      5  C   LIG d   1     -24.249  83.280 113.719  0.00  0.00    -0.047 C 
ATOM      6  C   LIG d   1     -25.611  83.802 113.207  0.00  0.00     0.091 C 
ENDROOT
BRANCH   1   7
ATOM      7  O   LIG d   1     -26.934  85.849 112.954  0.00  0.00    -0.368 OA
BRANCH   7   8
ATOM      8  C   LIG d   1     -26.451  86.633 111.836  0.00  0.00     0.119 C 
BRANCH   8   9
ATOM      9  C   LIG d   1     -27.164  87.999 111.887  0.00  0.00     0.028 C 
ATOM     10  C   LIG d   1     -26.607  88.990 110.852  0.00  0.00     0.006 C 
ENDBRANCH   8   9
BRANCH   8  11
ATOM     11  C   LIG d   1     -26.863  86.010 110.499  0.00  0.00     0.028 C 
ATOM     12  C   LIG d   1     -28.205  85.266 110.577  0.00  0.00     0.006 C 
ENDBRANCH   8  11
ENDBRANCH   7   8
ENDBRANCH   1   7
BRANCH   6  13
ATOM     13  N   LIG d   1     -26.737  82.907 113.581  0.00  0.00    -0.311 N 
ATOM     14  C   LIG d   1     -27.228  81.970 112.772  0.00  0.00     0.210 C 
ATOM     15  C   LIG d   1     -28.403  81.172 113.346  0.00  0.00     0.109 C 
ATOM     16  O   LIG d   1     -26.782  81.702 111.647  0.00  0.00    -0.276 OA
ATOM     17  H   LIG d   1     -27.139  83.035 114.489  0.00  0.00     0.149 HD
ENDBRANCH   6  13
BRANCH   5  18
ATOM     18  N   LIG d   1     -23.860  81.991 113.117  0.00  0.00     0.381 N 
ATOM     19  H   LIG d   1     -23.516  81.376 113.827  0.00  0.00    -0.090 HD
ATOM     20  H   LIG d   1     -23.123  82.151 112.454  0.00  0.00    -0.090 HD
ATOM     21  H   LIG d   1     -24.643  81.578 112.661  0.00  0.00    -0.090 HD
ENDBRANCH   5  18
BRANCH   3  22
ATOM     22  C   LIG d   1     -22.434  86.454 114.110  0.00  0.00     0.382 C 
ATOM     23  O   LIG d   1     -22.559  87.254 115.068  0.00  0.00    -0.241 OA
ATOM     24  O   LIG d   1     -21.387  86.463 113.436  0.00  0.00    -0.241 OA
ENDBRANCH   3  22
TORSDOF 7
ENDMDL
MODEL 8
REMARK VINA RESULT:      -5.1     15.322     18.621
REMARK  7 active torsions:
REMARK  status: ('A' for Active; 'I' for Inactive)
REMARK    1  A    between atoms: C_2  and  C_3 
REMARK    2  A    between atoms: C_3  and  O_6 
REMARK    3  A    between atoms: C_3  and  C_4 
REMARK    4  A    between atoms: C_7  and  O_6 
REMARK    5  A    between atoms: C_9  and  C_10 
REMARK    6  A    between atoms: N_15  and  C_14 
REMARK    7  A    between atoms: N_20  and  C_19 
REMARK       I    between atoms: C_22  and  N_20 
ROOT
ATOM      1  C   LIG d   1     -16.734  64.744 116.192  0.00  0.00     0.161 C 
ATOM      2  C   LIG d   1     -16.131  65.979 116.486  0.00  0.00     0.016 C 
ATOM      3  C   LIG d   1     -15.769  66.923 115.498  0.00  0.00     0.038 C 
ATOM      4  C   LIG d   1     -16.126  66.760 114.151  0.00  0.00     0.028 C 
ATOM      5  C   LIG d   1     -16.285  65.300 113.739  0.00  0.00    -0.047 C 
ATOM      6  C   LIG d   1     -17.231  64.597 114.738  0.00  0.00     0.091 C 
ENDROOT
BRANCH   1   7
ATOM      7  O   LIG d   1     -17.810  64.493 117.117  0.00  0.00    -0.368 OA
BRANCH   7   8
ATOM      8  C   LIG d   1     -19.080  65.114 116.801  0.00  0.00     0.119 C 
BRANCH   8   9
ATOM      9  C   LIG d   1     -19.457  66.026 117.985  0.00  0.00     0.028 C 
ATOM     10  C   LIG d   1     -19.345  67.519 117.635  0.00  0.00     0.006 C 
ENDBRANCH   8   9
BRANCH   8  11
ATOM     11  C   LIG d   1     -20.202  64.075 116.716  0.00  0.00     0.028 C 
ATOM     12  C   LIG d   1     -19.767  62.687 117.211  0.00  0.00     0.006 C 
ENDBRANCH   8  11
ENDBRANCH   7   8
ENDBRANCH   1   7
BRANCH   6  13
ATOM     13  N   LIG d   1     -17.374  63.145 114.457  0.00  0.00    -0.311 N 
ATOM     14  C   LIG d   1     -18.353  62.636 113.712  0.00  0.00     0.210 C 
ATOM     15  C   LIG d   1     -18.328  61.111 113.564  0.00  0.00     0.109 C 
ATOM     16  O   LIG d   1     -19.222  63.305 113.132  0.00  0.00    -0.276 OA
ATOM     17  H   LIG d   1     -16.694  62.532 114.863  0.00  0.00     0.149 HD
ENDBRANCH   6  13
BRANCH   5  18
ATOM     18  N   LIG d   1     -16.790  65.281 112.353  0.00  0.00     0.381 N 
ATOM     19  H   LIG d   1     -17.416  66.048 112.210  0.00  0.00    -0.090 HD
ATOM     20  H   LIG d   1     -17.298  64.427 112.204  0.00  0.00    -0.090 HD
ATOM     21  H   LIG d   1     -16.030  65.340 111.712  0.00  0.00    -0.090 HD
ENDBRANCH   5  18
BRANCH   3  22
ATOM     22  C   LIG d   1     -15.008  68.028 115.848  0.00  0.00     0.382 C 
ATOM     23  O   LIG d   1     -15.139  69.105 115.219  0.00  0.00    -0.241 OA
ATOM     24  O   LIG d   1     -14.160  67.947 116.757  0.00  0.00    -0.241 OA
ENDBRANCH   3  22
TORSDOF 7
ENDMDL
MODEL 9
REMARK VINA RESULT:      -4.9      8.733     11.779
REMARK  7 active torsions:
REMARK  status: ('A' for Active; 'I' for Inactive)
REMARK    1  A    between atoms: C_2  and  C_3 
REMARK    2  A    between atoms: C_3  and  O_6 
REMARK    3  A    between atoms: C_3  and  C_4 
REMARK    4  A    between atoms: C_7  and  O_6 
REMARK    5  A    between atoms: C_9  and  C_10 
REMARK    6  A    between atoms: N_15  and  C_14 
REMARK    7  A    between atoms: N_20  and  C_19 
REMARK       I    between atoms: C_22  and  N_20 
ROOT
ATOM      1  C   LIG d   1       3.180  85.550 113.491  0.00  0.00     0.161 C 
ATOM      2  C   LIG d   1       3.812  86.774 113.765  0.00  0.00     0.016 C 
ATOM      3  C   LIG d   1       3.708  87.909 112.927  0.00  0.00     0.038 C 
ATOM      4  C   LIG d   1       2.835  87.941 111.829  0.00  0.00     0.028 C 
ATOM      5  C   LIG d   1       2.566  86.566 111.229  0.00  0.00    -0.047 C 
ATOM      6  C   LIG d   1       2.135  85.601 112.357  0.00  0.00     0.091 C 
ENDROOT
BRANCH   1   7
ATOM      7  O   LIG d   1       2.587  85.026 114.696  0.00  0.00    -0.368 OA
BRANCH   7   8
ATOM      8  C   LIG d   1       3.235  83.866 115.273  0.00  0.00     0.119 C 
BRANCH   8   9
ATOM      9  C   LIG d   1       3.988  84.336 116.534  0.00  0.00     0.028 C 
ATOM     10  C   LIG d   1       5.495  84.515 116.285  0.00  0.00     0.006 C 
ENDBRANCH   8   9
BRANCH   8  11
ATOM     11  C   LIG d   1       4.315  83.309 114.341  0.00  0.00     0.028 C 
ATOM     12  C   LIG d   1       3.981  81.904 113.816  0.00  0.00     0.006 C 
ENDBRANCH   8  11
ENDBRANCH   7   8
ENDBRANCH   1   7
BRANCH   6  13
ATOM     13  N   LIG d   1       1.933  84.212 111.869  0.00  0.00    -0.311 N 
ATOM     14  C   LIG d   1       0.828  83.506 112.103  0.00  0.00     0.210 C 
ATOM     15  C   LIG d   1       0.834  82.087 111.527  0.00  0.00     0.109 C 
ATOM     16  O   LIG d   1      -0.169  83.932 112.705  0.00  0.00    -0.276 OA
ATOM     17  H   LIG d   1       2.680  83.800 111.344  0.00  0.00     0.149 HD
ENDBRANCH   6  13
BRANCH   5  18
ATOM     18  N   LIG d   1       1.537  86.729 110.184  0.00  0.00     0.381 N 
ATOM     19  H   LIG d   1       1.804  87.461 109.557  0.00  0.00    -0.090 HD
ATOM     20  H   LIG d   1       0.669  86.989 110.620  0.00  0.00    -0.090 HD
ATOM     21  H   LIG d   1       1.422  85.877 109.682  0.00  0.00    -0.090 HD
ENDBRANCH   5  18
BRANCH   3  22
ATOM     22  C   LIG d   1       4.512  89.013 113.162  0.00  0.00     0.382 C 
ATOM     23  O   LIG d   1       5.708  89.010 112.784  0.00  0.00    -0.241 OA
ATOM     24  O   LIG d   1       4.070  89.996 113.787  0.00  0.00    -0.241 OA
ENDBRANCH   3  22
TORSDOF 7
ENDMDL
