MODEL 1
REMARK VINA RESULT:      -6.3      0.000      0.000
REMARK  7 active torsions:
REMARK  status: ('A' for Active; 'I' for Inactive)
REMARK    1  A    between atoms: C_2  and  C_3 
REMARK    2  A    between atoms: C_3  and  O_6 
REMARK    3  A    between atoms: C_3  and  C_4 
REMARK    4  A    between atoms: C_7  and  O_6 
REMARK    5  A    between atoms: C_9  and  C_10 
REMARK    6  A    between atoms: N_15  and  C_14 
REMARK    7  A    between atoms: N_20  and  C_19 
REMARK       I    between atoms: C_22  and  N_20 
ROOT
ATOM      1  C   LIG d   1      -1.478  77.791 113.468  0.00  0.00     0.161 C 
ATOM      2  C   LIG d   1      -2.082  79.060 113.477  0.00  0.00     0.016 C 
ATOM      3  C   LIG d   1      -1.922  80.006 112.439  0.00  0.00     0.038 C 
ATOM      4  C   LIG d   1      -1.263  79.688 111.241  0.00  0.00     0.028 C 
ATOM      5  C   LIG d   1      -0.210  78.597 111.400  0.00  0.00    -0.047 C 
ATOM      6  C   LIG d   1      -0.848  77.385 112.119  0.00  0.00     0.091 C 
ENDROOT
BRANCH   1   7
ATOM      7  O   LIG d   1      -2.427  76.795 113.897  0.00  0.00    -0.368 OA
BRANCH   7   8
ATOM      8  C   LIG d   1      -2.527  76.584 115.327  0.00  0.00     0.119 C 
BRANCH   8   9
ATOM      9  C   LIG d   1      -2.043  75.151 115.618  0.00  0.00     0.028 C 
ATOM     10  C   LIG d   1      -1.755  74.921 117.112  0.00  0.00     0.006 C 
ENDBRANCH   8   9
BRANCH   8  11
ATOM     11  C   LIG d   1      -3.985  76.623 115.795  0.00  0.00     0.028 C 
ATOM     12  C   LIG d   1      -4.900  75.704 114.971  0.00  0.00     0.006 C 
ENDBRANCH   8  11
ENDBRANCH   7   8
ENDBRANCH   1   7
BRANCH   6  13
ATOM     13  N   LIG d   1       0.136  76.305 112.390  0.00  0.00    -0.311 N 
ATOM     14  C   LIG d   1       0.543  75.435 111.467  0.00  0.00     0.210 C 
ATOM     15  C   LIG d   1       1.546  74.389 111.961  0.00  0.00     0.109 C 
ATOM     16  O   LIG d   1       0.192  75.451 110.277  0.00  0.00    -0.276 OA
ATOM     17  H   LIG d   1       0.496  76.239 113.322  0.00  0.00     0.149 HD
ENDBRANCH   6  13
BRANCH   5  18
ATOM     18  N   LIG d   1       0.298  78.269 110.055  0.00  0.00     0.381 N 
ATOM     19  H   LIG d   1      -0.298  78.671 109.360  0.00  0.00    -0.090 HD
ATOM     20  H   LIG d   1       0.290  77.271 109.939  0.00  0.00    -0.090 HD
ATOM     21  H   LIG d   1       1.226  78.615 109.948  0.00  0.00    -0.090 HD
ENDBRANCH   5  18
BRANCH   3  22
ATOM     22  C   LIG d   1      -2.389  81.300 112.610  0.00  0.00     0.382 C 
ATOM     23  O   LIG d   1      -3.483  81.500 113.191  0.00  0.00    -0.241 OA
ATOM     24  O   LIG d   1      -1.752  82.267 112.152  0.00  0.00    -0.241 OA
ENDBRANCH   3  22
TORSDOF 7
ENDMDL
MODEL 2
REMARK VINA RESULT:      -6.0      8.298     10.224
REMARK  7 active torsions:
REMARK  status: ('A' for Active; 'I' for Inactive)
REMARK    1  A    between atoms: C_2  and  C_3 
REMARK    2  A    between atoms: C_3  and  O_6 
REMARK    3  A    between atoms: C_3  and  C_4 
REMARK    4  A    between atoms: C_7  and  O_6 
REMARK    5  A    between atoms: C_9  and  C_10 
REMARK    6  A    between atoms: N_15  and  C_14 
REMARK    7  A    between atoms: N_20  and  C_19 
REMARK       I    between atoms: C_22  and  N_20 
ROOT
ATOM      1  C   LIG d   1       2.770  85.469 112.335  0.00  0.00     0.161 C 
ATOM      2  C   LIG d   1       1.553  85.178 111.697  0.00  0.00     0.016 C 
ATOM      3  C   LIG d   1       0.619  86.168 111.314  0.00  0.00     0.038 C 
ATOM      4  C   LIG d   1       0.908  87.537 111.409  0.00  0.00     0.028 C 
ATOM      5  C   LIG d   1       1.911  87.870 112.509  0.00  0.00    -0.047 C 
ATOM      6  C   LIG d   1       3.153  86.964 112.346  0.00  0.00     0.091 C 
ENDROOT
BRANCH   1   7
ATOM      7  O   LIG d   1       3.829  84.686 111.750  0.00  0.00    -0.368 OA
BRANCH   7   8
ATOM      8  C   LIG d   1       3.562  83.270 111.592  0.00  0.00     0.119 C 
BRANCH   8   9
ATOM      9  C   LIG d   1       4.530  82.510 112.519  0.00  0.00     0.028 C 
ATOM     10  C   LIG d   1       4.079  82.538 113.989  0.00  0.00     0.006 C 
ENDBRANCH   8   9
BRANCH   8  11
ATOM     11  C   LIG d   1       3.898  82.794 110.176  0.00  0.00     0.028 C 
ATOM     12  C   LIG d   1       5.172  81.936 110.123  0.00  0.00     0.006 C 
ENDBRANCH   8  11
ENDBRANCH   7   8
ENDBRANCH   1   7
BRANCH   6  13
ATOM     13  N   LIG d   1       4.148  87.166 113.432  0.00  0.00    -0.311 N 
ATOM     14  C   LIG d   1       5.192  87.985 113.327  0.00  0.00     0.210 C 
ATOM     15  C   LIG d   1       6.105  88.030 114.556  0.00  0.00     0.109 C 
ATOM     16  O   LIG d   1       5.431  88.704 112.345  0.00  0.00    -0.276 OA
ATOM     17  H   LIG d   1       4.012  86.645 114.277  0.00  0.00     0.149 HD
ENDBRANCH   6  13
BRANCH   5  18
ATOM     18  N   LIG d   1       2.225  89.307 112.406  0.00  0.00     0.381 N 
ATOM     19  H   LIG d   1       3.110  89.429 111.956  0.00  0.00    -0.090 HD
ATOM     20  H   LIG d   1       2.287  89.693 113.332  0.00  0.00    -0.090 HD
ATOM     21  H   LIG d   1       1.514  89.775 111.889  0.00  0.00    -0.090 HD
ENDBRANCH   5  18
BRANCH   3  22
ATOM     22  C   LIG d   1      -0.638  85.790 110.867  0.00  0.00     0.382 C 
ATOM     23  O   LIG d   1      -0.831  84.621 110.454  0.00  0.00    -0.241 OA
ATOM     24  O   LIG d   1      -1.570  86.616 110.830  0.00  0.00    -0.241 OA
ENDBRANCH   3  22
TORSDOF 7
ENDMDL
MODEL 3
REMARK VINA RESULT:      -6.0      6.440      8.840
REMARK  7 active torsions:
REMARK  status: ('A' for Active; 'I' for Inactive)
REMARK    1  A    between atoms: C_2  and  C_3 
REMARK    2  A    between atoms: C_3  and  O_6 
REMARK    3  A    between atoms: C_3  and  C_4 
REMARK    4  A    between atoms: C_7  and  O_6 
REMARK    5  A    between atoms: C_9  and  C_10 
REMARK    6  A    between atoms: N_15  and  C_14 
REMARK    7  A    between atoms: N_20  and  C_19 
REMARK       I    between atoms: C_22  and  N_20 
ROOT
ATOM      1  C   LIG d   1       2.480  84.992 112.377  0.00  0.00     0.161 C 
ATOM      2  C   LIG d   1       2.763  86.328 112.708  0.00  0.00     0.016 C 
ATOM      3  C   LIG d   1       2.027  87.427 112.208  0.00  0.00     0.038 C 
ATOM      4  C   LIG d   1       0.855  87.254 111.457  0.00  0.00     0.028 C 
ATOM      5  C   LIG d   1       0.821  85.941 110.681  0.00  0.00    -0.047 C 
ATOM      6  C   LIG d   1       1.137  84.778 111.648  0.00  0.00     0.091 C 
ENDROOT
BRANCH   1   7
ATOM      7  O   LIG d   1       2.545  84.171 113.560  0.00  0.00    -0.368 OA
BRANCH   7   8
ATOM      8  C   LIG d   1       3.359  82.977 113.463  0.00  0.00     0.119 C 
BRANCH   8   9
ATOM      9  C   LIG d   1       4.092  82.806 114.808  0.00  0.00     0.028 C 
ATOM     10  C   LIG d   1       4.461  84.154 115.451  0.00  0.00     0.006 C 
ENDBRANCH   8   9
BRANCH   8  11
ATOM     11  C   LIG d   1       4.464  83.139 112.416  0.00  0.00     0.028 C 
ATOM     12  C   LIG d   1       4.501  81.984 111.404  0.00  0.00     0.006 C 
ENDBRANCH   8  11
ENDBRANCH   7   8
ENDBRANCH   1   7
BRANCH   6  13
ATOM     13  N   LIG d   1       1.207  83.466 110.954  0.00  0.00    -0.311 N 
ATOM     14  C   LIG d   1       0.166  82.644 110.832  0.00  0.00     0.210 C 
ATOM     15  C   LIG d   1       0.459  81.333 110.097  0.00  0.00     0.109 C 
ATOM     16  O   LIG d   1      -0.981  82.891 111.236  0.00  0.00    -0.276 OA
ATOM     17  H   LIG d   1       2.092  83.200 110.569  0.00  0.00     0.149 HD
ENDBRANCH   6  13
BRANCH   5  18
ATOM     18  N   LIG d   1      -0.510  85.828 110.055  0.00  0.00     0.381 N 
ATOM     19  H   LIG d   1      -0.987  85.026 110.416  0.00  0.00    -0.090 HD
ATOM     20  H   LIG d   1      -0.394  85.707 109.064  0.00  0.00    -0.090 HD
ATOM     21  H   LIG d   1      -1.043  86.650 110.236  0.00  0.00    -0.090 HD
ENDBRANCH   5  18
BRANCH   3  22
ATOM     22  C   LIG d   1       2.486  88.717 112.425  0.00  0.00     0.382 C 
ATOM     23  O   LIG d   1       1.702  89.689 112.308  0.00  0.00    -0.241 OA
ATOM     24  O   LIG d   1       3.684  88.925 112.694  0.00  0.00    -0.241 OA
ENDBRANCH   3  22
TORSDOF 7
ENDMDL
MODEL 4
REMARK VINA RESULT:      -5.7      5.814      8.090
REMARK  7 active torsions:
REMARK  status: ('A' for Active; 'I' for Inactive)
REMARK    1  A    between atoms: C_2  and  C_3 
REMARK    2  A    between atoms: C_3  and  O_6 
REMARK    3  A    between atoms: C_3  and  C_4 
REMARK    4  A    between atoms: C_7  and  O_6 
REMARK    5  A    between atoms: C_9  and  C_10 
REMARK    6  A    between atoms: N_15  and  C_14 
REMARK    7  A    between atoms: N_20  and  C_19 
REMARK       I    between atoms: C_22  and  N_20 
ROOT
ATOM      1  C   LIG d   1       1.390  84.466 113.289  0.00  0.00     0.161 C 
ATOM      2  C   LIG d   1       1.896  85.776 113.265  0.00  0.00     0.016 C 
ATOM      3  C   LIG d   1       1.570  86.718 112.261  0.00  0.00     0.038 C 
ATOM      4  C   LIG d   1       0.591  86.459 111.291  0.00  0.00     0.028 C 
ATOM      5  C   LIG d   1       0.427  84.975 110.977  0.00  0.00    -0.047 C 
ATOM      6  C   LIG d   1       0.234  84.201 112.301  0.00  0.00     0.091 C 
ENDROOT
BRANCH   1   7
ATOM      7  O   LIG d   1       0.991  84.121 114.630  0.00  0.00    -0.368 OA
BRANCH   7   8
ATOM      8  C   LIG d   1       1.948  84.420 115.676  0.00  0.00     0.119 C 
BRANCH   8   9
ATOM      9  C   LIG d   1       2.564  83.084 116.136  0.00  0.00     0.028 C 
ATOM     10  C   LIG d   1       1.937  82.568 117.442  0.00  0.00     0.006 C 
ENDBRANCH   8   9
BRANCH   8  11
ATOM     11  C   LIG d   1       1.257  84.996 116.916  0.00  0.00     0.028 C 
ATOM     12  C   LIG d   1       0.612  86.366 116.655  0.00  0.00     0.006 C 
ENDBRANCH   8  11
ENDBRANCH   7   8
ENDBRANCH   1   7
BRANCH   6  13
ATOM     13  N   LIG d   1       0.150  82.732 112.091  0.00  0.00    -0.311 N 
ATOM     14  C   LIG d   1      -0.944  82.016 112.348  0.00  0.00     0.210 C 
ATOM     15  C   LIG d   1      -0.811  80.514 112.081  0.00  0.00     0.109 C 
ATOM     16  O   LIG d   1      -2.021  82.488 112.742  0.00  0.00    -0.276 OA
ATOM     17  H   LIG d   1       0.969  82.273 111.744  0.00  0.00     0.149 HD
ENDBRANCH   6  13
BRANCH   5  18
ATOM     18  N   LIG d   1      -0.717  84.838 110.055  0.00  0.00     0.381 N 
ATOM     19  H   LIG d   1      -1.539  84.592 110.570  0.00  0.00    -0.090 HD
ATOM     20  H   LIG d   1      -0.521  84.101 109.402  0.00  0.00    -0.090 HD
ATOM     21  H   LIG d   1      -0.865  85.694 109.567  0.00  0.00    -0.090 HD
ENDBRANCH   5  18
BRANCH   3  22
ATOM     22  C   LIG d   1       2.257  87.921 112.199  0.00  0.00     0.382 C 
ATOM     23  O   LIG d   1       3.322  88.001 111.541  0.00  0.00    -0.241 OA
ATOM     24  O   LIG d   1       1.849  88.915 112.829  0.00  0.00    -0.241 OA
ENDBRANCH   3  22
TORSDOF 7
ENDMDL
MODEL 5
REMARK VINA RESULT:      -5.3      7.234      9.355
REMARK  7 active torsions:
REMARK  status: ('A' for Active; 'I' for Inactive)
REMARK    1  A    between atoms: C_2  and  C_3 
REMARK    2  A    between atoms: C_3  and  O_6 
REMARK    3  A    between atoms: C_3  and  C_4 
REMARK    4  A    between atoms: C_7  and  O_6 
REMARK    5  A    between atoms: C_9  and  C_10 
REMARK    6  A    between atoms: N_15  and  C_14 
REMARK    7  A    between atoms: N_20  and  C_19 
REMARK       I    between atoms: C_22  and  N_20 
ROOT
ATOM      1  C   LIG d   1       3.297  84.989 113.134  0.00  0.00     0.161 C 
ATOM      2  C   LIG d   1       3.981  86.205 113.298  0.00  0.00     0.016 C 
ATOM      3  C   LIG d   1       3.753  87.342 112.489  0.00  0.00     0.038 C 
ATOM      4  C   LIG d   1       2.711  87.388 111.552  0.00  0.00     0.028 C 
ATOM      5  C   LIG d   1       2.327  86.017 111.005  0.00  0.00    -0.047 C 
ATOM      6  C   LIG d   1       2.079  85.056 112.189  0.00  0.00     0.091 C 
ENDROOT
BRANCH   1   7
ATOM      7  O   LIG d   1       2.906  84.470 114.420  0.00  0.00    -0.368 OA
BRANCH   7   8
ATOM      8  C   LIG d   1       3.447  85.157 115.576  0.00  0.00     0.119 C 
BRANCH   8   9
ATOM      9  C   LIG d   1       4.322  84.149 116.346  0.00  0.00     0.028 C 
ATOM     10  C   LIG d   1       4.091  82.700 115.885  0.00  0.00     0.006 C 
ENDBRANCH   8   9
BRANCH   8  11
ATOM     11  C   LIG d   1       2.339  85.563 116.552  0.00  0.00     0.028 C 
ATOM     12  C   LIG d   1       1.026  85.932 115.844  0.00  0.00     0.006 C 
ENDBRANCH   8  11
ENDBRANCH   7   8
ENDBRANCH   1   7
BRANCH   6  13
ATOM     13  N   LIG d   1       1.780  83.670 111.742  0.00  0.00    -0.311 N 
ATOM     14  C   LIG d   1       0.768  82.948 112.219  0.00  0.00     0.210 C 
ATOM     15  C   LIG d   1       0.651  81.536 111.636  0.00  0.00     0.109 C 
ATOM     16  O   LIG d   1      -0.063  83.353 113.045  0.00  0.00    -0.276 OA
ATOM     17  H   LIG d   1       2.386  83.274 111.050  0.00  0.00     0.149 HD
ENDBRANCH   6  13
BRANCH   5  18
ATOM     18  N   LIG d   1       1.141  86.196 110.146  0.00  0.00     0.381 N 
ATOM     19  H   LIG d   1       0.314  86.208 110.709  0.00  0.00    -0.090 HD
ATOM     20  H   LIG d   1       1.079  85.419 109.512  0.00  0.00    -0.090 HD
ATOM     21  H   LIG d   1       1.216  87.048 109.635  0.00  0.00    -0.090 HD
ENDBRANCH   5  18
BRANCH   3  22
ATOM     22  C   LIG d   1       4.600  88.436 112.587  0.00  0.00     0.382 C 
ATOM     23  O   LIG d   1       5.843  88.268 112.591  0.00  0.00    -0.241 OA
ATOM     24  O   LIG d   1       4.136  89.584 112.716  0.00  0.00    -0.241 OA
ENDBRANCH   3  22
TORSDOF 7
ENDMDL
MODEL 6
REMARK VINA RESULT:      -5.3      6.813      8.978
REMARK  7 active torsions:
REMARK  status: ('A' for Active; 'I' for Inactive)
REMARK    1  A    between atoms: C_2  and  C_3 
REMARK    2  A    between atoms: C_3  and  O_6 
REMARK    3  A    between atoms: C_3  and  C_4 
REMARK    4  A    between atoms: C_7  and  O_6 
REMARK    5  A    between atoms: C_9  and  C_10 
REMARK    6  A    between atoms: N_15  and  C_14 
REMARK    7  A    between atoms: N_20  and  C_19 
REMARK       I    between atoms: C_22  and  N_20 
ROOT
ATOM      1  C   LIG d   1       2.556  83.745 113.304  0.00  0.00     0.161 C 
ATOM      2  C   LIG d   1       2.411  84.653 112.242  0.00  0.00     0.016 C 
ATOM      3  C   LIG d   1       2.913  85.974 112.273  0.00  0.00     0.038 C 
ATOM      4  C   LIG d   1       3.731  86.432 113.316  0.00  0.00     0.028 C 
ATOM      5  C   LIG d   1       3.481  85.717 114.640  0.00  0.00    -0.047 C 
ATOM      6  C   LIG d   1       3.541  84.191 114.405  0.00  0.00     0.091 C 
ENDROOT
BRANCH   1   7
ATOM      7  O   LIG d   1       2.928  82.450 112.793  0.00  0.00    -0.368 OA
BRANCH   7   8
ATOM      8  C   LIG d   1       3.438  82.422 111.438  0.00  0.00     0.119 C 
BRANCH   8   9
ATOM      9  C   LIG d   1       2.788  81.221 110.723  0.00  0.00     0.028 C 
ATOM     10  C   LIG d   1       1.302  81.057 111.085  0.00  0.00     0.006 C 
ENDBRANCH   8   9
BRANCH   8  11
ATOM     11  C   LIG d   1       4.943  82.141 111.414  0.00  0.00     0.028 C 
ATOM     12  C   LIG d   1       5.429  81.610 110.056  0.00  0.00     0.006 C 
ENDBRANCH   8  11
ENDBRANCH   7   8
ENDBRANCH   1   7
BRANCH   6  13
ATOM     13  N   LIG d   1       3.224  83.415 115.633  0.00  0.00    -0.311 N 
ATOM     14  C   LIG d   1       3.946  82.377 116.051  0.00  0.00     0.210 C 
ATOM     15  C   LIG d   1       3.434  81.706 117.330  0.00  0.00     0.109 C 
ATOM     16  O   LIG d   1       4.980  81.968 115.503  0.00  0.00    -0.276 OA
ATOM     17  H   LIG d   1       2.419  83.699 116.156  0.00  0.00     0.149 HD
ENDBRANCH   6  13
BRANCH   5  18
ATOM     18  N   LIG d   1       4.492  86.194 115.602  0.00  0.00     0.381 N 
ATOM     19  H   LIG d   1       4.056  86.771 116.294  0.00  0.00    -0.090 HD
ATOM     20  H   LIG d   1       5.171  86.750 115.112  0.00  0.00    -0.090 HD
ATOM     21  H   LIG d   1       4.940  85.419 116.039  0.00  0.00    -0.090 HD
ENDBRANCH   5  18
BRANCH   3  22
ATOM     22  C   LIG d   1       2.564  86.866 111.270  0.00  0.00     0.382 C 
ATOM     23  O   LIG d   1       2.552  88.098 111.503  0.00  0.00    -0.241 OA
ATOM     24  O   LIG d   1       2.217  86.450 110.148  0.00  0.00    -0.241 OA
ENDBRANCH   3  22
TORSDOF 7
ENDMDL
MODEL 7
REMARK VINA RESULT:      -5.1      1.886      2.204
REMARK  7 active torsions:
REMARK  status: ('A' for Active; 'I' for Inactive)
REMARK    1  A    between atoms: C_2  and  C_3 
REMARK    2  A    between atoms: C_3  and  O_6 
REMARK    3  A    between atoms: C_3  and  C_4 
REMARK    4  A    between atoms: C_7  and  O_6 
REMARK    5  A    between atoms: C_9  and  C_10 
REMARK    6  A    between atoms: N_15  and  C_14 
REMARK    7  A    between atoms: N_20  and  C_19 
REMARK       I    between atoms: C_22  and  N_20 
ROOT
ATOM      1  C   LIG d   1      -0.212  78.222 113.695  0.00  0.00     0.161 C 
ATOM      2  C   LIG d   1      -0.971  79.391 113.868  0.00  0.00     0.016 C 
ATOM      3  C   LIG d   1      -2.043  79.755 113.022  0.00  0.00     0.038 C 
ATOM      4  C   LIG d   1      -2.529  78.892 112.028  0.00  0.00     0.028 C 
ATOM      5  C   LIG d   1      -1.474  77.930 111.493  0.00  0.00    -0.047 C 
ATOM      6  C   LIG d   1      -0.798  77.214 112.684  0.00  0.00     0.091 C 
ENDROOT
BRANCH   1   7
ATOM      7  O   LIG d   1       0.003  77.585 114.971  0.00  0.00    -0.368 OA
BRANCH   7   8
ATOM      8  C   LIG d   1      -1.050  77.753 115.952  0.00  0.00     0.119 C 
BRANCH   8   9
ATOM      9  C   LIG d   1      -0.376  77.942 117.325  0.00  0.00     0.028 C 
ATOM     10  C   LIG d   1      -0.302  79.420 117.744  0.00  0.00     0.006 C 
ENDBRANCH   8   9
BRANCH   8  11
ATOM     11  C   LIG d   1      -1.895  76.483 116.086  0.00  0.00     0.028 C 
ATOM     12  C   LIG d   1      -3.299  76.636 115.479  0.00  0.00     0.006 C 
ENDBRANCH   8  11
ENDBRANCH   7   8
ENDBRANCH   1   7
BRANCH   6  13
ATOM     13  N   LIG d   1       0.305  76.316 112.254  0.00  0.00    -0.311 N 
ATOM     14  C   LIG d   1       0.525  75.116 112.789  0.00  0.00     0.210 C 
ATOM     15  C   LIG d   1       1.727  74.361 112.213  0.00  0.00     0.109 C 
ATOM     16  O   LIG d   1      -0.181  74.591 113.663  0.00  0.00    -0.276 OA
ATOM     17  H   LIG d   1       0.908  76.649 111.528  0.00  0.00     0.149 HD
ENDBRANCH   6  13
BRANCH   5  18
ATOM     18  N   LIG d   1      -2.148  77.000 110.567  0.00  0.00     0.381 N 
ATOM     19  H   LIG d   1      -2.552  77.512 109.808  0.00  0.00    -0.090 HD
ATOM     20  H   LIG d   1      -2.887  76.529 111.059  0.00  0.00    -0.090 HD
ATOM     21  H   LIG d   1      -1.495  76.334 110.217  0.00  0.00    -0.090 HD
ENDBRANCH   5  18
BRANCH   3  22
ATOM     22  C   LIG d   1      -2.616  81.012 113.140  0.00  0.00     0.382 C 
ATOM     23  O   LIG d   1      -2.384  81.891 112.274  0.00  0.00    -0.241 OA
ATOM     24  O   LIG d   1      -3.325  81.293 114.124  0.00  0.00    -0.241 OA
ENDBRANCH   3  22
TORSDOF 7
ENDMDL
MODEL 8
REMARK VINA RESULT:      -5.0     11.112     13.223
REMARK  7 active torsions:
REMARK  status: ('A' for Active; 'I' for Inactive)
REMARK    1  A    between atoms: C_2  and  C_3 
REMARK    2  A    between atoms: C_3  and  O_6 
REMARK    3  A    between atoms: C_3  and  C_4 
REMARK    4  A    between atoms: C_7  and  O_6 
REMARK    5  A    between atoms: C_9  and  C_10 
REMARK    6  A    between atoms: N_15  and  C_14 
REMARK    7  A    between atoms: N_20  and  C_19 
REMARK       I    between atoms: C_22  and  N_20 
ROOT
ATOM      1  C   LIG d   1      10.896  75.835 114.775  0.00  0.00     0.161 C 
ATOM      2  C   LIG d   1       9.699  76.542 114.979  0.00  0.00     0.016 C 
ATOM      3  C   LIG d   1       9.625  77.953 115.019  0.00  0.00     0.038 C 
ATOM      4  C   LIG d   1      10.727  78.762 114.704  0.00  0.00     0.028 C 
ATOM      5  C   LIG d   1      12.069  78.095 114.989  0.00  0.00    -0.047 C 
ATOM      6  C   LIG d   1      12.089  76.702 114.320  0.00  0.00     0.091 C 
ENDROOT
BRANCH   1   7
ATOM      7  O   LIG d   1      10.675  74.758 113.844  0.00  0.00    -0.368 OA
BRANCH   7   8
ATOM      8  C   LIG d   1      10.644  73.424 114.408  0.00  0.00     0.119 C 
BRANCH   8   9
ATOM      9  C   LIG d   1       9.175  73.094 114.736  0.00  0.00     0.028 C 
ATOM     10  C   LIG d   1       8.971  72.737 116.218  0.00  0.00     0.006 C 
ENDBRANCH   8   9
BRANCH   8  11
ATOM     11  C   LIG d   1      11.382  73.369 115.749  0.00  0.00     0.028 C 
ATOM     12  C   LIG d   1      12.704  72.589 115.670  0.00  0.00     0.006 C 
ENDBRANCH   8  11
ENDBRANCH   7   8
ENDBRANCH   1   7
BRANCH   6  13
ATOM     13  N   LIG d   1      13.334  75.947 114.619  0.00  0.00    -0.311 N 
ATOM     14  C   LIG d   1      14.428  76.008 113.862  0.00  0.00     0.210 C 
ATOM     15  C   LIG d   1      15.593  75.135 114.339  0.00  0.00     0.109 C 
ATOM     16  O   LIG d   1      14.555  76.727 112.860  0.00  0.00    -0.276 OA
ATOM     17  H   LIG d   1      13.328  75.363 115.432  0.00  0.00     0.149 HD
ENDBRANCH   6  13
BRANCH   5  18
ATOM     18  N   LIG d   1      13.127  78.992 114.488  0.00  0.00     0.381 N 
ATOM     19  H   LIG d   1      12.737  79.886 114.265  0.00  0.00    -0.090 HD
ATOM     20  H   LIG d   1      13.515  78.600 113.648  0.00  0.00    -0.090 HD
ATOM     21  H   LIG d   1      13.841  79.095 115.175  0.00  0.00    -0.090 HD
ENDBRANCH   5  18
BRANCH   3  22
ATOM     22  C   LIG d   1       8.448  78.569 115.415  0.00  0.00     0.382 C 
ATOM     23  O   LIG d   1       7.417  78.464 114.708  0.00  0.00    -0.241 OA
ATOM     24  O   LIG d   1       8.415  79.264 116.448  0.00  0.00    -0.241 OA
ENDBRANCH   3  22
TORSDOF 7
ENDMDL
MODEL 9
REMARK VINA RESULT:      -4.8     23.418     25.683
REMARK  7 active torsions:
REMARK  status: ('A' for Active; 'I' for Inactive)
REMARK    1  A    between atoms: C_2  and  C_3 
REMARK    2  A    between atoms: C_3  and  O_6 
REMARK    3  A    between atoms: C_3  and  C_4 
REMARK    4  A    between atoms: C_7  and  O_6 
REMARK    5  A    between atoms: C_9  and  C_10 
REMARK    6  A    between atoms: N_15  and  C_14 
REMARK    7  A    between atoms: N_20  and  C_19 
REMARK       I    between atoms: C_22  and  N_20 
ROOT
ATOM      1  C   LIG d   1     -25.892  85.045 113.345  0.00  0.00     0.161 C 
ATOM      2  C   LIG d   1     -24.822  85.946 113.475  0.00  0.00     0.016 C 
ATOM      3  C   LIG d   1     -23.525  85.561 113.884  0.00  0.00     0.038 C 
ATOM      4  C   LIG d   1     -23.169  84.214 114.047  0.00  0.00     0.028 C 
ATOM      5  C   LIG d   1     -24.345  83.316 114.417  0.00  0.00    -0.047 C 
ATOM      6  C   LIG d   1     -25.494  83.556 113.411  0.00  0.00     0.091 C 
ENDROOT
BRANCH   1   7
ATOM      7  O   LIG d   1     -26.615  85.317 112.129  0.00  0.00    -0.368 OA
BRANCH   7   8
ATOM      8  C   LIG d   1     -27.778  86.172 112.256  0.00  0.00     0.119 C 
BRANCH   8   9
ATOM      9  C   LIG d   1     -29.020  85.313 111.944  0.00  0.00     0.028 C 
ATOM     10  C   LIG d   1     -29.032  84.807 110.492  0.00  0.00     0.006 C 
ENDBRANCH   8   9
BRANCH   8  11
ATOM     11  C   LIG d   1     -27.775  87.280 111.199  0.00  0.00     0.028 C 
ATOM     12  C   LIG d   1     -26.719  88.362 111.475  0.00  0.00     0.006 C 
ENDBRANCH   8  11
ENDBRANCH   7   8
ENDBRANCH   1   7
BRANCH   6  13
ATOM     13  N   LIG d   1     -26.715  82.778 113.750  0.00  0.00    -0.311 N 
ATOM     14  C   LIG d   1     -27.437  82.117 112.847  0.00  0.00     0.210 C 
ATOM     15  C   LIG d   1     -28.668  81.397 113.405  0.00  0.00     0.109 C 
ATOM     16  O   LIG d   1     -27.156  82.031 111.642  0.00  0.00    -0.276 OA
ATOM     17  H   LIG d   1     -26.997  82.768 114.710  0.00  0.00     0.149 HD
ENDBRANCH   6  13
BRANCH   5  18
ATOM     18  N   LIG d   1     -23.859  81.924 114.419  0.00  0.00     0.381 N 
ATOM     19  H   LIG d   1     -24.624  81.298 114.575  0.00  0.00    -0.090 HD
ATOM     20  H   LIG d   1     -23.201  81.810 115.170  0.00  0.00    -0.090 HD
ATOM     21  H   LIG d   1     -23.421  81.714 113.549  0.00  0.00    -0.090 HD
ENDBRANCH   5  18
BRANCH   3  22
ATOM     22  C   LIG d   1     -22.579  86.532 114.174  0.00  0.00     0.382 C 
ATOM     23  O   LIG d   1     -21.494  86.559 113.544  0.00  0.00    -0.241 OA
ATOM     24  O   LIG d   1     -22.777  87.355 115.088  0.00  0.00    -0.241 OA
ENDBRANCH   3  22
TORSDOF 7
ENDMDL
