MODEL 1
REMARK VINA RESULT:      -5.9      0.000      0.000
REMARK  7 active torsions:
REMARK  status: ('A' for Active; 'I' for Inactive)
REMARK    1  A    between atoms: C_2  and  C_3 
REMARK    2  A    between atoms: C_3  and  O_6 
REMARK    3  A    between atoms: C_3  and  C_4 
REMARK    4  A    between atoms: C_7  and  O_6 
REMARK    5  A    between atoms: C_9  and  C_10 
REMARK    6  A    between atoms: N_15  and  C_14 
REMARK    7  A    between atoms: N_20  and  C_19 
REMARK       I    between atoms: C_22  and  N_20 
ROOT
ATOM      1  C   LIG d   1       1.341  84.836 113.103  0.00  0.00     0.161 C 
ATOM      2  C   LIG d   1       0.216  84.989 112.276  0.00  0.00     0.016 C 
ATOM      3  C   LIG d   1      -0.223  86.240 111.784  0.00  0.00     0.038 C 
ATOM      4  C   LIG d   1       0.527  87.412 111.963  0.00  0.00     0.028 C 
ATOM      5  C   LIG d   1       1.398  87.388 113.215  0.00  0.00    -0.047 C 
ATOM      6  C   LIG d   1       2.235  86.088 113.218  0.00  0.00     0.091 C 
ENDROOT
BRANCH   1   7
ATOM      7  O   LIG d   1       2.119  83.704 112.665  0.00  0.00    -0.368 OA
BRANCH   7   8
ATOM      8  C   LIG d   1       1.656  83.040 111.463  0.00  0.00     0.119 C 
BRANCH   8   9
ATOM      9  C   LIG d   1       1.326  81.582 111.838  0.00  0.00     0.028 C 
ATOM     10  C   LIG d   1       1.375  80.639 110.624  0.00  0.00     0.006 C 
ENDBRANCH   8   9
BRANCH   8  11
ATOM     11  C   LIG d   1       2.769  82.947 110.415  0.00  0.00     0.028 C 
ATOM     12  C   LIG d   1       3.555  84.258 110.262  0.00  0.00     0.006 C 
ENDBRANCH   8  11
ENDBRANCH   7   8
ENDBRANCH   1   7
BRANCH   6  13
ATOM     13  N   LIG d   1       3.054  85.944 114.450  0.00  0.00    -0.311 N 
ATOM     14  C   LIG d   1       4.322  86.342 114.538  0.00  0.00     0.210 C 
ATOM     15  C   LIG d   1       4.989  86.082 115.893  0.00  0.00     0.109 C 
ATOM     16  O   LIG d   1       4.949  86.913 113.633  0.00  0.00    -0.276 OA
ATOM     17  H   LIG d   1       2.614  85.519 115.243  0.00  0.00     0.149 HD
ENDBRANCH   6  13
BRANCH   5  18
ATOM     18  N   LIG d   1       2.226  88.608 113.205  0.00  0.00     0.381 N 
ATOM     19  H   LIG d   1       2.814  88.626 114.014  0.00  0.00    -0.090 HD
ATOM     20  H   LIG d   1       1.623  89.411 113.237  0.00  0.00    -0.090 HD
ATOM     21  H   LIG d   1       2.784  88.636 112.380  0.00  0.00    -0.090 HD
ENDBRANCH   5  18
BRANCH   3  22
ATOM     22  C   LIG d   1      -1.446  86.333 111.137  0.00  0.00     0.382 C 
ATOM     23  O   LIG d   1      -2.171  87.342 111.309  0.00  0.00    -0.241 OA
ATOM     24  O   LIG d   1      -1.852  85.401 110.417  0.00  0.00    -0.241 OA
ENDBRANCH   3  22
TORSDOF 7
ENDMDL
MODEL 2
REMARK VINA RESULT:      -5.4      2.531      4.768
REMARK  7 active torsions:
REMARK  status: ('A' for Active; 'I' for Inactive)
REMARK    1  A    between atoms: C_2  and  C_3 
REMARK    2  A    between atoms: C_3  and  O_6 
REMARK    3  A    between atoms: C_3  and  C_4 
REMARK    4  A    between atoms: C_7  and  O_6 
REMARK    5  A    between atoms: C_9  and  C_10 
REMARK    6  A    between atoms: N_15  and  C_14 
REMARK    7  A    between atoms: N_20  and  C_19 
REMARK       I    between atoms: C_22  and  N_20 
ROOT
ATOM      1  C   LIG d   1       1.817  85.553 114.537  0.00  0.00     0.161 C 
ATOM      2  C   LIG d   1       2.494  86.520 113.775  0.00  0.00     0.016 C 
ATOM      3  C   LIG d   1       3.827  86.917 114.027  0.00  0.00     0.038 C 
ATOM      4  C   LIG d   1       4.631  86.259 114.970  0.00  0.00     0.028 C 
ATOM      5  C   LIG d   1       3.834  85.621 116.104  0.00  0.00    -0.047 C 
ATOM      6  C   LIG d   1       2.713  84.745 115.499  0.00  0.00     0.091 C 
ENDROOT
BRANCH   1   7
ATOM      7  O   LIG d   1       1.090  84.665 113.665  0.00  0.00    -0.368 OA
BRANCH   7   8
ATOM      8  C   LIG d   1       0.745  85.194 112.361  0.00  0.00     0.119 C 
BRANCH   8   9
ATOM      9  C   LIG d   1      -0.792  85.249 112.276  0.00  0.00     0.028 C 
ATOM     10  C   LIG d   1      -1.294  86.499 111.534  0.00  0.00     0.006 C 
ENDBRANCH   8   9
BRANCH   8  11
ATOM     11  C   LIG d   1       1.179  84.243 111.241  0.00  0.00     0.028 C 
ATOM     12  C   LIG d   1       2.246  84.854 110.320  0.00  0.00     0.006 C 
ENDBRANCH   8  11
ENDBRANCH   7   8
ENDBRANCH   1   7
BRANCH   6  13
ATOM     13  N   LIG d   1       1.834  84.151 116.540  0.00  0.00    -0.311 N 
ATOM     14  C   LIG d   1       2.044  82.951 117.078  0.00  0.00     0.210 C 
ATOM     15  C   LIG d   1       1.006  82.520 118.120  0.00  0.00     0.109 C 
ATOM     16  O   LIG d   1       3.008  82.217 116.816  0.00  0.00    -0.276 OA
ATOM     17  H   LIG d   1       1.045  84.693 116.834  0.00  0.00     0.149 HD
ENDBRANCH   6  13
BRANCH   5  18
ATOM     18  N   LIG d   1       4.781  84.854 116.937  0.00  0.00     0.381 N 
ATOM     19  H   LIG d   1       5.196  84.124 116.393  0.00  0.00    -0.090 HD
ATOM     20  H   LIG d   1       4.277  84.434 117.698  0.00  0.00    -0.090 HD
ATOM     21  H   LIG d   1       5.489  85.458 117.292  0.00  0.00    -0.090 HD
ENDBRANCH   5  18
BRANCH   3  22
ATOM     22  C   LIG d   1       4.358  88.009 113.358  0.00  0.00     0.382 C 
ATOM     23  O   LIG d   1       5.550  87.987 112.967  0.00  0.00    -0.241 OA
ATOM     24  O   LIG d   1       3.673  89.034 113.180  0.00  0.00    -0.241 OA
ENDBRANCH   3  22
TORSDOF 7
ENDMDL
MODEL 3
REMARK VINA RESULT:      -5.4     24.222     26.754
REMARK  7 active torsions:
REMARK  status: ('A' for Active; 'I' for Inactive)
REMARK    1  A    between atoms: C_2  and  C_3 
REMARK    2  A    between atoms: C_3  and  O_6 
REMARK    3  A    between atoms: C_3  and  C_4 
REMARK    4  A    between atoms: C_7  and  O_6 
REMARK    5  A    between atoms: C_9  and  C_10 
REMARK    6  A    between atoms: N_15  and  C_14 
REMARK    7  A    between atoms: N_20  and  C_19 
REMARK       I    between atoms: C_22  and  N_20 
ROOT
ATOM      1  C   LIG d   1     -16.277  65.791 114.007  0.00  0.00     0.161 C 
ATOM      2  C   LIG d   1     -15.923  66.659 112.961  0.00  0.00     0.016 C 
ATOM      3  C   LIG d   1     -15.130  67.815 113.144  0.00  0.00     0.038 C 
ATOM      4  C   LIG d   1     -14.507  68.101 114.369  0.00  0.00     0.028 C 
ATOM      5  C   LIG d   1     -15.248  67.529 115.573  0.00  0.00    -0.047 C 
ATOM      6  C   LIG d   1     -15.516  66.026 115.329  0.00  0.00     0.091 C 
ENDROOT
BRANCH   1   7
ATOM      7  O   LIG d   1     -16.127  64.423 113.579  0.00  0.00    -0.368 OA
BRANCH   7   8
ATOM      8  C   LIG d   1     -17.355  63.692 113.338  0.00  0.00     0.119 C 
BRANCH   8   9
ATOM      9  C   LIG d   1     -18.514  64.535 113.904  0.00  0.00     0.028 C 
ATOM     10  C   LIG d   1     -19.608  64.807 112.858  0.00  0.00     0.006 C 
ENDBRANCH   8   9
BRANCH   8  11
ATOM     11  C   LIG d   1     -17.386  62.379 114.125  0.00  0.00     0.028 C 
ATOM     12  C   LIG d   1     -18.426  61.385 113.584  0.00  0.00     0.006 C 
ENDBRANCH   8  11
ENDBRANCH   7   8
ENDBRANCH   1   7
BRANCH   6  13
ATOM     13  N   LIG d   1     -16.310  65.407 116.422  0.00  0.00    -0.311 N 
ATOM     14  C   LIG d   1     -15.964  64.273 117.029  0.00  0.00     0.210 C 
ATOM     15  C   LIG d   1     -16.933  63.799 118.116  0.00  0.00     0.109 C 
ATOM     16  O   LIG d   1     -14.928  63.633 116.793  0.00  0.00    -0.276 OA
ATOM     17  H   LIG d   1     -17.150  65.878 116.698  0.00  0.00     0.149 HD
ENDBRANCH   6  13
BRANCH   5  18
ATOM     18  N   LIG d   1     -14.419  67.782 116.767  0.00  0.00     0.381 N 
ATOM     19  H   LIG d   1     -14.547  68.726 117.073  0.00  0.00    -0.090 HD
ATOM     20  H   LIG d   1     -13.452  67.657 116.524  0.00  0.00    -0.090 HD
ATOM     21  H   LIG d   1     -14.671  67.151 117.496  0.00  0.00    -0.090 HD
ENDBRANCH   5  18
BRANCH   3  22
ATOM     22  C   LIG d   1     -14.985  68.721 112.104  0.00  0.00     0.382 C 
ATOM     23  O   LIG d   1     -15.947  68.946 111.331  0.00  0.00    -0.241 OA
ATOM     24  O   LIG d   1     -13.892  69.283 111.903  0.00  0.00    -0.241 OA
ENDBRANCH   3  22
TORSDOF 7
ENDMDL
MODEL 4
REMARK VINA RESULT:      -5.2     10.626     12.508
REMARK  7 active torsions:
REMARK  status: ('A' for Active; 'I' for Inactive)
REMARK    1  A    between atoms: C_2  and  C_3 
REMARK    2  A    between atoms: C_3  and  O_6 
REMARK    3  A    between atoms: C_3  and  C_4 
REMARK    4  A    between atoms: C_7  and  O_6 
REMARK    5  A    between atoms: C_9  and  C_10 
REMARK    6  A    between atoms: N_15  and  C_14 
REMARK    7  A    between atoms: N_20  and  C_19 
REMARK       I    between atoms: C_22  and  N_20 
ROOT
ATOM      1  C   LIG d   1      -4.642  75.641 116.465  0.00  0.00     0.161 C 
ATOM      2  C   LIG d   1      -5.348  74.478 116.116  0.00  0.00     0.016 C 
ATOM      3  C   LIG d   1      -6.758  74.381 116.157  0.00  0.00     0.038 C 
ATOM      4  C   LIG d   1      -7.571  75.497 116.407  0.00  0.00     0.028 C 
ATOM      5  C   LIG d   1      -6.889  76.564 117.257  0.00  0.00    -0.047 C 
ATOM      6  C   LIG d   1      -5.516  76.902 116.633  0.00  0.00     0.091 C 
ENDROOT
BRANCH   1   7
ATOM      7  O   LIG d   1      -3.594  75.883 115.506  0.00  0.00    -0.368 OA
BRANCH   7   8
ATOM      8  C   LIG d   1      -2.303  75.299 115.811  0.00  0.00     0.119 C 
BRANCH   8   9
ATOM      9  C   LIG d   1      -2.076  75.447 117.328  0.00  0.00     0.028 C 
ATOM     10  C   LIG d   1      -1.219  74.308 117.907  0.00  0.00     0.006 C 
ENDBRANCH   8   9
BRANCH   8  11
ATOM     11  C   LIG d   1      -1.166  76.084 115.152  0.00  0.00     0.028 C 
ATOM     12  C   LIG d   1      -0.938  77.459 115.799  0.00  0.00     0.006 C 
ENDBRANCH   8  11
ENDBRANCH   7   8
ENDBRANCH   1   7
BRANCH   6  13
ATOM     13  N   LIG d   1      -4.747  77.876 117.450  0.00  0.00    -0.311 N 
ATOM     14  C   LIG d   1      -4.121  78.933 116.933  0.00  0.00     0.210 C 
ATOM     15  C   LIG d   1      -3.370  79.799 117.949  0.00  0.00     0.109 C 
ATOM     16  O   LIG d   1      -4.145  79.253 115.735  0.00  0.00    -0.276 OA
ATOM     17  H   LIG d   1      -4.702  77.710 118.436  0.00  0.00     0.149 HD
ENDBRANCH   6  13
BRANCH   5  18
ATOM     18  N   LIG d   1      -7.795  77.726 117.324  0.00  0.00     0.381 N 
ATOM     19  H   LIG d   1      -8.105  77.861 118.266  0.00  0.00    -0.090 HD
ATOM     20  H   LIG d   1      -8.600  77.544 116.751  0.00  0.00    -0.090 HD
ATOM     21  H   LIG d   1      -7.326  78.543 117.001  0.00  0.00    -0.090 HD
ENDBRANCH   5  18
BRANCH   3  22
ATOM     22  C   LIG d   1      -7.368  73.148 115.985  0.00  0.00     0.382 C 
ATOM     23  O   LIG d   1      -6.696  72.167 115.584  0.00  0.00    -0.241 OA
ATOM     24  O   LIG d   1      -8.590  73.014 116.183  0.00  0.00    -0.241 OA
ENDBRANCH   3  22
TORSDOF 7
ENDMDL
MODEL 5
REMARK VINA RESULT:      -5.2     24.480     27.501
REMARK  7 active torsions:
REMARK  status: ('A' for Active; 'I' for Inactive)
REMARK    1  A    between atoms: C_2  and  C_3 
REMARK    2  A    between atoms: C_3  and  O_6 
REMARK    3  A    between atoms: C_3  and  C_4 
REMARK    4  A    between atoms: C_7  and  O_6 
REMARK    5  A    between atoms: C_9  and  C_10 
REMARK    6  A    between atoms: N_15  and  C_14 
REMARK    7  A    between atoms: N_20  and  C_19 
REMARK       I    between atoms: C_22  and  N_20 
ROOT
ATOM      1  C   LIG d   1     -25.864  85.322 114.014  0.00  0.00     0.161 C 
ATOM      2  C   LIG d   1     -24.840  86.281 114.088  0.00  0.00     0.016 C 
ATOM      3  C   LIG d   1     -23.477  85.982 113.862  0.00  0.00     0.038 C 
ATOM      4  C   LIG d   1     -23.061  84.727 113.395  0.00  0.00     0.028 C 
ATOM      5  C   LIG d   1     -23.998  83.591 113.793  0.00  0.00    -0.047 C 
ATOM      6  C   LIG d   1     -25.443  83.972 113.398  0.00  0.00     0.091 C 
ENDROOT
BRANCH   1   7
ATOM      7  O   LIG d   1     -26.993  85.867 113.303  0.00  0.00    -0.368 OA
BRANCH   7   8
ATOM      8  C   LIG d   1     -26.691  86.864 112.296  0.00  0.00     0.119 C 
BRANCH   8   9
ATOM      9  C   LIG d   1     -27.804  87.929 112.350  0.00  0.00     0.028 C 
ATOM     10  C   LIG d   1     -28.409  88.217 110.966  0.00  0.00     0.006 C 
ENDBRANCH   8   9
BRANCH   8  11
ATOM     11  C   LIG d   1     -26.766  86.272 110.885  0.00  0.00     0.028 C 
ATOM     12  C   LIG d   1     -25.381  85.958 110.297  0.00  0.00     0.006 C 
ENDBRANCH   8  11
ENDBRANCH   7   8
ENDBRANCH   1   7
BRANCH   6  13
ATOM     13  N   LIG d   1     -26.436  82.953 113.827  0.00  0.00    -0.311 N 
ATOM     14  C   LIG d   1     -26.834  81.946 113.052  0.00  0.00     0.210 C 
ATOM     15  C   LIG d   1     -27.879  81.019 113.681  0.00  0.00     0.109 C 
ATOM     16  O   LIG d   1     -26.398  81.713 111.915  0.00  0.00    -0.276 OA
ATOM     17  H   LIG d   1     -26.818  83.047 114.747  0.00  0.00     0.149 HD
ENDBRANCH   6  13
BRANCH   5  18
ATOM     18  N   LIG d   1     -23.521  82.365 113.126  0.00  0.00     0.381 N 
ATOM     19  H   LIG d   1     -22.520  82.343 113.134  0.00  0.00    -0.090 HD
ATOM     20  H   LIG d   1     -23.828  82.374 112.170  0.00  0.00    -0.090 HD
ATOM     21  H   LIG d   1     -23.882  81.561 113.592  0.00  0.00    -0.090 HD
ENDBRANCH   5  18
BRANCH   3  22
ATOM     22  C   LIG d   1     -22.509  86.935 114.142  0.00  0.00     0.382 C 
ATOM     23  O   LIG d   1     -22.742  87.838 114.981  0.00  0.00    -0.241 OA
ATOM     24  O   LIG d   1     -21.422  86.929 113.533  0.00  0.00    -0.241 OA
ENDBRANCH   3  22
TORSDOF 7
ENDMDL
MODEL 6
REMARK VINA RESULT:      -5.2      2.619      5.574
REMARK  7 active torsions:
REMARK  status: ('A' for Active; 'I' for Inactive)
REMARK    1  A    between atoms: C_2  and  C_3 
REMARK    2  A    between atoms: C_3  and  O_6 
REMARK    3  A    between atoms: C_3  and  C_4 
REMARK    4  A    between atoms: C_7  and  O_6 
REMARK    5  A    between atoms: C_9  and  C_10 
REMARK    6  A    between atoms: N_15  and  C_14 
REMARK    7  A    between atoms: N_20  and  C_19 
REMARK       I    between atoms: C_22  and  N_20 
ROOT
ATOM      1  C   LIG d   1       2.308  85.412 114.015  0.00  0.00     0.161 C 
ATOM      2  C   LIG d   1       3.182  86.490 114.230  0.00  0.00     0.016 C 
ATOM      3  C   LIG d   1       3.204  87.648 113.418  0.00  0.00     0.038 C 
ATOM      4  C   LIG d   1       2.243  87.872 112.421  0.00  0.00     0.028 C 
ATOM      5  C   LIG d   1       1.660  86.588 111.841  0.00  0.00    -0.047 C 
ATOM      6  C   LIG d   1       1.178  85.687 113.001  0.00  0.00     0.091 C 
ENDROOT
BRANCH   1   7
ATOM      7  O   LIG d   1       1.756  84.972 115.272  0.00  0.00    -0.368 OA
BRANCH   7   8
ATOM      8  C   LIG d   1       2.539  85.278 116.453  0.00  0.00     0.119 C 
BRANCH   8   9
ATOM      9  C   LIG d   1       3.061  83.943 117.020  0.00  0.00     0.028 C 
ATOM     10  C   LIG d   1       1.923  82.987 117.414  0.00  0.00     0.006 C 
ENDBRANCH   8   9
BRANCH   8  11
ATOM     11  C   LIG d   1       1.665  85.875 117.560  0.00  0.00     0.028 C 
ATOM     12  C   LIG d   1       1.137  87.276 117.212  0.00  0.00     0.006 C 
ENDBRANCH   8  11
ENDBRANCH   7   8
ENDBRANCH   1   7
BRANCH   6  13
ATOM     13  N   LIG d   1       0.670  84.374 112.525  0.00  0.00    -0.311 N 
ATOM     14  C   LIG d   1      -0.597  84.162 112.173  0.00  0.00     0.210 C 
ATOM     15  C   LIG d   1      -0.914  82.730 111.731  0.00  0.00     0.109 C 
ATOM     16  O   LIG d   1      -1.481  85.031 112.153  0.00  0.00    -0.276 OA
ATOM     17  H   LIG d   1       1.327  83.620 112.480  0.00  0.00     0.149 HD
ENDBRANCH   6  13
BRANCH   5  18
ATOM     18  N   LIG d   1       0.576  86.969 110.916  0.00  0.00     0.381 N 
ATOM     19  H   LIG d   1       0.333  86.188 110.340  0.00  0.00    -0.090 HD
ATOM     20  H   LIG d   1       0.902  87.710 110.321  0.00  0.00    -0.090 HD
ATOM     21  H   LIG d   1      -0.221  87.273 111.431  0.00  0.00    -0.090 HD
ENDBRANCH   5  18
BRANCH   3  22
ATOM     22  C   LIG d   1       4.220  88.578 113.575  0.00  0.00     0.382 C 
ATOM     23  O   LIG d   1       3.964  89.714 114.042  0.00  0.00    -0.241 OA
ATOM     24  O   LIG d   1       5.382  88.310 113.214  0.00  0.00    -0.241 OA
ENDBRANCH   3  22
TORSDOF 7
ENDMDL
MODEL 7
REMARK VINA RESULT:      -5.2      1.789      4.663
REMARK  7 active torsions:
REMARK  status: ('A' for Active; 'I' for Inactive)
REMARK    1  A    between atoms: C_2  and  C_3 
REMARK    2  A    between atoms: C_3  and  O_6 
REMARK    3  A    between atoms: C_3  and  C_4 
REMARK    4  A    between atoms: C_7  and  O_6 
REMARK    5  A    between atoms: C_9  and  C_10 
REMARK    6  A    between atoms: N_15  and  C_14 
REMARK    7  A    between atoms: N_20  and  C_19 
REMARK       I    between atoms: C_22  and  N_20 
ROOT
ATOM      1  C   LIG d   1       2.795  85.792 112.533  0.00  0.00     0.161 C 
ATOM      2  C   LIG d   1       4.086  86.278 112.801  0.00  0.00     0.016 C 
ATOM      3  C   LIG d   1       4.386  87.132 113.888  0.00  0.00     0.038 C 
ATOM      4  C   LIG d   1       3.436  87.439 114.874  0.00  0.00     0.028 C 
ATOM      5  C   LIG d   1       1.998  87.381 114.369  0.00  0.00    -0.047 C 
ATOM      6  C   LIG d   1       1.769  86.026 113.661  0.00  0.00     0.091 C 
ENDROOT
BRANCH   1   7
ATOM      7  O   LIG d   1       2.860  84.392 112.197  0.00  0.00    -0.368 OA
BRANCH   7   8
ATOM      8  C   LIG d   1       2.636  84.060 110.805  0.00  0.00     0.119 C 
BRANCH   8   9
ATOM      9  C   LIG d   1       1.855  82.732 110.766  0.00  0.00     0.028 C 
ATOM     10  C   LIG d   1       0.791  82.644 111.873  0.00  0.00     0.006 C 
ENDBRANCH   8   9
BRANCH   8  11
ATOM     11  C   LIG d   1       3.954  83.776 110.080  0.00  0.00     0.028 C 
ATOM     12  C   LIG d   1       4.312  82.281 110.056  0.00  0.00     0.006 C 
ENDBRANCH   8  11
ENDBRANCH   7   8
ENDBRANCH   1   7
BRANCH   6  13
ATOM     13  N   LIG d   1       0.412  85.921 113.063  0.00  0.00    -0.311 N 
ATOM     14  C   LIG d   1      -0.034  86.738 112.110  0.00  0.00     0.210 C 
ATOM     15  C   LIG d   1      -1.470  86.469 111.648  0.00  0.00     0.109 C 
ATOM     16  O   LIG d   1       0.634  87.639 111.581  0.00  0.00    -0.276 OA
ATOM     17  H   LIG d   1      -0.185  85.198 113.412  0.00  0.00     0.149 HD
ENDBRANCH   6  13
BRANCH   5  18
ATOM     18  N   LIG d   1       1.110  87.585 115.529  0.00  0.00     0.381 N 
ATOM     19  H   LIG d   1       1.650  87.600 116.370  0.00  0.00    -0.090 HD
ATOM     20  H   LIG d   1       0.464  86.818 115.582  0.00  0.00    -0.090 HD
ATOM     21  H   LIG d   1       0.612  88.442 115.430  0.00  0.00    -0.090 HD
ENDBRANCH   5  18
BRANCH   3  22
ATOM     22  C   LIG d   1       5.638  87.721 113.973  0.00  0.00     0.382 C 
ATOM     23  O   LIG d   1       6.094  88.368 113.000  0.00  0.00    -0.241 OA
ATOM     24  O   LIG d   1       6.335  87.578 114.995  0.00  0.00    -0.241 OA
ENDBRANCH   3  22
TORSDOF 7
ENDMDL
MODEL 8
REMARK VINA RESULT:      -5.1      8.336     10.800
REMARK  7 active torsions:
REMARK  status: ('A' for Active; 'I' for Inactive)
REMARK    1  A    between atoms: C_2  and  C_3 
REMARK    2  A    between atoms: C_3  and  O_6 
REMARK    3  A    between atoms: C_3  and  C_4 
REMARK    4  A    between atoms: C_7  and  O_6 
REMARK    5  A    between atoms: C_9  and  C_10 
REMARK    6  A    between atoms: N_15  and  C_14 
REMARK    7  A    between atoms: N_20  and  C_19 
REMARK       I    between atoms: C_22  and  N_20 
ROOT
ATOM      1  C   LIG d   1      -3.020  78.318 115.640  0.00  0.00     0.161 C 
ATOM      2  C   LIG d   1      -2.305  77.133 115.399  0.00  0.00     0.016 C 
ATOM      3  C   LIG d   1      -2.577  75.913 116.059  0.00  0.00     0.038 C 
ATOM      4  C   LIG d   1      -3.688  75.756 116.901  0.00  0.00     0.028 C 
ATOM      5  C   LIG d   1      -4.135  77.056 117.562  0.00  0.00    -0.047 C 
ATOM      6  C   LIG d   1      -4.307  78.139 116.473  0.00  0.00     0.091 C 
ENDROOT
BRANCH   1   7
ATOM      7  O   LIG d   1      -3.319  78.972 114.390  0.00  0.00    -0.368 OA
BRANCH   7   8
ATOM      8  C   LIG d   1      -2.377  78.746 113.312  0.00  0.00     0.119 C 
BRANCH   8   9
ATOM      9  C   LIG d   1      -1.766  80.111 112.939  0.00  0.00     0.028 C 
ATOM     10  C   LIG d   1      -2.807  81.243 112.949  0.00  0.00     0.006 C 
ENDBRANCH   8   9
BRANCH   8  11
ATOM     11  C   LIG d   1      -3.087  78.259 112.046  0.00  0.00     0.028 C 
ATOM     12  C   LIG d   1      -2.120  78.023 110.875  0.00  0.00     0.006 C 
ENDBRANCH   8  11
ENDBRANCH   7   8
ENDBRANCH   1   7
BRANCH   6  13
ATOM     13  N   LIG d   1      -4.662  79.465 117.043  0.00  0.00    -0.311 N 
ATOM     14  C   LIG d   1      -5.916  79.880 117.208  0.00  0.00     0.210 C 
ATOM     15  C   LIG d   1      -6.060  81.288 117.794  0.00  0.00     0.109 C 
ATOM     16  O   LIG d   1      -6.924  79.204 116.954  0.00  0.00    -0.276 OA
ATOM     17  H   LIG d   1      -3.905  80.066 117.305  0.00  0.00     0.149 HD
ENDBRANCH   6  13
BRANCH   5  18
ATOM     18  N   LIG d   1      -5.381  76.775 118.299  0.00  0.00     0.381 N 
ATOM     19  H   LIG d   1      -5.749  75.888 118.017  0.00  0.00    -0.090 HD
ATOM     20  H   LIG d   1      -6.058  77.483 118.076  0.00  0.00    -0.090 HD
ATOM     21  H   LIG d   1      -5.204  76.772 119.280  0.00  0.00    -0.090 HD
ENDBRANCH   5  18
BRANCH   3  22
ATOM     22  C   LIG d   1      -1.708  74.843 115.910  0.00  0.00     0.382 C 
ATOM     23  O   LIG d   1      -1.208  74.593 114.787  0.00  0.00    -0.241 OA
ATOM     24  O   LIG d   1      -1.451  74.098 116.875  0.00  0.00    -0.241 OA
ENDBRANCH   3  22
TORSDOF 7
ENDMDL
MODEL 9
REMARK VINA RESULT:      -4.9      9.967     12.064
REMARK  7 active torsions:
REMARK  status: ('A' for Active; 'I' for Inactive)
REMARK    1  A    between atoms: C_2  and  C_3 
REMARK    2  A    between atoms: C_3  and  O_6 
REMARK    3  A    between atoms: C_3  and  C_4 
REMARK    4  A    between atoms: C_7  and  O_6 
REMARK    5  A    between atoms: C_9  and  C_10 
REMARK    6  A    between atoms: N_15  and  C_14 
REMARK    7  A    between atoms: N_20  and  C_19 
REMARK       I    between atoms: C_22  and  N_20 
ROOT
ATOM      1  C   LIG d   1      10.313  78.868 114.838  0.00  0.00     0.161 C 
ATOM      2  C   LIG d   1       8.952  78.880 115.185  0.00  0.00     0.016 C 
ATOM      3  C   LIG d   1       8.244  77.729 115.600  0.00  0.00     0.038 C 
ATOM      4  C   LIG d   1       8.891  76.508 115.842  0.00  0.00     0.028 C 
ATOM      5  C   LIG d   1      10.163  76.323 115.022  0.00  0.00    -0.047 C 
ATOM      6  C   LIG d   1      11.061  77.568 115.202  0.00  0.00     0.091 C 
ENDROOT
BRANCH   1   7
ATOM      7  O   LIG d   1      10.976  80.008 115.419  0.00  0.00    -0.368 OA
BRANCH   7   8
ATOM      8  C   LIG d   1      11.283  81.096 114.514  0.00  0.00     0.119 C 
BRANCH   8   9
ATOM      9  C   LIG d   1      10.054  82.024 114.470  0.00  0.00     0.028 C 
ATOM     10  C   LIG d   1       9.646  82.523 115.867  0.00  0.00     0.006 C 
ENDBRANCH   8   9
BRANCH   8  11
ATOM     11  C   LIG d   1      11.463  80.593 113.078  0.00  0.00     0.028 C 
ATOM     12  C   LIG d   1      10.846  81.538 112.035  0.00  0.00     0.006 C 
ENDBRANCH   8  11
ENDBRANCH   7   8
ENDBRANCH   1   7
BRANCH   6  13
ATOM     13  N   LIG d   1      12.289  77.507 114.367  0.00  0.00    -0.311 N 
ATOM     14  C   LIG d   1      13.512  77.737 114.843  0.00  0.00     0.210 C 
ATOM     15  C   LIG d   1      14.637  77.642 113.808  0.00  0.00     0.109 C 
ATOM     16  O   LIG d   1      13.774  77.979 116.031  0.00  0.00    -0.276 OA
ATOM     17  H   LIG d   1      12.171  77.287 113.398  0.00  0.00     0.149 HD
ENDBRANCH   6  13
BRANCH   5  18
ATOM     18  N   LIG d   1      10.807  75.075 115.473  0.00  0.00     0.381 N 
ATOM     19  H   LIG d   1      11.433  74.743 114.767  0.00  0.00    -0.090 HD
ATOM     20  H   LIG d   1      10.098  74.378 115.620  0.00  0.00    -0.090 HD
ATOM     21  H   LIG d   1      11.306  75.236 116.320  0.00  0.00    -0.090 HD
ENDBRANCH   5  18
BRANCH   3  22
ATOM     22  C   LIG d   1       6.865  77.782 115.738  0.00  0.00     0.382 C 
ATOM     23  O   LIG d   1       6.304  77.163 116.674  0.00  0.00    -0.241 OA
ATOM     24  O   LIG d   1       6.171  78.406 114.913  0.00  0.00    -0.241 OA
ENDBRANCH   3  22
TORSDOF 7
ENDMDL
