MODEL 1
REMARK VINA RESULT:      -5.2      0.000      0.000
REMARK  7 active torsions:
REMARK  status: ('A' for Active; 'I' for Inactive)
REMARK    1  A    between atoms: C_2  and  C_3 
REMARK    2  A    between atoms: C_3  and  O_6 
REMARK    3  A    between atoms: C_3  and  C_4 
REMARK    4  A    between atoms: C_7  and  O_6 
REMARK    5  A    between atoms: C_9  and  C_10 
REMARK    6  A    between atoms: N_15  and  C_14 
REMARK    7  A    between atoms: N_20  and  C_19 
REMARK       I    between atoms: C_22  and  N_20 
ROOT
ATOM      1  C   LIG d   1       1.182  84.274 113.195  0.00  0.00     0.161 C 
ATOM      2  C   LIG d   1       1.442  85.529 112.619  0.00  0.00     0.016 C 
ATOM      3  C   LIG d   1       2.442  86.410 113.092  0.00  0.00     0.038 C 
ATOM      4  C   LIG d   1       3.357  86.029 114.085  0.00  0.00     0.028 C 
ATOM      5  C   LIG d   1       2.811  84.970 115.037  0.00  0.00    -0.047 C 
ATOM      6  C   LIG d   1       2.242  83.795 114.208  0.00  0.00     0.091 C 
ENDROOT
BRANCH   1   7
ATOM      7  O   LIG d   1       0.998  83.290 112.159  0.00  0.00    -0.368 OA
BRANCH   7   8
ATOM      8  C   LIG d   1       2.200  82.646 111.671  0.00  0.00     0.119 C 
BRANCH   8   9
ATOM      9  C   LIG d   1       2.413  83.104 110.215  0.00  0.00     0.028 C 
ATOM     10  C   LIG d   1       3.657  83.993 110.055  0.00  0.00     0.006 C 
ENDBRANCH   8   9
BRANCH   8  11
ATOM     11  C   LIG d   1       2.028  81.126 111.597  0.00  0.00     0.028 C 
ATOM     12  C   LIG d   1       0.720  80.643 112.243  0.00  0.00     0.006 C 
ENDBRANCH   8  11
ENDBRANCH   7   8
ENDBRANCH   1   7
BRANCH   6  13
ATOM     13  N   LIG d   1       1.612  82.753 115.060  0.00  0.00    -0.311 N 
ATOM     14  C   LIG d   1       2.257  81.670 115.491  0.00  0.00     0.210 C 
ATOM     15  C   LIG d   1       1.415  80.712 116.341  0.00  0.00     0.109 C 
ATOM     16  O   LIG d   1       3.454  81.428 115.278  0.00  0.00    -0.276 OA
ATOM     17  H   LIG d   1       0.651  82.886 115.307  0.00  0.00     0.149 HD
ENDBRANCH   6  13
BRANCH   5  18
ATOM     18  N   LIG d   1       3.911  84.566 115.933  0.00  0.00     0.381 N 
ATOM     19  H   LIG d   1       4.747  85.055 115.684  0.00  0.00    -0.090 HD
ATOM     20  H   LIG d   1       4.076  83.581 115.822  0.00  0.00    -0.090 HD
ATOM     21  H   LIG d   1       3.670  84.765 116.879  0.00  0.00    -0.090 HD
ENDBRANCH   5  18
BRANCH   3  22
ATOM     22  C   LIG d   1       2.509  87.703 112.597  0.00  0.00     0.382 C 
ATOM     23  O   LIG d   1       1.546  88.175 111.945  0.00  0.00    -0.241 OA
ATOM     24  O   LIG d   1       3.537  88.388 112.755  0.00  0.00    -0.241 OA
ENDBRANCH   3  22
TORSDOF 7
ENDMDL
MODEL 2
REMARK VINA RESULT:      -5.1      7.733     11.111
REMARK  7 active torsions:
REMARK  status: ('A' for Active; 'I' for Inactive)
REMARK    1  A    between atoms: C_2  and  C_3 
REMARK    2  A    between atoms: C_3  and  O_6 
REMARK    3  A    between atoms: C_3  and  C_4 
REMARK    4  A    between atoms: C_7  and  O_6 
REMARK    5  A    between atoms: C_9  and  C_10 
REMARK    6  A    between atoms: N_15  and  C_14 
REMARK    7  A    between atoms: N_20  and  C_19 
REMARK       I    between atoms: C_22  and  N_20 
ROOT
ATOM      1  C   LIG d   1      -2.404  75.215 115.658  0.00  0.00     0.161 C 
ATOM      2  C   LIG d   1      -1.738  74.447 116.629  0.00  0.00     0.016 C 
ATOM      3  C   LIG d   1      -0.450  74.760 117.119  0.00  0.00     0.038 C 
ATOM      4  C   LIG d   1       0.202  75.955 116.780  0.00  0.00     0.028 C 
ATOM      5  C   LIG d   1      -0.212  76.507 115.420  0.00  0.00    -0.047 C 
ATOM      6  C   LIG d   1      -1.755  76.582 115.359  0.00  0.00     0.091 C 
ENDROOT
BRANCH   1   7
ATOM      7  O   LIG d   1      -3.785  75.387 116.034  0.00  0.00    -0.368 OA
BRANCH   7   8
ATOM      8  C   LIG d   1      -4.675  74.290 115.711  0.00  0.00     0.119 C 
BRANCH   8   9
ATOM      9  C   LIG d   1      -4.981  74.372 114.203  0.00  0.00     0.028 C 
ATOM     10  C   LIG d   1      -5.675  75.688 113.815  0.00  0.00     0.006 C 
ENDBRANCH   8   9
BRANCH   8  11
ATOM     11  C   LIG d   1      -6.029  74.448 116.408  0.00  0.00     0.028 C 
ATOM     12  C   LIG d   1      -6.715  73.101 116.688  0.00  0.00     0.006 C 
ENDBRANCH   8  11
ENDBRANCH   7   8
ENDBRANCH   1   7
BRANCH   6  13
ATOM     13  N   LIG d   1      -2.248  77.033 114.031  0.00  0.00    -0.311 N 
ATOM     14  C   LIG d   1      -2.465  78.311 113.724  0.00  0.00     0.210 C 
ATOM     15  C   LIG d   1      -2.992  78.555 112.307  0.00  0.00     0.109 C 
ATOM     16  O   LIG d   1      -2.240  79.267 114.481  0.00  0.00    -0.276 OA
ATOM     17  H   LIG d   1      -2.427  76.324 113.346  0.00  0.00     0.149 HD
ENDBRANCH   6  13
BRANCH   5  18
ATOM     18  N   LIG d   1       0.438  77.821 115.255  0.00  0.00     0.381 N 
ATOM     19  H   LIG d   1      -0.093  78.384 114.622  0.00  0.00    -0.090 HD
ATOM     20  H   LIG d   1       1.353  77.684 114.865  0.00  0.00    -0.090 HD
ATOM     21  H   LIG d   1       0.510  78.279 116.137  0.00  0.00    -0.090 HD
ENDBRANCH   5  18
BRANCH   3  22
ATOM     22  C   LIG d   1       0.217  73.853 117.928  0.00  0.00     0.382 C 
ATOM     23  O   LIG d   1       1.389  74.092 118.305  0.00  0.00    -0.241 OA
ATOM     24  O   LIG d   1      -0.324  72.778 118.250  0.00  0.00    -0.241 OA
ENDBRANCH   3  22
TORSDOF 7
ENDMDL
MODEL 3
REMARK VINA RESULT:      -5.1      8.736     11.047
REMARK  7 active torsions:
REMARK  status: ('A' for Active; 'I' for Inactive)
REMARK    1  A    between atoms: C_2  and  C_3 
REMARK    2  A    between atoms: C_3  and  O_6 
REMARK    3  A    between atoms: C_3  and  C_4 
REMARK    4  A    between atoms: C_7  and  O_6 
REMARK    5  A    between atoms: C_9  and  C_10 
REMARK    6  A    between atoms: N_15  and  C_14 
REMARK    7  A    between atoms: N_20  and  C_19 
REMARK       I    between atoms: C_22  and  N_20 
ROOT
ATOM      1  C   LIG d   1      -3.869  76.032 116.851  0.00  0.00     0.161 C 
ATOM      2  C   LIG d   1      -5.108  76.608 117.177  0.00  0.00     0.016 C 
ATOM      3  C   LIG d   1      -5.456  77.940 116.856  0.00  0.00     0.038 C 
ATOM      4  C   LIG d   1      -4.639  78.746 116.049  0.00  0.00     0.028 C 
ATOM      5  C   LIG d   1      -3.161  78.377 116.125  0.00  0.00    -0.047 C 
ATOM      6  C   LIG d   1      -3.009  76.860 115.873  0.00  0.00     0.091 C 
ENDROOT
BRANCH   1   7
ATOM      7  O   LIG d   1      -4.069  74.700 116.338  0.00  0.00    -0.368 OA
BRANCH   7   8
ATOM      8  C   LIG d   1      -5.326  74.461 115.658  0.00  0.00     0.119 C 
BRANCH   8   9
ATOM      9  C   LIG d   1      -5.718  72.993 115.915  0.00  0.00     0.028 C 
ATOM     10  C   LIG d   1      -6.738  72.849 117.057  0.00  0.00     0.006 C 
ENDBRANCH   8   9
BRANCH   8  11
ATOM     11  C   LIG d   1      -5.170  74.579 114.139  0.00  0.00     0.028 C 
ATOM     12  C   LIG d   1      -5.840  75.839 113.568  0.00  0.00     0.006 C 
ENDBRANCH   8  11
ENDBRANCH   7   8
ENDBRANCH   1   7
BRANCH   6  13
ATOM     13  N   LIG d   1      -1.602  76.401 116.012  0.00  0.00    -0.311 N 
ATOM     14  C   LIG d   1      -0.784  76.222 114.977  0.00  0.00     0.210 C 
ATOM     15  C   LIG d   1       0.619  75.724 115.340  0.00  0.00     0.109 C 
ATOM     16  O   LIG d   1      -1.076  76.458 113.795  0.00  0.00    -0.276 OA
ATOM     17  H   LIG d   1      -1.272  76.215 116.939  0.00  0.00     0.149 HD
ENDBRANCH   6  13
BRANCH   5  18
ATOM     18  N   LIG d   1      -2.445  79.203 115.133  0.00  0.00     0.381 N 
ATOM     19  H   LIG d   1      -2.574  80.172 115.343  0.00  0.00    -0.090 HD
ATOM     20  H   LIG d   1      -2.829  79.023 114.222  0.00  0.00    -0.090 HD
ATOM     21  H   LIG d   1      -1.474  78.980 115.142  0.00  0.00    -0.090 HD
ENDBRANCH   5  18
BRANCH   3  22
ATOM     22  C   LIG d   1      -6.615  78.493 117.379  0.00  0.00     0.382 C 
ATOM     23  O   LIG d   1      -7.391  77.787 118.067  0.00  0.00    -0.241 OA
ATOM     24  O   LIG d   1      -6.917  79.676 117.135  0.00  0.00    -0.241 OA
ENDBRANCH   3  22
TORSDOF 7
ENDMDL
MODEL 4
REMARK VINA RESULT:      -4.9      3.675      6.027
REMARK  7 active torsions:
REMARK  status: ('A' for Active; 'I' for Inactive)
REMARK    1  A    between atoms: C_2  and  C_3 
REMARK    2  A    between atoms: C_3  and  O_6 
REMARK    3  A    between atoms: C_3  and  C_4 
REMARK    4  A    between atoms: C_7  and  O_6 
REMARK    5  A    between atoms: C_9  and  C_10 
REMARK    6  A    between atoms: N_15  and  C_14 
REMARK    7  A    between atoms: N_20  and  C_19 
REMARK       I    between atoms: C_22  and  N_20 
ROOT
ATOM      1  C   LIG d   1       3.796  87.651 115.566  0.00  0.00     0.161 C 
ATOM      2  C   LIG d   1       2.852  87.283 114.592  0.00  0.00     0.016 C 
ATOM      3  C   LIG d   1       3.031  87.514 113.209  0.00  0.00     0.038 C 
ATOM      4  C   LIG d   1       4.241  87.996 112.688  0.00  0.00     0.028 C 
ATOM      5  C   LIG d   1       5.028  88.851 113.677  0.00  0.00    -0.047 C 
ATOM      6  C   LIG d   1       5.169  88.077 115.007  0.00  0.00     0.091 C 
ENDROOT
BRANCH   1   7
ATOM      7  O   LIG d   1       3.953  86.584 116.522  0.00  0.00    -0.368 OA
BRANCH   7   8
ATOM      8  C   LIG d   1       4.062  85.247 115.973  0.00  0.00     0.119 C 
BRANCH   8   9
ATOM      9  C   LIG d   1       2.996  84.375 116.664  0.00  0.00     0.028 C 
ATOM     10  C   LIG d   1       1.900  83.908 115.691  0.00  0.00     0.006 C 
ENDBRANCH   8   9
BRANCH   8  11
ATOM     11  C   LIG d   1       5.405  84.605 116.332  0.00  0.00     0.028 C 
ATOM     12  C   LIG d   1       5.255  83.381 117.248  0.00  0.00     0.006 C 
ENDBRANCH   8  11
ENDBRANCH   7   8
ENDBRANCH   1   7
BRANCH   6  13
ATOM     13  N   LIG d   1       5.854  88.875 116.057  0.00  0.00    -0.311 N 
ATOM     14  C   LIG d   1       5.387  90.035 116.518  0.00  0.00     0.210 C 
ATOM     15  C   LIG d   1       6.258  90.704 117.586  0.00  0.00     0.109 C 
ATOM     16  O   LIG d   1       4.318  90.556 116.167  0.00  0.00    -0.276 OA
ATOM     17  H   LIG d   1       6.713  88.510 116.421  0.00  0.00     0.149 HD
ENDBRANCH   6  13
BRANCH   5  18
ATOM     18  N   LIG d   1       6.326  89.171 113.054  0.00  0.00     0.381 N 
ATOM     19  H   LIG d   1       6.617  90.088 113.328  0.00  0.00    -0.090 HD
ATOM     20  H   LIG d   1       6.219  89.160 112.055  0.00  0.00    -0.090 HD
ATOM     21  H   LIG d   1       7.011  88.502 113.329  0.00  0.00    -0.090 HD
ENDBRANCH   5  18
BRANCH   3  22
ATOM     22  C   LIG d   1       1.977  87.299 112.335  0.00  0.00     0.382 C 
ATOM     23  O   LIG d   1       0.886  86.852 112.765  0.00  0.00    -0.241 OA
ATOM     24  O   LIG d   1       2.117  87.505 111.114  0.00  0.00    -0.241 OA
ENDBRANCH   3  22
TORSDOF 7
ENDMDL
MODEL 5
REMARK VINA RESULT:      -4.9      4.569      7.021
REMARK  7 active torsions:
REMARK  status: ('A' for Active; 'I' for Inactive)
REMARK    1  A    between atoms: C_2  and  C_3 
REMARK    2  A    between atoms: C_3  and  O_6 
REMARK    3  A    between atoms: C_3  and  C_4 
REMARK    4  A    between atoms: C_7  and  O_6 
REMARK    5  A    between atoms: C_9  and  C_10 
REMARK    6  A    between atoms: N_15  and  C_14 
REMARK    7  A    between atoms: N_20  and  C_19 
REMARK       I    between atoms: C_22  and  N_20 
ROOT
ATOM      1  C   LIG d   1       3.359  88.314 115.462  0.00  0.00     0.161 C 
ATOM      2  C   LIG d   1       2.566  87.718 114.468  0.00  0.00     0.016 C 
ATOM      3  C   LIG d   1       2.962  87.615 113.114  0.00  0.00     0.038 C 
ATOM      4  C   LIG d   1       4.251  87.969 112.690  0.00  0.00     0.028 C 
ATOM      5  C   LIG d   1       4.902  89.040 113.559  0.00  0.00    -0.047 C 
ATOM      6  C   LIG d   1       4.814  88.606 115.040  0.00  0.00     0.091 C 
ENDROOT
BRANCH   1   7
ATOM      7  O   LIG d   1       3.336  87.506 116.655  0.00  0.00    -0.368 OA
BRANCH   7   8
ATOM      8  C   LIG d   1       2.739  88.116 117.827  0.00  0.00     0.119 C 
BRANCH   8   9
ATOM      9  C   LIG d   1       1.605  87.188 118.304  0.00  0.00     0.028 C 
ATOM     10  C   LIG d   1       0.332  87.332 117.453  0.00  0.00     0.006 C 
ENDBRANCH   8   9
BRANCH   8  11
ATOM     11  C   LIG d   1       2.059  89.443 117.478  0.00  0.00     0.028 C 
ATOM     12  C   LIG d   1       2.597  90.623 118.304  0.00  0.00     0.006 C 
ENDBRANCH   8  11
ENDBRANCH   7   8
ENDBRANCH   1   7
BRANCH   6  13
ATOM     13  N   LIG d   1       5.353  89.636 115.966  0.00  0.00    -0.311 N 
ATOM     14  C   LIG d   1       6.191  89.359 116.963  0.00  0.00     0.210 C 
ATOM     15  C   LIG d   1       6.609  90.565 117.810  0.00  0.00     0.109 C 
ATOM     16  O   LIG d   1       6.653  88.234 117.207  0.00  0.00    -0.276 OA
ATOM     17  H   LIG d   1       5.055  90.581 115.820  0.00  0.00     0.149 HD
ENDBRANCH   6  13
BRANCH   5  18
ATOM     18  N   LIG d   1       6.290  89.213 113.089  0.00  0.00     0.381 N 
ATOM     19  H   LIG d   1       6.708  89.997 113.548  0.00  0.00    -0.090 HD
ATOM     20  H   LIG d   1       6.277  89.395 112.101  0.00  0.00    -0.090 HD
ATOM     21  H   LIG d   1       6.818  88.389 113.275  0.00  0.00    -0.090 HD
ENDBRANCH   5  18
BRANCH   3  22
ATOM     22  C   LIG d   1       2.048  87.191 112.162  0.00  0.00     0.382 C 
ATOM     23  O   LIG d   1       2.379  87.145 110.952  0.00  0.00    -0.241 OA
ATOM     24  O   LIG d   1       0.884  86.895 112.490  0.00  0.00    -0.241 OA
ENDBRANCH   3  22
TORSDOF 7
ENDMDL
MODEL 6
REMARK VINA RESULT:      -4.7     26.880     28.066
REMARK  7 active torsions:
REMARK  status: ('A' for Active; 'I' for Inactive)
REMARK    1  A    between atoms: C_2  and  C_3 
REMARK    2  A    between atoms: C_3  and  O_6 
REMARK    3  A    between atoms: C_3  and  C_4 
REMARK    4  A    between atoms: C_7  and  O_6 
REMARK    5  A    between atoms: C_9  and  C_10 
REMARK    6  A    between atoms: N_15  and  C_14 
REMARK    7  A    between atoms: N_20  and  C_19 
REMARK       I    between atoms: C_22  and  N_20 
ROOT
ATOM      1  C   LIG d   1     -25.852  85.692 114.404  0.00  0.00     0.161 C 
ATOM      2  C   LIG d   1     -24.731  86.529 114.277  0.00  0.00     0.016 C 
ATOM      3  C   LIG d   1     -23.422  86.046 114.050  0.00  0.00     0.038 C 
ATOM      4  C   LIG d   1     -23.167  84.692 113.782  0.00  0.00     0.028 C 
ATOM      5  C   LIG d   1     -24.193  83.749 114.400  0.00  0.00    -0.047 C 
ATOM      6  C   LIG d   1     -25.611  84.222 114.004  0.00  0.00     0.091 C 
ENDROOT
BRANCH   1   7
ATOM      7  O   LIG d   1     -26.957  86.240 113.658  0.00  0.00    -0.368 OA
BRANCH   7   8
ATOM      8  C   LIG d   1     -26.617  86.932 112.431  0.00  0.00     0.119 C 
BRANCH   8   9
ATOM      9  C   LIG d   1     -27.540  88.160 112.321  0.00  0.00     0.028 C 
ATOM     10  C   LIG d   1     -26.891  89.315 111.540  0.00  0.00     0.006 C 
ENDBRANCH   8   9
BRANCH   8  11
ATOM     11  C   LIG d   1     -26.934  86.075 111.202  0.00  0.00     0.028 C 
ATOM     12  C   LIG d   1     -28.413  85.666 111.126  0.00  0.00     0.006 C 
ENDBRANCH   8  11
ENDBRANCH   7   8
ENDBRANCH   1   7
BRANCH   6  13
ATOM     13  N   LIG d   1     -26.678  83.403 114.636  0.00  0.00    -0.311 N 
ATOM     14  C   LIG d   1     -27.570  82.699 113.942  0.00  0.00     0.210 C 
ATOM     15  C   LIG d   1     -28.597  81.941 114.789  0.00  0.00     0.109 C 
ATOM     16  O   LIG d   1     -27.589  82.605 112.705  0.00  0.00    -0.276 OA
ATOM     17  H   LIG d   1     -26.717  83.397 115.637  0.00  0.00     0.149 HD
ENDBRANCH   6  13
BRANCH   5  18
ATOM     18  N   LIG d   1     -23.886  82.385 113.928  0.00  0.00     0.381 N 
ATOM     19  H   LIG d   1     -22.930  82.166 114.126  0.00  0.00    -0.090 HD
ATOM     20  H   LIG d   1     -24.018  82.348 112.933  0.00  0.00    -0.090 HD
ATOM     21  H   LIG d   1     -24.485  81.727 114.375  0.00  0.00    -0.090 HD
ENDBRANCH   5  18
BRANCH   3  22
ATOM     22  C   LIG d   1     -22.345  86.916 114.129  0.00  0.00     0.382 C 
ATOM     23  O   LIG d   1     -22.395  87.907 114.896  0.00  0.00    -0.241 OA
ATOM     24  O   LIG d   1     -21.342  86.746 113.410  0.00  0.00    -0.241 OA
ENDBRANCH   3  22
TORSDOF 7
ENDMDL
MODEL 7
REMARK VINA RESULT:      -4.7      8.170     11.859
REMARK  7 active torsions:
REMARK  status: ('A' for Active; 'I' for Inactive)
REMARK    1  A    between atoms: C_2  and  C_3 
REMARK    2  A    between atoms: C_3  and  O_6 
REMARK    3  A    between atoms: C_3  and  C_4 
REMARK    4  A    between atoms: C_7  and  O_6 
REMARK    5  A    between atoms: C_9  and  C_10 
REMARK    6  A    between atoms: N_15  and  C_14 
REMARK    7  A    between atoms: N_20  and  C_19 
REMARK       I    between atoms: C_22  and  N_20 
ROOT
ATOM      1  C   LIG d   1      -3.332  75.535 115.702  0.00  0.00     0.161 C 
ATOM      2  C   LIG d   1      -4.069  74.452 116.210  0.00  0.00     0.016 C 
ATOM      3  C   LIG d   1      -5.324  74.055 115.694  0.00  0.00     0.038 C 
ATOM      4  C   LIG d   1      -5.860  74.623 114.529  0.00  0.00     0.028 C 
ATOM      5  C   LIG d   1      -5.392  76.053 114.282  0.00  0.00    -0.047 C 
ATOM      6  C   LIG d   1      -3.849  76.096 114.361  0.00  0.00     0.091 C 
ENDROOT
BRANCH   1   7
ATOM      7  O   LIG d   1      -1.942  75.170 115.590  0.00  0.00    -0.368 OA
BRANCH   7   8
ATOM      8  C   LIG d   1      -1.140  75.339 116.785  0.00  0.00     0.119 C 
BRANCH   8   9
ATOM      9  C   LIG d   1      -0.708  76.817 116.847  0.00  0.00     0.028 C 
ATOM     10  C   LIG d   1       0.050  77.260 115.585  0.00  0.00     0.006 C 
ENDBRANCH   8   9
BRANCH   8  11
ATOM     11  C   LIG d   1       0.163  74.539 116.699  0.00  0.00     0.028 C 
ATOM     12  C   LIG d   1       0.557  73.897 118.039  0.00  0.00     0.006 C 
ENDBRANCH   8  11
ENDBRANCH   7   8
ENDBRANCH   1   7
BRANCH   6  13
ATOM     13  N   LIG d   1      -3.312  77.474 114.214  0.00  0.00    -0.311 N 
ATOM     14  C   LIG d   1      -2.845  77.961 113.065  0.00  0.00     0.210 C 
ATOM     15  C   LIG d   1      -2.320  79.398 113.137  0.00  0.00     0.109 C 
ATOM     16  O   LIG d   1      -2.846  77.350 111.986  0.00  0.00    -0.276 OA
ATOM     17  H   LIG d   1      -3.303  78.050 115.033  0.00  0.00     0.149 HD
ENDBRANCH   6  13
BRANCH   5  18
ATOM     18  N   LIG d   1      -5.915  76.473 112.968  0.00  0.00     0.381 N 
ATOM     19  H   LIG d   1      -6.908  76.348 112.943  0.00  0.00    -0.090 HD
ATOM     20  H   LIG d   1      -5.507  75.894 112.255  0.00  0.00    -0.090 HD
ATOM     21  H   LIG d   1      -5.689  77.428 112.800  0.00  0.00    -0.090 HD
ENDBRANCH   5  18
BRANCH   3  22
ATOM     22  C   LIG d   1      -6.075  73.105 116.369  0.00  0.00     0.382 C 
ATOM     23  O   LIG d   1      -6.003  71.897 116.037  0.00  0.00    -0.241 OA
ATOM     24  O   LIG d   1      -6.856  73.446 117.277  0.00  0.00    -0.241 OA
ENDBRANCH   3  22
TORSDOF 7
ENDMDL
MODEL 8
REMARK VINA RESULT:      -4.7      7.287      9.465
REMARK  7 active torsions:
REMARK  status: ('A' for Active; 'I' for Inactive)
REMARK    1  A    between atoms: C_2  and  C_3 
REMARK    2  A    between atoms: C_3  and  O_6 
REMARK    3  A    between atoms: C_3  and  C_4 
REMARK    4  A    between atoms: C_7  and  O_6 
REMARK    5  A    between atoms: C_9  and  C_10 
REMARK    6  A    between atoms: N_15  and  C_14 
REMARK    7  A    between atoms: N_20  and  C_19 
REMARK       I    between atoms: C_22  and  N_20 
ROOT
ATOM      1  C   LIG d   1      -2.729  77.531 115.758  0.00  0.00     0.161 C 
ATOM      2  C   LIG d   1      -2.993  78.508 114.783  0.00  0.00     0.016 C 
ATOM      3  C   LIG d   1      -2.328  78.564 113.537  0.00  0.00     0.038 C 
ATOM      4  C   LIG d   1      -1.454  77.550 113.117  0.00  0.00     0.028 C 
ATOM      5  C   LIG d   1      -0.778  76.817 114.271  0.00  0.00    -0.047 C 
ATOM      6  C   LIG d   1      -1.860  76.352 115.273  0.00  0.00     0.091 C 
ENDROOT
BRANCH   1   7
ATOM      7  O   LIG d   1      -3.968  77.045 116.311  0.00  0.00    -0.368 OA
BRANCH   7   8
ATOM      8  C   LIG d   1      -5.134  77.156 115.458  0.00  0.00     0.119 C 
BRANCH   8   9
ATOM      9  C   LIG d   1      -6.338  77.489 116.360  0.00  0.00     0.028 C 
ATOM     10  C   LIG d   1      -6.171  78.832 117.091  0.00  0.00     0.006 C 
ENDBRANCH   8   9
BRANCH   8  11
ATOM     11  C   LIG d   1      -5.476  75.814 114.803  0.00  0.00     0.028 C 
ATOM     12  C   LIG d   1      -6.122  75.974 113.418  0.00  0.00     0.006 C 
ENDBRANCH   8  11
ENDBRANCH   7   8
ENDBRANCH   1   7
BRANCH   6  13
ATOM     13  N   LIG d   1      -1.277  75.699 116.474  0.00  0.00    -0.311 N 
ATOM     14  C   LIG d   1      -1.820  74.638 117.067  0.00  0.00     0.210 C 
ATOM     15  C   LIG d   1      -1.069  74.134 118.303  0.00  0.00     0.109 C 
ATOM     16  O   LIG d   1      -2.834  74.047 116.668  0.00  0.00    -0.276 OA
ATOM     17  H   LIG d   1      -0.436  76.096 116.845  0.00  0.00     0.149 HD
ENDBRANCH   6  13
BRANCH   5  18
ATOM     18  N   LIG d   1      -0.004  75.700 113.696  0.00  0.00     0.381 N 
ATOM     19  H   LIG d   1       0.294  75.935 112.770  0.00  0.00    -0.090 HD
ATOM     20  H   LIG d   1      -0.595  74.890 113.641  0.00  0.00    -0.090 HD
ATOM     21  H   LIG d   1       0.788  75.504 114.268  0.00  0.00    -0.090 HD
ENDBRANCH   5  18
BRANCH   3  22
ATOM     22  C   LIG d   1      -2.504  79.665 112.713  0.00  0.00     0.382 C 
ATOM     23  O   LIG d   1      -3.353  80.540 113.009  0.00  0.00    -0.241 OA
ATOM     24  O   LIG d   1      -1.856  79.772 111.654  0.00  0.00    -0.241 OA
ENDBRANCH   3  22
TORSDOF 7
ENDMDL
MODEL 9
REMARK VINA RESULT:      -4.3      5.936      8.778
REMARK  7 active torsions:
REMARK  status: ('A' for Active; 'I' for Inactive)
REMARK    1  A    between atoms: C_2  and  C_3 
REMARK    2  A    between atoms: C_3  and  O_6 
REMARK    3  A    between atoms: C_3  and  C_4 
REMARK    4  A    between atoms: C_7  and  O_6 
REMARK    5  A    between atoms: C_9  and  C_10 
REMARK    6  A    between atoms: N_15  and  C_14 
REMARK    7  A    between atoms: N_20  and  C_19 
REMARK       I    between atoms: C_22  and  N_20 
ROOT
ATOM      1  C   LIG d   1      -1.651  77.756 114.444  0.00  0.00     0.161 C 
ATOM      2  C   LIG d   1      -0.842  78.795 113.954  0.00  0.00     0.016 C 
ATOM      3  C   LIG d   1      -1.069  79.440 112.716  0.00  0.00     0.038 C 
ATOM      4  C   LIG d   1      -2.217  79.189 111.949  0.00  0.00     0.028 C 
ATOM      5  C   LIG d   1      -2.792  77.792 112.158  0.00  0.00    -0.047 C 
ATOM      6  C   LIG d   1      -2.971  77.545 113.674  0.00  0.00     0.091 C 
ENDROOT
BRANCH   1   7
ATOM      7  O   LIG d   1      -1.916  77.963 115.846  0.00  0.00    -0.368 OA
BRANCH   7   8
ATOM      8  C   LIG d   1      -1.323  77.004 116.755  0.00  0.00     0.119 C 
BRANCH   8   9
ATOM      9  C   LIG d   1      -0.423  76.070 115.922  0.00  0.00     0.028 C 
ATOM     10  C   LIG d   1       1.062  76.196 116.299  0.00  0.00     0.006 C 
ENDBRANCH   8   9
BRANCH   8  11
ATOM     11  C   LIG d   1      -2.386  76.093 117.377  0.00  0.00     0.028 C 
ATOM     12  C   LIG d   1      -2.201  74.615 116.997  0.00  0.00     0.006 C 
ENDBRANCH   8  11
ENDBRANCH   7   8
ENDBRANCH   1   7
BRANCH   6  13
ATOM     13  N   LIG d   1      -3.451  76.170 113.971  0.00  0.00    -0.311 N 
ATOM     14  C   LIG d   1      -4.737  75.858 114.117  0.00  0.00     0.210 C 
ATOM     15  C   LIG d   1      -5.013  74.386 114.440  0.00  0.00     0.109 C 
ATOM     16  O   LIG d   1      -5.678  76.654 113.977  0.00  0.00    -0.276 OA
ATOM     17  H   LIG d   1      -2.756  75.456 114.069  0.00  0.00     0.149 HD
ENDBRANCH   6  13
BRANCH   5  18
ATOM     18  N   LIG d   1      -4.059  77.715 111.406  0.00  0.00     0.381 N 
ATOM     19  H   LIG d   1      -3.869  77.698 110.424  0.00  0.00    -0.090 HD
ATOM     20  H   LIG d   1      -4.607  78.533 111.607  0.00  0.00    -0.090 HD
ATOM     21  H   LIG d   1      -4.562  76.897 111.669  0.00  0.00    -0.090 HD
ENDBRANCH   5  18
BRANCH   3  22
ATOM     22  C   LIG d   1      -0.121  80.318 112.215  0.00  0.00     0.382 C 
ATOM     23  O   LIG d   1       0.800  80.737 112.957  0.00  0.00    -0.241 OA
ATOM     24  O   LIG d   1      -0.199  80.731 111.043  0.00  0.00    -0.241 OA
ENDBRANCH   3  22
TORSDOF 7
ENDMDL
