MODEL 1
REMARK VINA RESULT:      -5.8      0.000      0.000
REMARK  7 active torsions:
REMARK  status: ('A' for Active; 'I' for Inactive)
REMARK    1  A    between atoms: C_2  and  C_3 
REMARK    2  A    between atoms: C_3  and  O_6 
REMARK    3  A    between atoms: C_3  and  C_4 
REMARK    4  A    between atoms: C_7  and  O_6 
REMARK    5  A    between atoms: C_9  and  C_10 
REMARK    6  A    between atoms: N_15  and  C_14 
REMARK    7  A    between atoms: N_20  and  C_19 
REMARK       I    between atoms: C_22  and  N_20 
ROOT
ATOM      1  C   LIG d   1       3.690  85.751 111.352  0.00  0.00     0.161 C 
ATOM      2  C   LIG d   1       4.885  86.265 111.884  0.00  0.00     0.016 C 
ATOM      3  C   LIG d   1       4.954  87.475 112.612  0.00  0.00     0.038 C 
ATOM      4  C   LIG d   1       3.802  88.180 112.990  0.00  0.00     0.028 C 
ATOM      5  C   LIG d   1       2.624  87.966 112.046  0.00  0.00    -0.047 C 
ATOM      6  C   LIG d   1       2.407  86.449 111.849  0.00  0.00     0.091 C 
ENDROOT
BRANCH   1   7
ATOM      7  O   LIG d   1       3.617  84.332 111.598  0.00  0.00    -0.368 OA
BRANCH   7   8
ATOM      8  C   LIG d   1       3.783  83.475 110.442  0.00  0.00     0.119 C 
BRANCH   8   9
ATOM      9  C   LIG d   1       2.567  82.531 110.387  0.00  0.00     0.028 C 
ATOM     10  C   LIG d   1       1.717  82.592 111.668  0.00  0.00     0.006 C 
ENDBRANCH   8   9
BRANCH   8  11
ATOM     11  C   LIG d   1       5.001  82.559 110.599  0.00  0.00     0.028 C 
ATOM     12  C   LIG d   1       5.527  82.508 112.042  0.00  0.00     0.006 C 
ENDBRANCH   8  11
ENDBRANCH   7   8
ENDBRANCH   1   7
BRANCH   6  13
ATOM     13  N   LIG d   1       1.327  86.152 110.873  0.00  0.00    -0.311 N 
ATOM     14  C   LIG d   1       0.044  86.033 111.213  0.00  0.00     0.210 C 
ATOM     15  C   LIG d   1      -0.904  85.705 110.055  0.00  0.00     0.109 C 
ATOM     16  O   LIG d   1      -0.403  86.200 112.358  0.00  0.00    -0.276 OA
ATOM     17  H   LIG d   1       1.596  86.033 109.916  0.00  0.00     0.149 HD
ENDBRANCH   6  13
BRANCH   5  18
ATOM     18  N   LIG d   1       1.454  88.646 112.633  0.00  0.00     0.381 N 
ATOM     19  H   LIG d   1       1.675  89.605 112.814  0.00  0.00    -0.090 HD
ATOM     20  H   LIG d   1       1.225  88.205 113.506  0.00  0.00    -0.090 HD
ATOM     21  H   LIG d   1       0.678  88.589 112.010  0.00  0.00    -0.090 HD
ENDBRANCH   5  18
BRANCH   3  22
ATOM     22  C   LIG d   1       6.191  88.012 112.936  0.00  0.00     0.382 C 
ATOM     23  O   LIG d   1       6.790  87.628 113.969  0.00  0.00    -0.241 OA
ATOM     24  O   LIG d   1       6.695  88.906 112.231  0.00  0.00    -0.241 OA
ENDBRANCH   3  22
TORSDOF 7
ENDMDL
MODEL 2
REMARK VINA RESULT:      -5.8      1.634      4.783
REMARK  7 active torsions:
REMARK  status: ('A' for Active; 'I' for Inactive)
REMARK    1  A    between atoms: C_2  and  C_3 
REMARK    2  A    between atoms: C_3  and  O_6 
REMARK    3  A    between atoms: C_3  and  C_4 
REMARK    4  A    between atoms: C_7  and  O_6 
REMARK    5  A    between atoms: C_9  and  C_10 
REMARK    6  A    between atoms: N_15  and  C_14 
REMARK    7  A    between atoms: N_20  and  C_19 
REMARK       I    between atoms: C_22  and  N_20 
ROOT
ATOM      1  C   LIG d   1       3.194  84.879 111.537  0.00  0.00     0.161 C 
ATOM      2  C   LIG d   1       1.947  84.542 110.984  0.00  0.00     0.016 C 
ATOM      3  C   LIG d   1       0.841  85.422 110.965  0.00  0.00     0.038 C 
ATOM      4  C   LIG d   1       0.952  86.762 111.365  0.00  0.00     0.028 C 
ATOM      5  C   LIG d   1       2.051  86.997 112.397  0.00  0.00    -0.047 C 
ATOM      6  C   LIG d   1       3.367  86.374 111.878  0.00  0.00     0.091 C 
ENDROOT
BRANCH   1   7
ATOM      7  O   LIG d   1       4.252  84.439 110.663  0.00  0.00    -0.368 OA
BRANCH   7   8
ATOM      8  C   LIG d   1       5.155  83.445 111.206  0.00  0.00     0.119 C 
BRANCH   8   9
ATOM      9  C   LIG d   1       5.546  82.497 110.055  0.00  0.00     0.028 C 
ATOM     10  C   LIG d   1       4.762  81.174 110.092  0.00  0.00     0.006 C 
ENDBRANCH   8   9
BRANCH   8  11
ATOM     11  C   LIG d   1       4.453  82.559 112.239  0.00  0.00     0.028 C 
ATOM     12  C   LIG d   1       5.098  82.643 113.632  0.00  0.00     0.006 C 
ENDBRANCH   8  11
ENDBRANCH   7   8
ENDBRANCH   1   7
BRANCH   6  13
ATOM     13  N   LIG d   1       4.474  86.485 112.864  0.00  0.00    -0.311 N 
ATOM     14  C   LIG d   1       5.256  87.558 112.971  0.00  0.00     0.210 C 
ATOM     15  C   LIG d   1       6.349  87.457 114.040  0.00  0.00     0.109 C 
ATOM     16  O   LIG d   1       5.127  88.596 112.305  0.00  0.00    -0.276 OA
ATOM     17  H   LIG d   1       4.628  85.700 113.467  0.00  0.00     0.149 HD
ENDBRANCH   6  13
BRANCH   5  18
ATOM     18  N   LIG d   1       2.148  88.451 112.621  0.00  0.00     0.381 N 
ATOM     19  H   LIG d   1       2.835  88.640 113.324  0.00  0.00    -0.090 HD
ATOM     20  H   LIG d   1       1.261  88.790 112.948  0.00  0.00    -0.090 HD
ATOM     21  H   LIG d   1       2.396  88.911 111.773  0.00  0.00    -0.090 HD
ENDBRANCH   5  18
BRANCH   3  22
ATOM     22  C   LIG d   1      -0.405  84.952 110.578  0.00  0.00     0.382 C 
ATOM     23  O   LIG d   1      -0.664  83.727 110.656  0.00  0.00    -0.241 OA
ATOM     24  O   LIG d   1      -1.257  85.731 110.111  0.00  0.00    -0.241 OA
ENDBRANCH   3  22
TORSDOF 7
ENDMDL
MODEL 3
REMARK VINA RESULT:      -5.6      1.695      4.915
REMARK  7 active torsions:
REMARK  status: ('A' for Active; 'I' for Inactive)
REMARK    1  A    between atoms: C_2  and  C_3 
REMARK    2  A    between atoms: C_3  and  O_6 
REMARK    3  A    between atoms: C_3  and  C_4 
REMARK    4  A    between atoms: C_7  and  O_6 
REMARK    5  A    between atoms: C_9  and  C_10 
REMARK    6  A    between atoms: N_15  and  C_14 
REMARK    7  A    between atoms: N_20  and  C_19 
REMARK       I    between atoms: C_22  and  N_20 
ROOT
ATOM      1  C   LIG d   1       3.006  84.780 112.542  0.00  0.00     0.161 C 
ATOM      2  C   LIG d   1       1.738  84.396 112.077  0.00  0.00     0.016 C 
ATOM      3  C   LIG d   1       0.708  85.317 111.777  0.00  0.00     0.038 C 
ATOM      4  C   LIG d   1       0.928  86.702 111.777  0.00  0.00     0.028 C 
ATOM      5  C   LIG d   1       2.040  87.138 112.725  0.00  0.00    -0.047 C 
ATOM      6  C   LIG d   1       3.302  86.291 112.442  0.00  0.00     0.091 C 
ENDROOT
BRANCH   1   7
ATOM      7  O   LIG d   1       4.026  84.024 111.859  0.00  0.00    -0.368 OA
BRANCH   7   8
ATOM      8  C   LIG d   1       4.375  82.747 112.448  0.00  0.00     0.119 C 
BRANCH   8   9
ATOM      9  C   LIG d   1       5.291  83.028 113.655  0.00  0.00     0.028 C 
ATOM     10  C   LIG d   1       4.751  82.413 114.957  0.00  0.00     0.006 C 
ENDBRANCH   8   9
BRANCH   8  11
ATOM     11  C   LIG d   1       5.217  81.902 111.488  0.00  0.00     0.028 C 
ATOM     12  C   LIG d   1       5.236  82.466 110.058  0.00  0.00     0.006 C 
ENDBRANCH   8  11
ENDBRANCH   7   8
ENDBRANCH   1   7
BRANCH   6  13
ATOM     13  N   LIG d   1       4.411  86.596 113.383  0.00  0.00    -0.311 N 
ATOM     14  C   LIG d   1       5.445  87.375 113.070  0.00  0.00     0.210 C 
ATOM     15  C   LIG d   1       6.488  87.543 114.179  0.00  0.00     0.109 C 
ATOM     16  O   LIG d   1       5.580  87.970 111.990  0.00  0.00    -0.276 OA
ATOM     17  H   LIG d   1       4.366  86.180 114.292  0.00  0.00     0.149 HD
ENDBRANCH   6  13
BRANCH   5  18
ATOM     18  N   LIG d   1       2.256  88.583 112.523  0.00  0.00     0.381 N 
ATOM     19  H   LIG d   1       3.032  88.890 113.075  0.00  0.00    -0.090 HD
ATOM     20  H   LIG d   1       1.437  89.080 112.827  0.00  0.00    -0.090 HD
ATOM     21  H   LIG d   1       2.430  88.771 111.560  0.00  0.00    -0.090 HD
ENDBRANCH   5  18
BRANCH   3  22
ATOM     22  C   LIG d   1      -0.572  84.853 111.510  0.00  0.00     0.382 C 
ATOM     23  O   LIG d   1      -1.197  84.203 112.382  0.00  0.00    -0.241 OA
ATOM     24  O   LIG d   1      -1.091  85.040 110.393  0.00  0.00    -0.241 OA
ENDBRANCH   3  22
TORSDOF 7
ENDMDL
MODEL 4
REMARK VINA RESULT:      -5.2      1.014      1.787
REMARK  7 active torsions:
REMARK  status: ('A' for Active; 'I' for Inactive)
REMARK    1  A    between atoms: C_2  and  C_3 
REMARK    2  A    between atoms: C_3  and  O_6 
REMARK    3  A    between atoms: C_3  and  C_4 
REMARK    4  A    between atoms: C_7  and  O_6 
REMARK    5  A    between atoms: C_9  and  C_10 
REMARK    6  A    between atoms: N_15  and  C_14 
REMARK    7  A    between atoms: N_20  and  C_19 
REMARK       I    between atoms: C_22  and  N_20 
ROOT
ATOM      1  C   LIG d   1       3.643  85.801 111.262  0.00  0.00     0.161 C 
ATOM      2  C   LIG d   1       4.844  86.313 111.781  0.00  0.00     0.016 C 
ATOM      3  C   LIG d   1       4.919  87.506 112.536  0.00  0.00     0.038 C 
ATOM      4  C   LIG d   1       3.770  88.194 112.953  0.00  0.00     0.028 C 
ATOM      5  C   LIG d   1       2.575  87.993 112.027  0.00  0.00    -0.047 C 
ATOM      6  C   LIG d   1       2.365  86.478 111.800  0.00  0.00     0.091 C 
ENDROOT
BRANCH   1   7
ATOM      7  O   LIG d   1       3.585  84.377 111.477  0.00  0.00    -0.368 OA
BRANCH   7   8
ATOM      8  C   LIG d   1       3.207  83.949 112.808  0.00  0.00     0.119 C 
BRANCH   8   9
ATOM      9  C   LIG d   1       4.423  83.233 113.427  0.00  0.00     0.028 C 
ATOM     10  C   LIG d   1       4.101  82.605 114.794  0.00  0.00     0.006 C 
ENDBRANCH   8   9
BRANCH   8  11
ATOM     11  C   LIG d   1       2.097  82.895 112.760  0.00  0.00     0.028 C 
ATOM     12  C   LIG d   1       1.624  82.593 111.330  0.00  0.00     0.006 C 
ENDBRANCH   8  11
ENDBRANCH   7   8
ENDBRANCH   1   7
BRANCH   6  13
ATOM     13  N   LIG d   1       1.268  86.195 110.839  0.00  0.00    -0.311 N 
ATOM     14  C   LIG d   1      -0.005  86.050 111.202  0.00  0.00     0.210 C 
ATOM     15  C   LIG d   1      -0.974  85.743 110.055  0.00  0.00     0.109 C 
ATOM     16  O   LIG d   1      -0.430  86.179 112.360  0.00  0.00    -0.276 OA
ATOM     17  H   LIG d   1       1.518  86.106 109.873  0.00  0.00     0.149 HD
ENDBRANCH   6  13
BRANCH   5  18
ATOM     18  N   LIG d   1       1.411  88.650 112.652  0.00  0.00     0.381 N 
ATOM     19  H   LIG d   1       1.548  89.641 112.663  0.00  0.00    -0.090 HD
ATOM     20  H   LIG d   1       1.330  88.332 113.602  0.00  0.00    -0.090 HD
ATOM     21  H   LIG d   1       0.582  88.427 112.147  0.00  0.00    -0.090 HD
ENDBRANCH   5  18
BRANCH   3  22
ATOM     22  C   LIG d   1       6.158  88.045 112.847  0.00  0.00     0.382 C 
ATOM     23  O   LIG d   1       6.776  87.650 113.865  0.00  0.00    -0.241 OA
ATOM     24  O   LIG d   1       6.646  88.953 112.148  0.00  0.00    -0.241 OA
ENDBRANCH   3  22
TORSDOF 7
ENDMDL
MODEL 5
REMARK VINA RESULT:      -5.1     25.989     28.899
REMARK  7 active torsions:
REMARK  status: ('A' for Active; 'I' for Inactive)
REMARK    1  A    between atoms: C_2  and  C_3 
REMARK    2  A    between atoms: C_3  and  O_6 
REMARK    3  A    between atoms: C_3  and  C_4 
REMARK    4  A    between atoms: C_7  and  O_6 
REMARK    5  A    between atoms: C_9  and  C_10 
REMARK    6  A    between atoms: N_15  and  C_14 
REMARK    7  A    between atoms: N_20  and  C_19 
REMARK       I    between atoms: C_22  and  N_20 
ROOT
ATOM      1  C   LIG d   1     -16.297  65.076 114.214  0.00  0.00     0.161 C 
ATOM      2  C   LIG d   1     -15.811  66.070 113.349  0.00  0.00     0.016 C 
ATOM      3  C   LIG d   1     -15.174  67.250 113.798  0.00  0.00     0.038 C 
ATOM      4  C   LIG d   1     -14.844  67.446 115.147  0.00  0.00     0.028 C 
ATOM      5  C   LIG d   1     -15.764  66.704 116.111  0.00  0.00    -0.047 C 
ATOM      6  C   LIG d   1     -15.846  65.221 115.683  0.00  0.00     0.091 C 
ENDROOT
BRANCH   1   7
ATOM      7  O   LIG d   1     -15.946  63.773 113.708  0.00  0.00    -0.368 OA
BRANCH   7   8
ATOM      8  C   LIG d   1     -17.044  62.959 113.228  0.00  0.00     0.119 C 
BRANCH   8   9
ATOM      9  C   LIG d   1     -18.325  63.810 113.317  0.00  0.00     0.028 C 
ATOM     10  C   LIG d   1     -19.034  63.947 111.960  0.00  0.00     0.006 C 
ENDBRANCH   8   9
BRANCH   8  11
ATOM     11  C   LIG d   1     -17.289  61.758 114.147  0.00  0.00     0.028 C 
ATOM     12  C   LIG d   1     -17.658  60.482 113.373  0.00  0.00     0.006 C 
ENDBRANCH   8  11
ENDBRANCH   7   8
ENDBRANCH   1   7
BRANCH   6  13
ATOM     13  N   LIG d   1     -16.793  64.440 116.522  0.00  0.00    -0.311 N 
ATOM     14  C   LIG d   1     -16.430  63.382 117.246  0.00  0.00     0.210 C 
ATOM     15  C   LIG d   1     -17.566  62.711 118.023  0.00  0.00     0.109 C 
ATOM     16  O   LIG d   1     -15.270  62.956 117.342  0.00  0.00    -0.276 OA
ATOM     17  H   LIG d   1     -17.749  64.736 116.527  0.00  0.00     0.149 HD
ENDBRANCH   6  13
BRANCH   5  18
ATOM     18  N   LIG d   1     -15.224  66.884 117.471  0.00  0.00     0.381 N 
ATOM     19  H   LIG d   1     -14.257  67.136 117.421  0.00  0.00    -0.090 HD
ATOM     20  H   LIG d   1     -15.297  66.013 117.968  0.00  0.00    -0.090 HD
ATOM     21  H   LIG d   1     -15.735  67.592 117.950  0.00  0.00    -0.090 HD
ENDBRANCH   5  18
BRANCH   3  22
ATOM     22  C   LIG d   1     -14.898  68.267 112.898  0.00  0.00     0.382 C 
ATOM     23  O   LIG d   1     -15.332  68.200 111.723  0.00  0.00    -0.241 OA
ATOM     24  O   LIG d   1     -14.182  69.230 113.233  0.00  0.00    -0.241 OA
ENDBRANCH   3  22
TORSDOF 7
ENDMDL
MODEL 6
REMARK VINA RESULT:      -4.9     26.012     29.059
REMARK  7 active torsions:
REMARK  status: ('A' for Active; 'I' for Inactive)
REMARK    1  A    between atoms: C_2  and  C_3 
REMARK    2  A    between atoms: C_3  and  O_6 
REMARK    3  A    between atoms: C_3  and  C_4 
REMARK    4  A    between atoms: C_7  and  O_6 
REMARK    5  A    between atoms: C_9  and  C_10 
REMARK    6  A    between atoms: N_15  and  C_14 
REMARK    7  A    between atoms: N_20  and  C_19 
REMARK       I    between atoms: C_22  and  N_20 
ROOT
ATOM      1  C   LIG d   1     -25.891  85.412 113.694  0.00  0.00     0.161 C 
ATOM      2  C   LIG d   1     -24.832  86.330 113.798  0.00  0.00     0.016 C 
ATOM      3  C   LIG d   1     -23.473  85.972 113.644  0.00  0.00     0.038 C 
ATOM      4  C   LIG d   1     -23.088  84.690 113.224  0.00  0.00     0.028 C 
ATOM      5  C   LIG d   1     -24.089  83.603 113.599  0.00  0.00    -0.047 C 
ATOM      6  C   LIG d   1     -25.497  84.033 113.126  0.00  0.00     0.091 C 
ENDROOT
BRANCH   1   7
ATOM      7  O   LIG d   1     -26.961  85.987 112.918  0.00  0.00    -0.368 OA
BRANCH   7   8
ATOM      8  C   LIG d   1     -26.571  86.956 111.914  0.00  0.00     0.119 C 
BRANCH   8   9
ATOM      9  C   LIG d   1     -27.377  88.243 112.175  0.00  0.00     0.028 C 
ATOM     10  C   LIG d   1     -27.181  89.294 111.070  0.00  0.00     0.006 C 
ENDBRANCH   8   9
BRANCH   8  11
ATOM     11  C   LIG d   1     -26.980  86.499 110.510  0.00  0.00     0.028 C 
ATOM     12  C   LIG d   1     -28.324  85.754 110.494  0.00  0.00     0.006 C 
ENDBRANCH   8  11
ENDBRANCH   7   8
ENDBRANCH   1   7
BRANCH   6  13
ATOM     13  N   LIG d   1     -26.550  83.064 113.528  0.00  0.00    -0.311 N 
ATOM     14  C   LIG d   1     -26.956  82.059 112.753  0.00  0.00     0.210 C 
ATOM     15  C   LIG d   1     -28.067  81.190 113.350  0.00  0.00     0.109 C 
ATOM     16  O   LIG d   1     -26.479  81.786 111.641  0.00  0.00    -0.276 OA
ATOM     17  H   LIG d   1     -26.969  83.193 114.428  0.00  0.00     0.149 HD
ENDBRANCH   6  13
BRANCH   5  18
ATOM     18  N   LIG d   1     -23.632  82.344 112.981  0.00  0.00     0.381 N 
ATOM     19  H   LIG d   1     -23.536  81.637 113.684  0.00  0.00    -0.090 HD
ATOM     20  H   LIG d   1     -22.731  82.495 112.562  0.00  0.00    -0.090 HD
ATOM     21  H   LIG d   1     -24.283  82.047 112.288  0.00  0.00    -0.090 HD
ENDBRANCH   5  18
BRANCH   3  22
ATOM     22  C   LIG d   1     -22.481  86.890 113.951  0.00  0.00     0.382 C 
ATOM     23  O   LIG d   1     -22.675  87.746 114.848  0.00  0.00    -0.241 OA
ATOM     24  O   LIG d   1     -21.412  86.903 113.312  0.00  0.00    -0.241 OA
ENDBRANCH   3  22
TORSDOF 7
ENDMDL
MODEL 7
REMARK VINA RESULT:      -4.7      2.433      6.066
REMARK  7 active torsions:
REMARK  status: ('A' for Active; 'I' for Inactive)
REMARK    1  A    between atoms: C_2  and  C_3 
REMARK    2  A    between atoms: C_3  and  O_6 
REMARK    3  A    between atoms: C_3  and  C_4 
REMARK    4  A    between atoms: C_7  and  O_6 
REMARK    5  A    between atoms: C_9  and  C_10 
REMARK    6  A    between atoms: N_15  and  C_14 
REMARK    7  A    between atoms: N_20  and  C_19 
REMARK       I    between atoms: C_22  and  N_20 
ROOT
ATOM      1  C   LIG d   1       2.346  85.827 112.228  0.00  0.00     0.161 C 
ATOM      2  C   LIG d   1       1.065  86.344 111.974  0.00  0.00     0.016 C 
ATOM      3  C   LIG d   1      -0.052  85.535 111.660  0.00  0.00     0.038 C 
ATOM      4  C   LIG d   1       0.005  84.135 111.727  0.00  0.00     0.028 C 
ATOM      5  C   LIG d   1       1.401  83.573 111.485  0.00  0.00    -0.047 C 
ATOM      6  C   LIG d   1       2.402  84.297 112.414  0.00  0.00     0.091 C 
ENDROOT
BRANCH   1   7
ATOM      7  O   LIG d   1       2.924  86.492 113.369  0.00  0.00    -0.368 OA
BRANCH   7   8
ATOM      8  C   LIG d   1       3.466  87.814 113.129  0.00  0.00     0.119 C 
BRANCH   8   9
ATOM      9  C   LIG d   1       4.814  87.637 112.403  0.00  0.00     0.028 C 
ATOM     10  C   LIG d   1       5.899  87.042 113.316  0.00  0.00     0.006 C 
ENDBRANCH   8   9
BRANCH   8  11
ATOM     11  C   LIG d   1       3.804  88.525 114.443  0.00  0.00     0.028 C 
ATOM     12  C   LIG d   1       2.560  88.829 115.292  0.00  0.00     0.006 C 
ENDBRANCH   8  11
ENDBRANCH   7   8
ENDBRANCH   1   7
BRANCH   6  13
ATOM     13  N   LIG d   1       3.805  83.866 112.182  0.00  0.00    -0.311 N 
ATOM     14  C   LIG d   1       4.499  83.129 113.049  0.00  0.00     0.210 C 
ATOM     15  C   LIG d   1       5.936  82.813 112.623  0.00  0.00     0.109 C 
ATOM     16  O   LIG d   1       4.050  82.681 114.114  0.00  0.00    -0.276 OA
ATOM     17  H   LIG d   1       4.237  84.159 111.328  0.00  0.00     0.149 HD
ENDBRANCH   6  13
BRANCH   5  18
ATOM     18  N   LIG d   1       1.343  82.117 111.719  0.00  0.00     0.381 N 
ATOM     19  H   LIG d   1       0.574  81.724 111.214  0.00  0.00    -0.090 HD
ATOM     20  H   LIG d   1       1.194  81.952 112.699  0.00  0.00    -0.090 HD
ATOM     21  H   LIG d   1       2.195  81.691 111.429  0.00  0.00    -0.090 HD
ENDBRANCH   5  18
BRANCH   3  22
ATOM     22  C   LIG d   1      -1.231  86.127 111.235  0.00  0.00     0.382 C 
ATOM     23  O   LIG d   1      -1.947  86.756 112.051  0.00  0.00    -0.241 OA
ATOM     24  O   LIG d   1      -1.611  86.003 110.055  0.00  0.00    -0.241 OA
ENDBRANCH   3  22
TORSDOF 7
ENDMDL
MODEL 8
REMARK VINA RESULT:      -4.7      3.126      6.199
REMARK  7 active torsions:
REMARK  status: ('A' for Active; 'I' for Inactive)
REMARK    1  A    between atoms: C_2  and  C_3 
REMARK    2  A    between atoms: C_3  and  O_6 
REMARK    3  A    between atoms: C_3  and  C_4 
REMARK    4  A    between atoms: C_7  and  O_6 
REMARK    5  A    between atoms: C_9  and  C_10 
REMARK    6  A    between atoms: N_15  and  C_14 
REMARK    7  A    between atoms: N_20  and  C_19 
REMARK       I    between atoms: C_22  and  N_20 
ROOT
ATOM      1  C   LIG d   1       1.911  86.231 113.771  0.00  0.00     0.161 C 
ATOM      2  C   LIG d   1       0.755  85.565 113.330  0.00  0.00     0.016 C 
ATOM      3  C   LIG d   1       0.677  84.870 112.102  0.00  0.00     0.038 C 
ATOM      4  C   LIG d   1       1.805  84.665 111.294  0.00  0.00     0.028 C 
ATOM      5  C   LIG d   1       2.869  85.746 111.452  0.00  0.00    -0.047 C 
ATOM      6  C   LIG d   1       3.184  85.924 112.955  0.00  0.00     0.091 C 
ENDROOT
BRANCH   1   7
ATOM      7  O   LIG d   1       2.132  85.954 115.168  0.00  0.00    -0.368 OA
BRANCH   7   8
ATOM      8  C   LIG d   1       1.470  86.838 116.105  0.00  0.00     0.119 C 
BRANCH   8   9
ATOM      9  C   LIG d   1       2.505  87.881 116.568  0.00  0.00     0.028 C 
ATOM     10  C   LIG d   1       2.152  89.304 116.104  0.00  0.00     0.006 C 
ENDBRANCH   8   9
BRANCH   8  11
ATOM     11  C   LIG d   1       1.052  86.090 117.375  0.00  0.00     0.028 C 
ATOM     12  C   LIG d   1       1.059  84.564 117.198  0.00  0.00     0.006 C 
ENDBRANCH   8  11
ENDBRANCH   7   8
ENDBRANCH   1   7
BRANCH   6  13
ATOM     13  N   LIG d   1       4.154  87.021 113.204  0.00  0.00    -0.311 N 
ATOM     14  C   LIG d   1       3.900  88.300 112.931  0.00  0.00     0.210 C 
ATOM     15  C   LIG d   1       5.045  89.268 113.247  0.00  0.00     0.109 C 
ATOM     16  O   LIG d   1       2.824  88.729 112.487  0.00  0.00    -0.276 OA
ATOM     17  H   LIG d   1       5.041  86.767 113.592  0.00  0.00     0.149 HD
ENDBRANCH   6  13
BRANCH   5  18
ATOM     18  N   LIG d   1       4.043  85.335 110.659  0.00  0.00     0.381 N 
ATOM     19  H   LIG d   1       4.314  84.406 110.912  0.00  0.00    -0.090 HD
ATOM     20  H   LIG d   1       4.807  85.954 110.866  0.00  0.00    -0.090 HD
ATOM     21  H   LIG d   1       3.829  85.373 109.687  0.00  0.00    -0.090 HD
ENDBRANCH   5  18
BRANCH   3  22
ATOM     22  C   LIG d   1      -0.550  84.406 111.651  0.00  0.00     0.382 C 
ATOM     23  O   LIG d   1      -0.946  84.701 110.498  0.00  0.00    -0.241 OA
ATOM     24  O   LIG d   1      -1.284  83.734 112.399  0.00  0.00    -0.241 OA
ENDBRANCH   3  22
TORSDOF 7
ENDMDL
MODEL 9
REMARK VINA RESULT:      -4.5      3.221      4.591
REMARK  7 active torsions:
REMARK  status: ('A' for Active; 'I' for Inactive)
REMARK    1  A    between atoms: C_2  and  C_3 
REMARK    2  A    between atoms: C_3  and  O_6 
REMARK    3  A    between atoms: C_3  and  C_4 
REMARK    4  A    between atoms: C_7  and  O_6 
REMARK    5  A    between atoms: C_9  and  C_10 
REMARK    6  A    between atoms: N_15  and  C_14 
REMARK    7  A    between atoms: N_20  and  C_19 
REMARK       I    between atoms: C_22  and  N_20 
ROOT
ATOM      1  C   LIG d   1       3.596  86.159 114.240  0.00  0.00     0.161 C 
ATOM      2  C   LIG d   1       3.663  87.520 113.898  0.00  0.00     0.016 C 
ATOM      3  C   LIG d   1       4.735  88.364 114.270  0.00  0.00     0.038 C 
ATOM      4  C   LIG d   1       5.893  87.864 114.885  0.00  0.00     0.028 C 
ATOM      5  C   LIG d   1       5.648  86.597 115.698  0.00  0.00    -0.047 C 
ATOM      6  C   LIG d   1       4.901  85.571 114.814  0.00  0.00     0.091 C 
ENDROOT
BRANCH   1   7
ATOM      7  O   LIG d   1       3.158  85.390 113.102  0.00  0.00    -0.368 OA
BRANCH   7   8
ATOM      8  C   LIG d   1       4.195  84.963 112.185  0.00  0.00     0.119 C 
BRANCH   8   9
ATOM      9  C   LIG d   1       3.849  85.534 110.796  0.00  0.00     0.028 C 
ATOM     10  C   LIG d   1       2.534  84.963 110.238  0.00  0.00     0.006 C 
ENDBRANCH   8   9
BRANCH   8  11
ATOM     11  C   LIG d   1       4.193  83.442 112.010  0.00  0.00     0.028 C 
ATOM     12  C   LIG d   1       5.566  82.887 111.600  0.00  0.00     0.006 C 
ENDBRANCH   8  11
ENDBRANCH   7   8
ENDBRANCH   1   7
BRANCH   6  13
ATOM     13  N   LIG d   1       4.548  84.334 115.558  0.00  0.00    -0.311 N 
ATOM     14  C   LIG d   1       5.323  83.251 115.589  0.00  0.00     0.210 C 
ATOM     15  C   LIG d   1       4.762  82.077 116.398  0.00  0.00     0.109 C 
ATOM     16  O   LIG d   1       6.436  83.162 115.049  0.00  0.00    -0.276 OA
ATOM     17  H   LIG d   1       3.676  84.330 116.050  0.00  0.00     0.149 HD
ENDBRANCH   6  13
BRANCH   5  18
ATOM     18  N   LIG d   1       6.959  86.109 116.168  0.00  0.00     0.381 N 
ATOM     19  H   LIG d   1       7.690  86.542 115.641  0.00  0.00    -0.090 HD
ATOM     20  H   LIG d   1       7.008  85.117 116.020  0.00  0.00    -0.090 HD
ATOM     21  H   LIG d   1       7.071  86.314 117.136  0.00  0.00    -0.090 HD
ENDBRANCH   5  18
BRANCH   3  22
ATOM     22  C   LIG d   1       4.637  89.731 114.063  0.00  0.00     0.382 C 
ATOM     23  O   LIG d   1       4.794  90.204 112.911  0.00  0.00    -0.241 OA
ATOM     24  O   LIG d   1       4.438  90.502 115.021  0.00  0.00    -0.241 OA
ENDBRANCH   3  22
TORSDOF 7
ENDMDL
