MODEL 1
REMARK VINA RESULT:      -5.7      0.000      0.000
REMARK  7 active torsions:
REMARK  status: ('A' for Active; 'I' for Inactive)
REMARK    1  A    between atoms: C_2  and  C_3 
REMARK    2  A    between atoms: C_3  and  O_6 
REMARK    3  A    between atoms: C_3  and  C_4 
REMARK    4  A    between atoms: C_7  and  O_6 
REMARK    5  A    between atoms: C_9  and  C_10 
REMARK    6  A    between atoms: N_15  and  C_14 
REMARK    7  A    between atoms: N_20  and  C_19 
REMARK       I    between atoms: C_22  and  N_20 
ROOT
ATOM      1  C   LIG d   1       1.224  82.989 112.903  0.00  0.00     0.161 C 
ATOM      2  C   LIG d   1       2.358  82.824 112.090  0.00  0.00     0.016 C 
ATOM      3  C   LIG d   1       2.464  81.825 111.096  0.00  0.00     0.038 C 
ATOM      4  C   LIG d   1       1.377  81.012 110.742  0.00  0.00     0.028 C 
ATOM      5  C   LIG d   1       0.381  80.805 111.878  0.00  0.00    -0.047 C 
ATOM      6  C   LIG d   1      -0.014  82.183 112.456  0.00  0.00     0.091 C 
ENDROOT
BRANCH   1   7
ATOM      7  O   LIG d   1       0.899  84.389 113.010  0.00  0.00    -0.368 OA
BRANCH   7   8
ATOM      8  C   LIG d   1      -0.240  84.840 112.237  0.00  0.00     0.119 C 
BRANCH   8   9
ATOM      9  C   LIG d   1       0.289  85.330 110.875  0.00  0.00     0.028 C 
ATOM     10  C   LIG d   1      -0.583  86.443 110.272  0.00  0.00     0.006 C 
ENDBRANCH   8   9
BRANCH   8  11
ATOM     11  C   LIG d   1      -0.901  86.063 112.879  0.00  0.00     0.028 C 
ATOM     12  C   LIG d   1      -1.053  85.927 114.402  0.00  0.00     0.006 C 
ENDBRANCH   8  11
ENDBRANCH   7   8
ENDBRANCH   1   7
BRANCH   6  13
ATOM     13  N   LIG d   1      -0.922  82.068 113.627  0.00  0.00    -0.311 N 
ATOM     14  C   LIG d   1      -2.245  81.966 113.522  0.00  0.00     0.210 C 
ATOM     15  C   LIG d   1      -2.995  81.878 114.855  0.00  0.00     0.109 C 
ATOM     16  O   LIG d   1      -2.867  81.908 112.450  0.00  0.00    -0.276 OA
ATOM     17  H   LIG d   1      -0.498  82.075 114.535  0.00  0.00     0.149 HD
ENDBRANCH   6  13
BRANCH   5  18
ATOM     18  N   LIG d   1      -0.767  80.056 111.333  0.00  0.00     0.381 N 
ATOM     19  H   LIG d   1      -1.326  79.700 112.083  0.00  0.00    -0.090 HD
ATOM     20  H   LIG d   1      -0.424  79.278 110.798  0.00  0.00    -0.090 HD
ATOM     21  H   LIG d   1      -1.318  80.650 110.753  0.00  0.00    -0.090 HD
ENDBRANCH   5  18
BRANCH   3  22
ATOM     22  C   LIG d   1       3.682  81.604 110.471  0.00  0.00     0.382 C 
ATOM     23  O   LIG d   1       4.472  82.560 110.281  0.00  0.00    -0.241 OA
ATOM     24  O   LIG d   1       3.982  80.468 110.055  0.00  0.00    -0.241 OA
ENDBRANCH   3  22
TORSDOF 7
ENDMDL
MODEL 2
REMARK VINA RESULT:      -5.6      3.801      5.784
REMARK  7 active torsions:
REMARK  status: ('A' for Active; 'I' for Inactive)
REMARK    1  A    between atoms: C_2  and  C_3 
REMARK    2  A    between atoms: C_3  and  O_6 
REMARK    3  A    between atoms: C_3  and  C_4 
REMARK    4  A    between atoms: C_7  and  O_6 
REMARK    5  A    between atoms: C_9  and  C_10 
REMARK    6  A    between atoms: N_15  and  C_14 
REMARK    7  A    between atoms: N_20  and  C_19 
REMARK       I    between atoms: C_22  and  N_20 
ROOT
ATOM      1  C   LIG d   1       3.396  85.184 112.107  0.00  0.00     0.161 C 
ATOM      2  C   LIG d   1       4.042  86.428 112.006  0.00  0.00     0.016 C 
ATOM      3  C   LIG d   1       4.352  87.237 113.123  0.00  0.00     0.038 C 
ATOM      4  C   LIG d   1       4.172  86.784 114.439  0.00  0.00     0.028 C 
ATOM      5  C   LIG d   1       3.062  85.749 114.576  0.00  0.00    -0.047 C 
ATOM      6  C   LIG d   1       3.293  84.624 113.541  0.00  0.00     0.091 C 
ENDROOT
BRANCH   1   7
ATOM      7  O   LIG d   1       4.039  84.228 111.241  0.00  0.00    -0.368 OA
BRANCH   7   8
ATOM      8  C   LIG d   1       3.299  83.843 110.056  0.00  0.00     0.119 C 
BRANCH   8   9
ATOM      9  C   LIG d   1       1.977  84.635 110.058  0.00  0.00     0.028 C 
ATOM     10  C   LIG d   1       0.744  83.717 110.101  0.00  0.00     0.006 C 
ENDBRANCH   8   9
BRANCH   8  11
ATOM     11  C   LIG d   1       2.889  82.369 110.110  0.00  0.00     0.028 C 
ATOM     12  C   LIG d   1       4.094  81.417 110.182  0.00  0.00     0.006 C 
ENDBRANCH   8  11
ENDBRANCH   7   8
ENDBRANCH   1   7
BRANCH   6  13
ATOM     13  N   LIG d   1       2.204  83.612 113.551  0.00  0.00    -0.311 N 
ATOM     14  C   LIG d   1       2.422  82.303 113.663  0.00  0.00     0.210 C 
ATOM     15  C   LIG d   1       1.161  81.433 113.631  0.00  0.00     0.109 C 
ATOM     16  O   LIG d   1       3.537  81.782 113.817  0.00  0.00    -0.276 OA
ATOM     17  H   LIG d   1       1.266  83.950 113.462  0.00  0.00     0.149 HD
ENDBRANCH   6  13
BRANCH   5  18
ATOM     18  N   LIG d   1       3.075  85.263 115.969  0.00  0.00     0.381 N 
ATOM     19  H   LIG d   1       3.959  85.468 116.391  0.00  0.00    -0.090 HD
ATOM     20  H   LIG d   1       2.950  84.266 115.967  0.00  0.00    -0.090 HD
ATOM     21  H   LIG d   1       2.343  85.696 116.488  0.00  0.00    -0.090 HD
ENDBRANCH   5  18
BRANCH   3  22
ATOM     22  C   LIG d   1       4.812  88.530 112.928  0.00  0.00     0.382 C 
ATOM     23  O   LIG d   1       4.001  89.488 112.908  0.00  0.00    -0.241 OA
ATOM     24  O   LIG d   1       6.022  88.747 112.728  0.00  0.00    -0.241 OA
ENDBRANCH   3  22
TORSDOF 7
ENDMDL
MODEL 3
REMARK VINA RESULT:      -5.6      2.988      5.721
REMARK  7 active torsions:
REMARK  status: ('A' for Active; 'I' for Inactive)
REMARK    1  A    between atoms: C_2  and  C_3 
REMARK    2  A    between atoms: C_3  and  O_6 
REMARK    3  A    between atoms: C_3  and  C_4 
REMARK    4  A    between atoms: C_7  and  O_6 
REMARK    5  A    between atoms: C_9  and  C_10 
REMARK    6  A    between atoms: N_15  and  C_14 
REMARK    7  A    between atoms: N_20  and  C_19 
REMARK       I    between atoms: C_22  and  N_20 
ROOT
ATOM      1  C   LIG d   1       2.354  83.851 113.257  0.00  0.00     0.161 C 
ATOM      2  C   LIG d   1       1.240  83.211 112.689  0.00  0.00     0.016 C 
ATOM      3  C   LIG d   1      -0.082  83.698 112.808  0.00  0.00     0.038 C 
ATOM      4  C   LIG d   1      -0.362  84.949 113.379  0.00  0.00     0.028 C 
ATOM      5  C   LIG d   1       0.671  85.389 114.410  0.00  0.00    -0.047 C 
ATOM      6  C   LIG d   1       2.081  85.274 113.788  0.00  0.00     0.091 C 
ENDROOT
BRANCH   1   7
ATOM      7  O   LIG d   1       3.442  83.870 112.311  0.00  0.00    -0.368 OA
BRANCH   7   8
ATOM      8  C   LIG d   1       3.071  83.817 110.912  0.00  0.00     0.119 C 
BRANCH   8   9
ATOM      9  C   LIG d   1       4.155  83.008 110.175  0.00  0.00     0.028 C 
ATOM     10  C   LIG d   1       3.937  81.490 110.294  0.00  0.00     0.006 C 
ENDBRANCH   8   9
BRANCH   8  11
ATOM     11  C   LIG d   1       3.101  85.210 110.275  0.00  0.00     0.028 C 
ATOM     12  C   LIG d   1       1.697  85.795 110.055  0.00  0.00     0.006 C 
ENDBRANCH   8  11
ENDBRANCH   7   8
ENDBRANCH   1   7
BRANCH   6  13
ATOM     13  N   LIG d   1       3.158  85.606 114.758  0.00  0.00    -0.311 N 
ATOM     14  C   LIG d   1       4.128  86.482 114.505  0.00  0.00     0.210 C 
ATOM     15  C   LIG d   1       5.148  86.662 115.633  0.00  0.00     0.109 C 
ATOM     16  O   LIG d   1       4.223  87.151 113.465  0.00  0.00    -0.276 OA
ATOM     17  H   LIG d   1       3.139  85.132 115.640  0.00  0.00     0.149 HD
ENDBRANCH   6  13
BRANCH   5  18
ATOM     18  N   LIG d   1       0.331  86.764 114.822  0.00  0.00     0.381 N 
ATOM     19  H   LIG d   1       1.068  87.388 114.560  0.00  0.00    -0.090 HD
ATOM     20  H   LIG d   1       0.237  86.790 115.822  0.00  0.00    -0.090 HD
ATOM     21  H   LIG d   1      -0.522  87.048 114.393  0.00  0.00    -0.090 HD
ENDBRANCH   5  18
BRANCH   3  22
ATOM     22  C   LIG d   1      -1.144  82.913 112.388  0.00  0.00     0.382 C 
ATOM     23  O   LIG d   1      -1.164  82.459 111.218  0.00  0.00    -0.241 OA
ATOM     24  O   LIG d   1      -2.104  82.689 113.149  0.00  0.00    -0.241 OA
ENDBRANCH   3  22
TORSDOF 7
ENDMDL
MODEL 4
REMARK VINA RESULT:      -5.5      1.671      4.863
REMARK  7 active torsions:
REMARK  status: ('A' for Active; 'I' for Inactive)
REMARK    1  A    between atoms: C_2  and  C_3 
REMARK    2  A    between atoms: C_3  and  O_6 
REMARK    3  A    between atoms: C_3  and  C_4 
REMARK    4  A    between atoms: C_7  and  O_6 
REMARK    5  A    between atoms: C_9  and  C_10 
REMARK    6  A    between atoms: N_15  and  C_14 
REMARK    7  A    between atoms: N_20  and  C_19 
REMARK       I    between atoms: C_22  and  N_20 
ROOT
ATOM      1  C   LIG d   1       0.287  83.442 112.557  0.00  0.00     0.161 C 
ATOM      2  C   LIG d   1      -0.972  83.046 113.037  0.00  0.00     0.016 C 
ATOM      3  C   LIG d   1      -1.533  81.772 112.791  0.00  0.00     0.038 C 
ATOM      4  C   LIG d   1      -0.802  80.747 112.172  0.00  0.00     0.028 C 
ATOM      5  C   LIG d   1       0.280  81.260 111.228  0.00  0.00    -0.047 C 
ATOM      6  C   LIG d   1       1.146  82.300 111.975  0.00  0.00     0.091 C 
ENDROOT
BRANCH   1   7
ATOM      7  O   LIG d   1       1.010  84.133 113.595  0.00  0.00    -0.368 OA
BRANCH   7   8
ATOM      8  C   LIG d   1       1.325  85.523 113.335  0.00  0.00     0.119 C 
BRANCH   8   9
ATOM      9  C   LIG d   1       0.903  86.333 114.577  0.00  0.00     0.028 C 
ATOM     10  C   LIG d   1      -0.618  86.313 114.801  0.00  0.00     0.006 C 
ENDBRANCH   8   9
BRANCH   8  11
ATOM     11  C   LIG d   1       0.484  86.079 112.183  0.00  0.00     0.028 C 
ATOM     12  C   LIG d   1       1.334  86.764 111.101  0.00  0.00     0.006 C 
ENDBRANCH   8  11
ENDBRANCH   7   8
ENDBRANCH   1   7
BRANCH   6  13
ATOM     13  N   LIG d   1       2.177  82.914 111.098  0.00  0.00    -0.311 N 
ATOM     14  C   LIG d   1       3.425  82.458 111.003  0.00  0.00     0.210 C 
ATOM     15  C   LIG d   1       4.332  83.250 110.056  0.00  0.00     0.109 C 
ATOM     16  O   LIG d   1       3.857  81.454 111.589  0.00  0.00    -0.276 OA
ATOM     17  H   LIG d   1       1.902  83.714 110.563  0.00  0.00     0.149 HD
ENDBRANCH   6  13
BRANCH   5  18
ATOM     18  N   LIG d   1       1.052  80.093 110.759  0.00  0.00     0.381 N 
ATOM     19  H   LIG d   1       1.166  80.139 109.766  0.00  0.00    -0.090 HD
ATOM     20  H   LIG d   1       0.542  79.256 110.980  0.00  0.00    -0.090 HD
ATOM     21  H   LIG d   1       1.944  80.074 111.203  0.00  0.00    -0.090 HD
ENDBRANCH   5  18
BRANCH   3  22
ATOM     22  C   LIG d   1      -2.855  81.526 113.131  0.00  0.00     0.382 C 
ATOM     23  O   LIG d   1      -3.453  82.297 113.919  0.00  0.00    -0.241 OA
ATOM     24  O   LIG d   1      -3.442  80.518 112.694  0.00  0.00    -0.241 OA
ENDBRANCH   3  22
TORSDOF 7
ENDMDL
MODEL 5
REMARK VINA RESULT:      -5.5      1.895      5.105
REMARK  7 active torsions:
REMARK  status: ('A' for Active; 'I' for Inactive)
REMARK    1  A    between atoms: C_2  and  C_3 
REMARK    2  A    between atoms: C_3  and  O_6 
REMARK    3  A    between atoms: C_3  and  C_4 
REMARK    4  A    between atoms: C_7  and  O_6 
REMARK    5  A    between atoms: C_9  and  C_10 
REMARK    6  A    between atoms: N_15  and  C_14 
REMARK    7  A    between atoms: N_20  and  C_19 
REMARK       I    between atoms: C_22  and  N_20 
ROOT
ATOM      1  C   LIG d   1      -0.562  82.373 111.800  0.00  0.00     0.161 C 
ATOM      2  C   LIG d   1      -1.581  82.556 112.751  0.00  0.00     0.016 C 
ATOM      3  C   LIG d   1      -1.409  82.311 114.132  0.00  0.00     0.038 C 
ATOM      4  C   LIG d   1      -0.153  82.008 114.681  0.00  0.00     0.028 C 
ATOM      5  C   LIG d   1       0.788  81.321 113.698  0.00  0.00    -0.047 C 
ATOM      6  C   LIG d   1       0.844  82.150 112.394  0.00  0.00     0.091 C 
ENDROOT
BRANCH   1   7
ATOM      7  O   LIG d   1      -0.548  83.482 110.880  0.00  0.00    -0.368 OA
BRANCH   7   8
ATOM      8  C   LIG d   1       0.308  84.595 111.237  0.00  0.00     0.119 C 
BRANCH   8   9
ATOM      9  C   LIG d   1      -0.603  85.801 111.536  0.00  0.00     0.028 C 
ATOM     10  C   LIG d   1      -0.845  86.677 110.295  0.00  0.00     0.006 C 
ENDBRANCH   8   9
BRANCH   8  11
ATOM     11  C   LIG d   1       1.180  85.029 110.055  0.00  0.00     0.028 C 
ATOM     12  C   LIG d   1       2.631  85.330 110.464  0.00  0.00     0.006 C 
ENDBRANCH   8  11
ENDBRANCH   7   8
ENDBRANCH   1   7
BRANCH   6  13
ATOM     13  N   LIG d   1       1.677  81.504 111.347  0.00  0.00    -0.311 N 
ATOM     14  C   LIG d   1       2.985  81.720 111.213  0.00  0.00     0.210 C 
ATOM     15  C   LIG d   1       3.649  80.969 110.055  0.00  0.00     0.109 C 
ATOM     16  O   LIG d   1       3.663  82.439 111.962  0.00  0.00    -0.276 OA
ATOM     17  H   LIG d   1       1.213  80.881 110.715  0.00  0.00     0.149 HD
ENDBRANCH   6  13
BRANCH   5  18
ATOM     18  N   LIG d   1       2.101  81.188 114.356  0.00  0.00     0.381 N 
ATOM     19  H   LIG d   1       2.431  82.090 114.637  0.00  0.00    -0.090 HD
ATOM     20  H   LIG d   1       2.757  80.803 113.699  0.00  0.00    -0.090 HD
ATOM     21  H   LIG d   1       2.026  80.592 115.150  0.00  0.00    -0.090 HD
ENDBRANCH   5  18
BRANCH   3  22
ATOM     22  C   LIG d   1      -2.509  82.329 114.976  0.00  0.00     0.382 C 
ATOM     23  O   LIG d   1      -2.407  81.897 116.149  0.00  0.00    -0.241 OA
ATOM     24  O   LIG d   1      -3.614  82.730 114.564  0.00  0.00    -0.241 OA
ENDBRANCH   3  22
TORSDOF 7
ENDMDL
MODEL 6
REMARK VINA RESULT:      -5.5      1.652      2.279
REMARK  7 active torsions:
REMARK  status: ('A' for Active; 'I' for Inactive)
REMARK    1  A    between atoms: C_2  and  C_3 
REMARK    2  A    between atoms: C_3  and  O_6 
REMARK    3  A    between atoms: C_3  and  C_4 
REMARK    4  A    between atoms: C_7  and  O_6 
REMARK    5  A    between atoms: C_9  and  C_10 
REMARK    6  A    between atoms: N_15  and  C_14 
REMARK    7  A    between atoms: N_20  and  C_19 
REMARK       I    between atoms: C_22  and  N_20 
ROOT
ATOM      1  C   LIG d   1       1.113  81.847 113.203  0.00  0.00     0.161 C 
ATOM      2  C   LIG d   1       2.060  82.621 112.511  0.00  0.00     0.016 C 
ATOM      3  C   LIG d   1       2.250  82.551 111.112  0.00  0.00     0.038 C 
ATOM      4  C   LIG d   1       1.397  81.806 110.284  0.00  0.00     0.028 C 
ATOM      5  C   LIG d   1       0.751  80.619 110.991  0.00  0.00    -0.047 C 
ATOM      6  C   LIG d   1       0.098  81.111 112.303  0.00  0.00     0.091 C 
ENDROOT
BRANCH   1   7
ATOM      7  O   LIG d   1       0.424  82.666 114.169  0.00  0.00    -0.368 OA
BRANCH   7   8
ATOM      8  C   LIG d   1      -0.787  83.313 113.709  0.00  0.00     0.119 C 
BRANCH   8   9
ATOM      9  C   LIG d   1      -0.494  84.822 113.601  0.00  0.00     0.028 C 
ATOM     10  C   LIG d   1      -0.530  85.325 112.148  0.00  0.00     0.006 C 
ENDBRANCH   8   9
BRANCH   8  11
ATOM     11  C   LIG d   1      -1.911  83.191 114.742  0.00  0.00     0.028 C 
ATOM     12  C   LIG d   1      -1.572  82.214 115.879  0.00  0.00     0.006 C 
ENDBRANCH   8  11
ENDBRANCH   7   8
ENDBRANCH   1   7
BRANCH   6  13
ATOM     13  N   LIG d   1      -0.485  79.999 113.098  0.00  0.00    -0.311 N 
ATOM     14  C   LIG d   1      -1.766  79.641 113.029  0.00  0.00     0.210 C 
ATOM     15  C   LIG d   1      -2.163  78.482 113.948  0.00  0.00     0.109 C 
ATOM     16  O   LIG d   1      -2.603  80.152 112.270  0.00  0.00    -0.276 OA
ATOM     17  H   LIG d   1       0.131  79.510 113.717  0.00  0.00     0.149 HD
ENDBRANCH   6  13
BRANCH   5  18
ATOM     18  N   LIG d   1      -0.216  80.015 110.055  0.00  0.00     0.381 N 
ATOM     19  H   LIG d   1      -0.139  80.454 109.159  0.00  0.00    -0.090 HD
ATOM     20  H   LIG d   1      -1.146  80.170 110.403  0.00  0.00    -0.090 HD
ATOM     21  H   LIG d   1      -0.043  79.038 109.970  0.00  0.00    -0.090 HD
ENDBRANCH   5  18
BRANCH   3  22
ATOM     22  C   LIG d   1       3.330  83.200 110.532  0.00  0.00     0.382 C 
ATOM     23  O   LIG d   1       4.454  82.644 110.504  0.00  0.00    -0.241 OA
ATOM     24  O   LIG d   1       3.204  84.352 110.076  0.00  0.00    -0.241 OA
ENDBRANCH   3  22
TORSDOF 7
ENDMDL
MODEL 7
REMARK VINA RESULT:      -5.3      3.067      5.368
REMARK  7 active torsions:
REMARK  status: ('A' for Active; 'I' for Inactive)
REMARK    1  A    between atoms: C_2  and  C_3 
REMARK    2  A    between atoms: C_3  and  O_6 
REMARK    3  A    between atoms: C_3  and  C_4 
REMARK    4  A    between atoms: C_7  and  O_6 
REMARK    5  A    between atoms: C_9  and  C_10 
REMARK    6  A    between atoms: N_15  and  C_14 
REMARK    7  A    between atoms: N_20  and  C_19 
REMARK       I    between atoms: C_22  and  N_20 
ROOT
ATOM      1  C   LIG d   1      -0.548  83.463 113.027  0.00  0.00     0.161 C 
ATOM      2  C   LIG d   1      -1.630  82.617 113.321  0.00  0.00     0.016 C 
ATOM      3  C   LIG d   1      -1.967  82.210 114.632  0.00  0.00     0.038 C 
ATOM      4  C   LIG d   1      -1.330  82.747 115.761  0.00  0.00     0.028 C 
ATOM      5  C   LIG d   1       0.095  83.216 115.488  0.00  0.00    -0.047 C 
ATOM      6  C   LIG d   1       0.089  84.148 114.255  0.00  0.00     0.091 C 
ENDROOT
BRANCH   1   7
ATOM      7  O   LIG d   1      -0.949  84.449 112.055  0.00  0.00    -0.368 OA
BRANCH   7   8
ATOM      8  C   LIG d   1      -0.471  84.242 110.703  0.00  0.00     0.119 C 
BRANCH   8   9
ATOM      9  C   LIG d   1       0.810  83.390 110.790  0.00  0.00     0.028 C 
ATOM     10  C   LIG d   1       2.025  84.090 110.158  0.00  0.00     0.006 C 
ENDBRANCH   8   9
BRANCH   8  11
ATOM     11  C   LIG d   1      -0.038  85.561 110.057  0.00  0.00     0.028 C 
ATOM     12  C   LIG d   1      -0.869  86.761 110.537  0.00  0.00     0.006 C 
ENDBRANCH   8  11
ENDBRANCH   7   8
ENDBRANCH   1   7
BRANCH   6  13
ATOM     13  N   LIG d   1       1.456  84.584 113.867  0.00  0.00    -0.311 N 
ATOM     14  C   LIG d   1       1.761  85.840 113.544  0.00  0.00     0.210 C 
ATOM     15  C   LIG d   1       3.224  86.071 113.156  0.00  0.00     0.109 C 
ATOM     16  O   LIG d   1       0.965  86.790 113.573  0.00  0.00    -0.276 OA
ATOM     17  H   LIG d   1       2.170  83.883 113.848  0.00  0.00     0.149 HD
ENDBRANCH   6  13
BRANCH   5  18
ATOM     18  N   LIG d   1       0.589  83.877 116.710  0.00  0.00     0.381 N 
ATOM     19  H   LIG d   1      -0.024  84.627 116.961  0.00  0.00    -0.090 HD
ATOM     20  H   LIG d   1       1.499  84.262 116.526  0.00  0.00    -0.090 HD
ATOM     21  H   LIG d   1       0.643  83.219 117.456  0.00  0.00    -0.090 HD
ENDBRANCH   5  18
BRANCH   3  22
ATOM     22  C   LIG d   1      -2.924  81.225 114.822  0.00  0.00     0.382 C 
ATOM     23  O   LIG d   1      -3.796  81.362 115.714  0.00  0.00    -0.241 OA
ATOM     24  O   LIG d   1      -2.899  80.181 114.143  0.00  0.00    -0.241 OA
ENDBRANCH   3  22
TORSDOF 7
ENDMDL
MODEL 8
REMARK VINA RESULT:      -5.3      2.460      5.180
REMARK  7 active torsions:
REMARK  status: ('A' for Active; 'I' for Inactive)
REMARK    1  A    between atoms: C_2  and  C_3 
REMARK    2  A    between atoms: C_3  and  O_6 
REMARK    3  A    between atoms: C_3  and  C_4 
REMARK    4  A    between atoms: C_7  and  O_6 
REMARK    5  A    between atoms: C_9  and  C_10 
REMARK    6  A    between atoms: N_15  and  C_14 
REMARK    7  A    between atoms: N_20  and  C_19 
REMARK       I    between atoms: C_22  and  N_20 
ROOT
ATOM      1  C   LIG d   1       0.172  84.023 113.546  0.00  0.00     0.161 C 
ATOM      2  C   LIG d   1      -0.932  83.421 114.172  0.00  0.00     0.016 C 
ATOM      3  C   LIG d   1      -1.703  82.397 113.574  0.00  0.00     0.038 C 
ATOM      4  C   LIG d   1      -1.327  81.797 112.363  0.00  0.00     0.028 C 
ATOM      5  C   LIG d   1      -0.513  82.717 111.459  0.00  0.00    -0.047 C 
ATOM      6  C   LIG d   1       0.663  83.305 112.271  0.00  0.00     0.091 C 
ENDROOT
BRANCH   1   7
ATOM      7  O   LIG d   1       1.252  84.164 114.489  0.00  0.00    -0.368 OA
BRANCH   7   8
ATOM      8  C   LIG d   1       1.671  85.520 114.781  0.00  0.00     0.119 C 
BRANCH   8   9
ATOM      9  C   LIG d   1       3.201  85.502 114.966  0.00  0.00     0.028 C 
ATOM     10  C   LIG d   1       3.917  86.486 114.025  0.00  0.00     0.006 C 
ENDBRANCH   8   9
BRANCH   8  11
ATOM     11  C   LIG d   1       1.106  86.003 116.120  0.00  0.00     0.028 C 
ATOM     12  C   LIG d   1       0.896  87.524 116.164  0.00  0.00     0.006 C 
ENDBRANCH   8  11
ENDBRANCH   7   8
ENDBRANCH   1   7
BRANCH   6  13
ATOM     13  N   LIG d   1       1.462  84.281 111.485  0.00  0.00    -0.311 N 
ATOM     14  C   LIG d   1       2.788  84.218 111.367  0.00  0.00     0.210 C 
ATOM     15  C   LIG d   1       3.416  85.335 110.528  0.00  0.00     0.109 C 
ATOM     16  O   LIG d   1       3.499  83.324 111.851  0.00  0.00    -0.276 OA
ATOM     17  H   LIG d   1       0.962  85.022 111.034  0.00  0.00     0.149 HD
ENDBRANCH   6  13
BRANCH   5  18
ATOM     18  N   LIG d   1      -0.073  81.923 110.297  0.00  0.00     0.381 N 
ATOM     19  H   LIG d   1      -0.643  82.138 109.504  0.00  0.00    -0.090 HD
ATOM     20  H   LIG d   1      -0.183  80.947 110.509  0.00  0.00    -0.090 HD
ATOM     21  H   LIG d   1       0.882  82.119 110.091  0.00  0.00    -0.090 HD
ENDBRANCH   5  18
BRANCH   3  22
ATOM     22  C   LIG d   1      -2.886  81.991 114.171  0.00  0.00     0.382 C 
ATOM     23  O   LIG d   1      -3.621  82.832 114.743  0.00  0.00    -0.241 OA
ATOM     24  O   LIG d   1      -3.207  80.787 114.184  0.00  0.00    -0.241 OA
ENDBRANCH   3  22
TORSDOF 7
ENDMDL
MODEL 9
REMARK VINA RESULT:      -5.2      2.707      4.330
REMARK  7 active torsions:
REMARK  status: ('A' for Active; 'I' for Inactive)
REMARK    1  A    between atoms: C_2  and  C_3 
REMARK    2  A    between atoms: C_3  and  O_6 
REMARK    3  A    between atoms: C_3  and  C_4 
REMARK    4  A    between atoms: C_7  and  O_6 
REMARK    5  A    between atoms: C_9  and  C_10 
REMARK    6  A    between atoms: N_15  and  C_14 
REMARK    7  A    between atoms: N_20  and  C_19 
REMARK       I    between atoms: C_22  and  N_20 
ROOT
ATOM      1  C   LIG d   1       2.061  83.952 113.157  0.00  0.00     0.161 C 
ATOM      2  C   LIG d   1       2.640  85.230 113.092  0.00  0.00     0.016 C 
ATOM      3  C   LIG d   1       2.310  86.185 112.103  0.00  0.00     0.038 C 
ATOM      4  C   LIG d   1       1.260  85.980 111.196  0.00  0.00     0.028 C 
ATOM      5  C   LIG d   1       0.990  84.507 110.904  0.00  0.00    -0.047 C 
ATOM      6  C   LIG d   1       0.834  83.751 112.244  0.00  0.00     0.091 C 
ENDROOT
BRANCH   1   7
ATOM      7  O   LIG d   1       1.726  83.637 114.523  0.00  0.00    -0.368 OA
BRANCH   7   8
ATOM      8  C   LIG d   1       1.133  84.709 115.298  0.00  0.00     0.119 C 
BRANCH   8   9
ATOM      9  C   LIG d   1       1.437  84.430 116.782  0.00  0.00     0.028 C 
ATOM     10  C   LIG d   1       0.612  83.258 117.340  0.00  0.00     0.006 C 
ENDBRANCH   8   9
BRANCH   8  11
ATOM     11  C   LIG d   1      -0.394  84.697 115.187  0.00  0.00     0.028 C 
ATOM     12  C   LIG d   1      -0.957  85.988 114.570  0.00  0.00     0.006 C 
ENDBRANCH   8  11
ENDBRANCH   7   8
ENDBRANCH   1   7
BRANCH   6  13
ATOM     13  N   LIG d   1       0.651  82.289 112.051  0.00  0.00    -0.311 N 
ATOM     14  C   LIG d   1      -0.543  81.704 111.967  0.00  0.00     0.210 C 
ATOM     15  C   LIG d   1      -0.506  80.183 111.789  0.00  0.00     0.109 C 
ATOM     16  O   LIG d   1      -1.627  82.304 111.990  0.00  0.00    -0.276 OA
ATOM     17  H   LIG d   1       1.480  81.730 111.991  0.00  0.00     0.149 HD
ENDBRANCH   6  13
BRANCH   5  18
ATOM     18  N   LIG d   1      -0.214  84.434 110.055  0.00  0.00     0.381 N 
ATOM     19  H   LIG d   1       0.021  84.034 109.169  0.00  0.00    -0.090 HD
ATOM     20  H   LIG d   1      -0.559  85.365 109.899  0.00  0.00    -0.090 HD
ATOM     21  H   LIG d   1      -0.913  83.883 110.502  0.00  0.00    -0.090 HD
ENDBRANCH   5  18
BRANCH   3  22
ATOM     22  C   LIG d   1       3.061  87.345 111.989  0.00  0.00     0.382 C 
ATOM     23  O   LIG d   1       4.214  87.300 111.498  0.00  0.00    -0.241 OA
ATOM     24  O   LIG d   1       2.617  88.429 112.412  0.00  0.00    -0.241 OA
ENDBRANCH   3  22
TORSDOF 7
ENDMDL
