MODEL 1
REMARK VINA RESULT:      -5.6      0.000      0.000
REMARK  7 active torsions:
REMARK  status: ('A' for Active; 'I' for Inactive)
REMARK    1  A    between atoms: C_2  and  C_3 
REMARK    2  A    between atoms: C_3  and  O_6 
REMARK    3  A    between atoms: C_3  and  C_4 
REMARK    4  A    between atoms: C_7  and  O_6 
REMARK    5  A    between atoms: C_9  and  C_10 
REMARK    6  A    between atoms: N_15  and  C_14 
REMARK    7  A    between atoms: N_20  and  C_19 
REMARK       I    between atoms: C_22  and  N_20 
ROOT
ATOM      1  C   LIG d   1       2.325  86.111 114.102  0.00  0.00     0.161 C 
ATOM      2  C   LIG d   1       2.879  87.207 113.420  0.00  0.00     0.016 C 
ATOM      3  C   LIG d   1       4.074  87.849 113.820  0.00  0.00     0.038 C 
ATOM      4  C   LIG d   1       4.881  87.340 114.848  0.00  0.00     0.028 C 
ATOM      5  C   LIG d   1       4.104  86.536 115.886  0.00  0.00    -0.047 C 
ATOM      6  C   LIG d   1       3.249  85.472 115.160  0.00  0.00     0.091 C 
ENDROOT
BRANCH   1   7
ATOM      7  O   LIG d   1       1.886  85.117 113.155  0.00  0.00    -0.368 OA
BRANCH   7   8
ATOM      8  C   LIG d   1       1.426  85.616 111.875  0.00  0.00     0.119 C 
BRANCH   8   9
ATOM      9  C   LIG d   1      -0.107  85.466 111.843  0.00  0.00     0.028 C 
ATOM     10  C   LIG d   1      -0.752  86.269 110.701  0.00  0.00     0.006 C 
ENDBRANCH   8   9
BRANCH   8  11
ATOM     11  C   LIG d   1       1.943  84.751 110.722  0.00  0.00     0.028 C 
ATOM     12  C   LIG d   1       3.444  84.947 110.455  0.00  0.00     0.006 C 
ENDBRANCH   8  11
ENDBRANCH   7   8
ENDBRANCH   1   7
BRANCH   6  13
ATOM     13  N   LIG d   1       2.394  84.697 116.096  0.00  0.00    -0.311 N 
ATOM     14  C   LIG d   1       2.770  83.546 116.649  0.00  0.00     0.210 C 
ATOM     15  C   LIG d   1       1.729  82.900 117.569  0.00  0.00     0.109 C 
ATOM     16  O   LIG d   1       3.879  83.014 116.491  0.00  0.00    -0.276 OA
ATOM     17  H   LIG d   1       1.489  85.072 116.304  0.00  0.00     0.149 HD
ENDBRANCH   6  13
BRANCH   5  18
ATOM     18  N   LIG d   1       5.084  85.951 116.820  0.00  0.00     0.381 N 
ATOM     19  H   LIG d   1       4.608  85.424 117.525  0.00  0.00    -0.090 HD
ATOM     20  H   LIG d   1       5.589  86.694 117.270  0.00  0.00    -0.090 HD
ATOM     21  H   LIG d   1       5.717  85.362 116.326  0.00  0.00    -0.090 HD
ENDBRANCH   5  18
BRANCH   3  22
ATOM     22  C   LIG d   1       4.451  89.038 113.214  0.00  0.00     0.382 C 
ATOM     23  O   LIG d   1       5.577  89.133 112.668  0.00  0.00    -0.241 OA
ATOM     24  O   LIG d   1       3.698  90.029 113.244  0.00  0.00    -0.241 OA
ENDBRANCH   3  22
TORSDOF 7
ENDMDL
MODEL 2
REMARK VINA RESULT:      -5.2      1.678      2.130
REMARK  7 active torsions:
REMARK  status: ('A' for Active; 'I' for Inactive)
REMARK    1  A    between atoms: C_2  and  C_3 
REMARK    2  A    between atoms: C_3  and  O_6 
REMARK    3  A    between atoms: C_3  and  C_4 
REMARK    4  A    between atoms: C_7  and  O_6 
REMARK    5  A    between atoms: C_9  and  C_10 
REMARK    6  A    between atoms: N_15  and  C_14 
REMARK    7  A    between atoms: N_20  and  C_19 
REMARK       I    between atoms: C_22  and  N_20 
ROOT
ATOM      1  C   LIG d   1       2.655  84.868 113.686  0.00  0.00     0.161 C 
ATOM      2  C   LIG d   1       3.038  86.037 113.007  0.00  0.00     0.016 C 
ATOM      3  C   LIG d   1       3.707  87.115 113.630  0.00  0.00     0.038 C 
ATOM      4  C   LIG d   1       4.177  87.033 114.950  0.00  0.00     0.028 C 
ATOM      5  C   LIG d   1       3.370  86.076 115.821  0.00  0.00    -0.047 C 
ATOM      6  C   LIG d   1       3.257  84.714 115.099  0.00  0.00     0.091 C 
ENDROOT
BRANCH   1   7
ATOM      7  O   LIG d   1       2.962  83.712 112.882  0.00  0.00    -0.368 OA
BRANCH   7   8
ATOM      8  C   LIG d   1       1.864  83.156 112.119  0.00  0.00     0.119 C 
BRANCH   8   9
ATOM      9  C   LIG d   1       1.660  81.704 112.592  0.00  0.00     0.028 C 
ATOM     10  C   LIG d   1       1.364  80.743 111.428  0.00  0.00     0.006 C 
ENDBRANCH   8   9
BRANCH   8  11
ATOM     11  C   LIG d   1       2.214  83.053 110.631  0.00  0.00     0.028 C 
ATOM     12  C   LIG d   1       3.672  83.438 110.335  0.00  0.00     0.006 C 
ENDBRANCH   8  11
ENDBRANCH   7   8
ENDBRANCH   1   7
BRANCH   6  13
ATOM     13  N   LIG d   1       2.411  83.746 115.845  0.00  0.00    -0.311 N 
ATOM     14  C   LIG d   1       2.906  82.827 116.672  0.00  0.00     0.210 C 
ATOM     15  C   LIG d   1       1.862  81.915 117.324  0.00  0.00     0.109 C 
ATOM     16  O   LIG d   1       4.107  82.701 116.953  0.00  0.00    -0.276 OA
ATOM     17  H   LIG d   1       1.422  83.798 115.700  0.00  0.00     0.149 HD
ENDBRANCH   6  13
BRANCH   5  18
ATOM     18  N   LIG d   1       4.050  85.983 117.127  0.00  0.00     0.381 N 
ATOM     19  H   LIG d   1       3.397  86.168 117.863  0.00  0.00    -0.090 HD
ATOM     20  H   LIG d   1       4.775  86.677 117.167  0.00  0.00    -0.090 HD
ATOM     21  H   LIG d   1       4.442  85.074 117.243  0.00  0.00    -0.090 HD
ENDBRANCH   5  18
BRANCH   3  22
ATOM     22  C   LIG d   1       3.878  88.307 112.943  0.00  0.00     0.382 C 
ATOM     23  O   LIG d   1       2.896  89.062 112.744  0.00  0.00    -0.241 OA
ATOM     24  O   LIG d   1       4.993  88.616 112.482  0.00  0.00    -0.241 OA
ENDBRANCH   3  22
TORSDOF 7
ENDMDL
MODEL 3
REMARK VINA RESULT:      -5.1      2.455      4.938
REMARK  7 active torsions:
REMARK  status: ('A' for Active; 'I' for Inactive)
REMARK    1  A    between atoms: C_2  and  C_3 
REMARK    2  A    between atoms: C_3  and  O_6 
REMARK    3  A    between atoms: C_3  and  C_4 
REMARK    4  A    between atoms: C_7  and  O_6 
REMARK    5  A    between atoms: C_9  and  C_10 
REMARK    6  A    between atoms: N_15  and  C_14 
REMARK    7  A    between atoms: N_20  and  C_19 
REMARK       I    between atoms: C_22  and  N_20 
ROOT
ATOM      1  C   LIG d   1       2.847  86.986 114.675  0.00  0.00     0.161 C 
ATOM      2  C   LIG d   1       2.591  86.295 113.479  0.00  0.00     0.016 C 
ATOM      3  C   LIG d   1       3.218  86.609 112.250  0.00  0.00     0.038 C 
ATOM      4  C   LIG d   1       4.262  87.542 112.168  0.00  0.00     0.028 C 
ATOM      5  C   LIG d   1       4.201  88.617 113.248  0.00  0.00    -0.047 C 
ATOM      6  C   LIG d   1       4.063  87.934 114.628  0.00  0.00     0.091 C 
ENDROOT
BRANCH   1   7
ATOM      7  O   LIG d   1       2.984  86.048 115.761  0.00  0.00    -0.368 OA
BRANCH   7   8
ATOM      8  C   LIG d   1       3.569  84.766 115.426  0.00  0.00     0.119 C 
BRANCH   8   9
ATOM      9  C   LIG d   1       2.559  83.676 115.832  0.00  0.00     0.028 C 
ATOM     10  C   LIG d   1       2.075  83.836 117.283  0.00  0.00     0.006 C 
ENDBRANCH   8   9
BRANCH   8  11
ATOM     11  C   LIG d   1       4.822  84.490 116.262  0.00  0.00     0.028 C 
ATOM     12  C   LIG d   1       5.231  85.687 117.136  0.00  0.00     0.006 C 
ENDBRANCH   8  11
ENDBRANCH   7   8
ENDBRANCH   1   7
BRANCH   6  13
ATOM     13  N   LIG d   1       3.912  88.916 115.733  0.00  0.00    -0.311 N 
ATOM     14  C   LIG d   1       4.934  89.367 116.458  0.00  0.00     0.210 C 
ATOM     15  C   LIG d   1       4.556  90.359 117.562  0.00  0.00     0.109 C 
ATOM     16  O   LIG d   1       6.122  89.066 116.269  0.00  0.00    -0.276 OA
ATOM     17  H   LIG d   1       2.985  89.238 115.934  0.00  0.00     0.149 HD
ENDBRANCH   6  13
BRANCH   5  18
ATOM     18  N   LIG d   1       5.419  89.439 113.128  0.00  0.00     0.381 N 
ATOM     19  H   LIG d   1       6.230  88.858 113.213  0.00  0.00    -0.090 HD
ATOM     20  H   LIG d   1       5.433  90.111 113.875  0.00  0.00    -0.090 HD
ATOM     21  H   LIG d   1       5.429  89.908 112.250  0.00  0.00    -0.090 HD
ENDBRANCH   5  18
BRANCH   3  22
ATOM     22  C   LIG d   1       2.773  86.012 111.080  0.00  0.00     0.382 C 
ATOM     23  O   LIG d   1       3.202  84.880 110.752  0.00  0.00    -0.241 OA
ATOM     24  O   LIG d   1       1.983  86.612 110.327  0.00  0.00    -0.241 OA
ENDBRANCH   3  22
TORSDOF 7
ENDMDL
MODEL 4
REMARK VINA RESULT:      -5.0     25.191     28.021
REMARK  7 active torsions:
REMARK  status: ('A' for Active; 'I' for Inactive)
REMARK    1  A    between atoms: C_2  and  C_3 
REMARK    2  A    between atoms: C_3  and  O_6 
REMARK    3  A    between atoms: C_3  and  C_4 
REMARK    4  A    between atoms: C_7  and  O_6 
REMARK    5  A    between atoms: C_9  and  C_10 
REMARK    6  A    between atoms: N_15  and  C_14 
REMARK    7  A    between atoms: N_20  and  C_19 
REMARK       I    between atoms: C_22  and  N_20 
ROOT
ATOM      1  C   LIG d   1     -25.107  86.030 112.886  0.00  0.00     0.161 C 
ATOM      2  C   LIG d   1     -24.138  86.969 113.276  0.00  0.00     0.016 C 
ATOM      3  C   LIG d   1     -22.773  86.649 113.459  0.00  0.00     0.038 C 
ATOM      4  C   LIG d   1     -22.255  85.391 113.116  0.00  0.00     0.028 C 
ATOM      5  C   LIG d   1     -23.283  84.268 113.200  0.00  0.00    -0.047 C 
ATOM      6  C   LIG d   1     -24.541  84.680 112.400  0.00  0.00     0.091 C 
ENDROOT
BRANCH   1   7
ATOM      7  O   LIG d   1     -25.967  86.603 111.881  0.00  0.00    -0.368 OA
BRANCH   7   8
ATOM      8  C   LIG d   1     -26.374  87.977 112.099  0.00  0.00     0.119 C 
BRANCH   8   9
ATOM      9  C   LIG d   1     -27.770  87.948 112.752  0.00  0.00     0.028 C 
ATOM     10  C   LIG d   1     -27.761  88.516 114.181  0.00  0.00     0.006 C 
ENDBRANCH   8   9
BRANCH   8  11
ATOM     11  C   LIG d   1     -26.563  88.719 110.773  0.00  0.00     0.028 C 
ATOM     12  C   LIG d   1     -26.797  90.226 110.961  0.00  0.00     0.006 C 
ENDBRANCH   8  11
ENDBRANCH   7   8
ENDBRANCH   1   7
BRANCH   6  13
ATOM     13  N   LIG d   1     -25.630  83.673 112.500  0.00  0.00    -0.311 N 
ATOM     14  C   LIG d   1     -26.266  83.174 111.441  0.00  0.00     0.210 C 
ATOM     15  C   LIG d   1     -27.370  82.163 111.767  0.00  0.00     0.109 C 
ATOM     16  O   LIG d   1     -25.999  83.448 110.262  0.00  0.00    -0.276 OA
ATOM     17  H   LIG d   1     -25.889  83.371 113.418  0.00  0.00     0.149 HD
ENDBRANCH   6  13
BRANCH   5  18
ATOM     18  N   LIG d   1     -22.647  83.041 112.685  0.00  0.00     0.381 N 
ATOM     19  H   LIG d   1     -21.833  83.279 112.153  0.00  0.00    -0.090 HD
ATOM     20  H   LIG d   1     -23.294  82.569 112.078  0.00  0.00    -0.090 HD
ATOM     21  H   LIG d   1     -22.394  82.445 113.442  0.00  0.00    -0.090 HD
ENDBRANCH   5  18
BRANCH   3  22
ATOM     22  C   LIG d   1     -21.919  87.581 114.028  0.00  0.00     0.382 C 
ATOM     23  O   LIG d   1     -22.230  88.139 115.108  0.00  0.00    -0.241 OA
ATOM     24  O   LIG d   1     -20.862  87.903 113.453  0.00  0.00    -0.241 OA
ENDBRANCH   3  22
TORSDOF 7
ENDMDL
MODEL 5
REMARK VINA RESULT:      -4.9     10.426     14.012
REMARK  7 active torsions:
REMARK  status: ('A' for Active; 'I' for Inactive)
REMARK    1  A    between atoms: C_2  and  C_3 
REMARK    2  A    between atoms: C_3  and  O_6 
REMARK    3  A    between atoms: C_3  and  C_4 
REMARK    4  A    between atoms: C_7  and  O_6 
REMARK    5  A    between atoms: C_9  and  C_10 
REMARK    6  A    between atoms: N_15  and  C_14 
REMARK    7  A    between atoms: N_20  and  C_19 
REMARK       I    between atoms: C_22  and  N_20 
ROOT
ATOM      1  C   LIG d   1      -3.216  75.512 116.478  0.00  0.00     0.161 C 
ATOM      2  C   LIG d   1      -3.930  74.413 116.985  0.00  0.00     0.016 C 
ATOM      3  C   LIG d   1      -5.094  73.893 116.373  0.00  0.00     0.038 C 
ATOM      4  C   LIG d   1      -5.538  74.344 115.121  0.00  0.00     0.028 C 
ATOM      5  C   LIG d   1      -5.141  75.786 114.821  0.00  0.00    -0.047 C 
ATOM      6  C   LIG d   1      -3.622  75.946 115.055  0.00  0.00     0.091 C 
ENDROOT
BRANCH   1   7
ATOM      7  O   LIG d   1      -1.801  75.243 116.536  0.00  0.00    -0.368 OA
BRANCH   7   8
ATOM      8  C   LIG d   1      -1.269  74.403 115.482  0.00  0.00     0.119 C 
BRANCH   8   9
ATOM      9  C   LIG d   1      -0.490  73.255 116.153  0.00  0.00     0.028 C 
ATOM     10  C   LIG d   1      -0.491  73.364 117.687  0.00  0.00     0.006 C 
ENDBRANCH   8   9
BRANCH   8  11
ATOM     11  C   LIG d   1      -0.235  75.155 114.639  0.00  0.00     0.028 C 
ATOM     12  C   LIG d   1       0.813  74.224 114.010  0.00  0.00     0.006 C 
ENDBRANCH   8  11
ENDBRANCH   7   8
ENDBRANCH   1   7
BRANCH   6  13
ATOM     13  N   LIG d   1      -3.164  77.348 114.865  0.00  0.00    -0.311 N 
ATOM     14  C   LIG d   1      -2.710  77.820 113.705  0.00  0.00     0.210 C 
ATOM     15  C   LIG d   1      -2.271  79.287 113.732  0.00  0.00     0.109 C 
ATOM     16  O   LIG d   1      -2.659  77.172 112.649  0.00  0.00    -0.276 OA
ATOM     17  H   LIG d   1      -3.201  77.951 115.663  0.00  0.00     0.149 HD
ENDBRANCH   6  13
BRANCH   5  18
ATOM     18  N   LIG d   1      -5.547  76.080 113.434  0.00  0.00     0.381 N 
ATOM     19  H   LIG d   1      -5.082  75.457 112.805  0.00  0.00    -0.090 HD
ATOM     20  H   LIG d   1      -5.273  77.020 113.208  0.00  0.00    -0.090 HD
ATOM     21  H   LIG d   1      -6.534  75.983 113.340  0.00  0.00    -0.090 HD
ENDBRANCH   5  18
BRANCH   3  22
ATOM     22  C   LIG d   1      -5.849  72.936 117.034  0.00  0.00     0.382 C 
ATOM     23  O   LIG d   1      -6.095  71.838 116.478  0.00  0.00    -0.241 OA
ATOM     24  O   LIG d   1      -6.324  73.173 118.160  0.00  0.00    -0.241 OA
ENDBRANCH   3  22
TORSDOF 7
ENDMDL
MODEL 6
REMARK VINA RESULT:      -4.9     11.613     13.791
REMARK  7 active torsions:
REMARK  status: ('A' for Active; 'I' for Inactive)
REMARK    1  A    between atoms: C_2  and  C_3 
REMARK    2  A    between atoms: C_3  and  O_6 
REMARK    3  A    between atoms: C_3  and  C_4 
REMARK    4  A    between atoms: C_7  and  O_6 
REMARK    5  A    between atoms: C_9  and  C_10 
REMARK    6  A    between atoms: N_15  and  C_14 
REMARK    7  A    between atoms: N_20  and  C_19 
REMARK       I    between atoms: C_22  and  N_20 
ROOT
ATOM      1  C   LIG d   1      10.909  75.913 114.870  0.00  0.00     0.161 C 
ATOM      2  C   LIG d   1       9.547  76.217 115.035  0.00  0.00     0.016 C 
ATOM      3  C   LIG d   1       9.024  77.526 114.924  0.00  0.00     0.038 C 
ATOM      4  C   LIG d   1       9.808  78.604 114.488  0.00  0.00     0.028 C 
ATOM      5  C   LIG d   1      11.292  78.438 114.800  0.00  0.00    -0.047 C 
ATOM      6  C   LIG d   1      11.761  77.058 114.285  0.00  0.00     0.091 C 
ENDROOT
BRANCH   1   7
ATOM      7  O   LIG d   1      11.050  74.723 114.068  0.00  0.00    -0.368 OA
BRANCH   7   8
ATOM      8  C   LIG d   1      11.608  73.566 114.737  0.00  0.00     0.119 C 
BRANCH   8   9
ATOM      9  C   LIG d   1      12.504  72.832 113.721  0.00  0.00     0.028 C 
ATOM     10  C   LIG d   1      14.001  73.080 113.972  0.00  0.00     0.006 C 
ENDBRANCH   8   9
BRANCH   8  11
ATOM     11  C   LIG d   1      10.516  72.561 115.115  0.00  0.00     0.028 C 
ATOM     12  C   LIG d   1      10.619  72.091 116.575  0.00  0.00     0.006 C 
ENDBRANCH   8  11
ENDBRANCH   7   8
ENDBRANCH   1   7
BRANCH   6  13
ATOM     13  N   LIG d   1      13.182  76.780 114.624  0.00  0.00    -0.311 N 
ATOM     14  C   LIG d   1      14.192  76.999 113.784  0.00  0.00     0.210 C 
ATOM     15  C   LIG d   1      15.575  76.624 114.326  0.00  0.00     0.109 C 
ATOM     16  O   LIG d   1      14.078  77.498 112.655  0.00  0.00    -0.276 OA
ATOM     17  H   LIG d   1      13.368  76.403 115.532  0.00  0.00     0.149 HD
ENDBRANCH   6  13
BRANCH   5  18
ATOM     18  N   LIG d   1      12.008  79.564 114.171  0.00  0.00     0.381 N 
ATOM     19  H   LIG d   1      12.922  79.648 114.568  0.00  0.00    -0.090 HD
ATOM     20  H   LIG d   1      11.504  80.413 114.355  0.00  0.00    -0.090 HD
ATOM     21  H   LIG d   1      12.078  79.417 113.188  0.00  0.00    -0.090 HD
ENDBRANCH   5  18
BRANCH   3  22
ATOM     22  C   LIG d   1       7.709  77.773 115.289  0.00  0.00     0.382 C 
ATOM     23  O   LIG d   1       6.770  77.243 114.648  0.00  0.00    -0.241 OA
ATOM     24  O   LIG d   1       7.450  78.555 116.224  0.00  0.00    -0.241 OA
ENDBRANCH   3  22
TORSDOF 7
ENDMDL
MODEL 7
REMARK VINA RESULT:      -4.6     11.234     13.327
REMARK  7 active torsions:
REMARK  status: ('A' for Active; 'I' for Inactive)
REMARK    1  A    between atoms: C_2  and  C_3 
REMARK    2  A    between atoms: C_3  and  O_6 
REMARK    3  A    between atoms: C_3  and  C_4 
REMARK    4  A    between atoms: C_7  and  O_6 
REMARK    5  A    between atoms: C_9  and  C_10 
REMARK    6  A    between atoms: N_15  and  C_14 
REMARK    7  A    between atoms: N_20  and  C_19 
REMARK       I    between atoms: C_22  and  N_20 
ROOT
ATOM      1  C   LIG d   1      12.855  78.148 114.688  0.00  0.00     0.161 C 
ATOM      2  C   LIG d   1      11.707  78.443 115.442  0.00  0.00     0.016 C 
ATOM      3  C   LIG d   1      10.633  79.220 114.951  0.00  0.00     0.038 C 
ATOM      4  C   LIG d   1      10.566  79.632 113.612  0.00  0.00     0.028 C 
ATOM      5  C   LIG d   1      11.935  79.787 112.957  0.00  0.00    -0.047 C 
ATOM      6  C   LIG d   1      12.751  78.494 113.188  0.00  0.00     0.091 C 
ENDROOT
BRANCH   1   7
ATOM      7  O   LIG d   1      13.208  76.761 114.858  0.00  0.00    -0.368 OA
BRANCH   7   8
ATOM      8  C   LIG d   1      12.170  75.898 115.384  0.00  0.00     0.119 C 
BRANCH   8   9
ATOM      9  C   LIG d   1      12.856  74.814 116.237  0.00  0.00     0.028 C 
ATOM     10  C   LIG d   1      14.313  74.568 115.811  0.00  0.00     0.006 C 
ENDBRANCH   8   9
BRANCH   8  11
ATOM     11  C   LIG d   1      11.455  75.139 114.262  0.00  0.00     0.028 C 
ATOM     12  C   LIG d   1       9.924  75.216 114.372  0.00  0.00     0.006 C 
ENDBRANCH   8  11
ENDBRANCH   7   8
ENDBRANCH   1   7
BRANCH   6  13
ATOM     13  N   LIG d   1      14.133  78.594 112.652  0.00  0.00    -0.311 N 
ATOM     14  C   LIG d   1      14.461  78.265 111.403  0.00  0.00     0.210 C 
ATOM     15  C   LIG d   1      15.946  78.424 111.061  0.00  0.00     0.109 C 
ATOM     16  O   LIG d   1      13.657  77.888 110.537  0.00  0.00    -0.276 OA
ATOM     17  H   LIG d   1      14.843  78.921 113.278  0.00  0.00     0.149 HD
ENDBRANCH   6  13
BRANCH   5  18
ATOM     18  N   LIG d   1      11.714  80.084 111.529  0.00  0.00     0.381 N 
ATOM     19  H   LIG d   1      10.902  80.658 111.424  0.00  0.00    -0.090 HD
ATOM     20  H   LIG d   1      11.557  79.222 111.038  0.00  0.00    -0.090 HD
ATOM     21  H   LIG d   1      12.510  80.550 111.151  0.00  0.00    -0.090 HD
ENDBRANCH   5  18
BRANCH   3  22
ATOM     22  C   LIG d   1       9.628  79.627 115.816  0.00  0.00     0.382 C 
ATOM     23  O   LIG d   1       8.475  79.146 115.709  0.00  0.00    -0.241 OA
ATOM     24  O   LIG d   1       9.850  80.503 116.674  0.00  0.00    -0.241 OA
ENDBRANCH   3  22
TORSDOF 7
ENDMDL
MODEL 8
REMARK VINA RESULT:      -4.5     10.907     14.577
REMARK  7 active torsions:
REMARK  status: ('A' for Active; 'I' for Inactive)
REMARK    1  A    between atoms: C_2  and  C_3 
REMARK    2  A    between atoms: C_3  and  O_6 
REMARK    3  A    between atoms: C_3  and  C_4 
REMARK    4  A    between atoms: C_7  and  O_6 
REMARK    5  A    between atoms: C_9  and  C_10 
REMARK    6  A    between atoms: N_15  and  C_14 
REMARK    7  A    between atoms: N_20  and  C_19 
REMARK       I    between atoms: C_22  and  N_20 
ROOT
ATOM      1  C   LIG d   1      -3.506  74.468 116.277  0.00  0.00     0.161 C 
ATOM      2  C   LIG d   1      -4.272  73.295 116.378  0.00  0.00     0.016 C 
ATOM      3  C   LIG d   1      -5.683  73.291 116.460  0.00  0.00     0.038 C 
ATOM      4  C   LIG d   1      -6.439  74.461 116.292  0.00  0.00     0.028 C 
ATOM      5  C   LIG d   1      -5.690  75.728 116.693  0.00  0.00    -0.047 C 
ATOM      6  C   LIG d   1      -4.318  75.747 115.981  0.00  0.00     0.091 C 
ENDROOT
BRANCH   1   7
ATOM      7  O   LIG d   1      -2.471  74.293 115.290  0.00  0.00    -0.368 OA
BRANCH   7   8
ATOM      8  C   LIG d   1      -1.110  74.469 115.755  0.00  0.00     0.119 C 
BRANCH   8   9
ATOM      9  C   LIG d   1      -0.289  73.267 115.251  0.00  0.00     0.028 C 
ATOM     10  C   LIG d   1       0.030  73.362 113.749  0.00  0.00     0.006 C 
ENDBRANCH   8   9
BRANCH   8  11
ATOM     11  C   LIG d   1      -1.030  74.403 117.283  0.00  0.00     0.028 C 
ATOM     12  C   LIG d   1      -0.456  73.072 117.792  0.00  0.00     0.006 C 
ENDBRANCH   8  11
ENDBRANCH   7   8
ENDBRANCH   1   7
BRANCH   6  13
ATOM     13  N   LIG d   1      -3.487  76.911 116.383  0.00  0.00    -0.311 N 
ATOM     14  C   LIG d   1      -3.036  77.822 115.522  0.00  0.00     0.210 C 
ATOM     15  C   LIG d   1      -2.179  78.930 116.143  0.00  0.00     0.109 C 
ATOM     16  O   LIG d   1      -3.290  77.835 114.309  0.00  0.00    -0.276 OA
ATOM     17  H   LIG d   1      -3.259  76.995 117.354  0.00  0.00     0.149 HD
ENDBRANCH   6  13
BRANCH   5  18
ATOM     18  N   LIG d   1      -6.541  76.879 116.339  0.00  0.00     0.381 N 
ATOM     19  H   LIG d   1      -6.903  76.761 115.414  0.00  0.00    -0.090 HD
ATOM     20  H   LIG d   1      -5.982  77.714 116.354  0.00  0.00    -0.090 HD
ATOM     21  H   LIG d   1      -7.292  76.962 116.989  0.00  0.00    -0.090 HD
ENDBRANCH   5  18
BRANCH   3  22
ATOM     22  C   LIG d   1      -6.351  72.112 116.752  0.00  0.00     0.382 C 
ATOM     23  O   LIG d   1      -6.804  71.916 117.905  0.00  0.00    -0.241 OA
ATOM     24  O   LIG d   1      -6.469  71.222 115.888  0.00  0.00    -0.241 OA
ENDBRANCH   3  22
TORSDOF 7
ENDMDL
MODEL 9
REMARK VINA RESULT:      -4.5     11.647     14.127
REMARK  7 active torsions:
REMARK  status: ('A' for Active; 'I' for Inactive)
REMARK    1  A    between atoms: C_2  and  C_3 
REMARK    2  A    between atoms: C_3  and  O_6 
REMARK    3  A    between atoms: C_3  and  C_4 
REMARK    4  A    between atoms: C_7  and  O_6 
REMARK    5  A    between atoms: C_9  and  C_10 
REMARK    6  A    between atoms: N_15  and  C_14 
REMARK    7  A    between atoms: N_20  and  C_19 
REMARK       I    between atoms: C_22  and  N_20 
ROOT
ATOM      1  C   LIG d   1      10.590  75.670 114.145  0.00  0.00     0.161 C 
ATOM      2  C   LIG d   1      10.189  74.552 114.894  0.00  0.00     0.016 C 
ATOM      3  C   LIG d   1      11.096  73.687 115.549  0.00  0.00     0.038 C 
ATOM      4  C   LIG d   1      12.467  73.970 115.624  0.00  0.00     0.028 C 
ATOM      5  C   LIG d   1      12.977  74.812 114.459  0.00  0.00    -0.047 C 
ATOM      6  C   LIG d   1      12.075  76.059 114.308  0.00  0.00     0.091 C 
ENDROOT
BRANCH   1   7
ATOM      7  O   LIG d   1       9.742  76.794 114.452  0.00  0.00    -0.368 OA
BRANCH   7   8
ATOM      8  C   LIG d   1       9.815  77.297 115.809  0.00  0.00     0.119 C 
BRANCH   8   9
ATOM      9  C   LIG d   1       8.371  77.506 116.304  0.00  0.00     0.028 C 
ATOM     10  C   LIG d   1       7.329  77.233 115.206  0.00  0.00     0.006 C 
ENDBRANCH   8   9
BRANCH   8  11
ATOM     11  C   LIG d   1      10.464  78.683 115.856  0.00  0.00     0.028 C 
ATOM     12  C   LIG d   1      10.269  79.477 114.554  0.00  0.00     0.006 C 
ENDBRANCH   8  11
ENDBRANCH   7   8
ENDBRANCH   1   7
BRANCH   6  13
ATOM     13  N   LIG d   1      12.452  76.894 113.138  0.00  0.00    -0.311 N 
ATOM     14  C   LIG d   1      13.299  77.920 113.213  0.00  0.00     0.210 C 
ATOM     15  C   LIG d   1      13.535  78.660 111.892  0.00  0.00     0.109 C 
ATOM     16  O   LIG d   1      13.901  78.267 114.240  0.00  0.00    -0.276 OA
ATOM     17  H   LIG d   1      12.034  76.662 112.259  0.00  0.00     0.149 HD
ENDBRANCH   6  13
BRANCH   5  18
ATOM     18  N   LIG d   1      14.386  75.148 114.735  0.00  0.00     0.381 N 
ATOM     19  H   LIG d   1      14.438  75.782 115.507  0.00  0.00    -0.090 HD
ATOM     20  H   LIG d   1      14.776  75.602 113.927  0.00  0.00    -0.090 HD
ATOM     21  H   LIG d   1      14.900  74.320 114.940  0.00  0.00    -0.090 HD
ENDBRANCH   5  18
BRANCH   3  22
ATOM     22  C   LIG d   1      10.637  72.502 116.103  0.00  0.00     0.382 C 
ATOM     23  O   LIG d   1      10.228  71.578 115.359  0.00  0.00    -0.241 OA
ATOM     24  O   LIG d   1      10.585  72.361 117.340  0.00  0.00    -0.241 OA
ENDBRANCH   3  22
TORSDOF 7
ENDMDL
