MODEL 1
REMARK VINA RESULT:      -5.6      0.000      0.000
REMARK  7 active torsions:
REMARK  status: ('A' for Active; 'I' for Inactive)
REMARK    1  A    between atoms: C_2  and  C_3 
REMARK    2  A    between atoms: C_3  and  O_6 
REMARK    3  A    between atoms: C_3  and  C_4 
REMARK    4  A    between atoms: C_7  and  O_6 
REMARK    5  A    between atoms: C_9  and  C_10 
REMARK    6  A    between atoms: N_15  and  C_14 
REMARK    7  A    between atoms: N_20  and  C_19 
REMARK       I    between atoms: C_22  and  N_20 
ROOT
ATOM      1  C   LIG d   1       1.908  85.892 114.339  0.00  0.00     0.161 C 
ATOM      2  C   LIG d   1       2.397  87.181 114.071  0.00  0.00     0.016 C 
ATOM      3  C   LIG d   1       3.717  87.590 114.370  0.00  0.00     0.038 C 
ATOM      4  C   LIG d   1       4.689  86.686 114.822  0.00  0.00     0.028 C 
ATOM      5  C   LIG d   1       4.105  85.499 115.582  0.00  0.00    -0.047 C 
ATOM      6  C   LIG d   1       2.985  84.860 114.730  0.00  0.00     0.091 C 
ENDROOT
BRANCH   1   7
ATOM      7  O   LIG d   1       1.142  85.416 113.214  0.00  0.00    -0.368 OA
BRANCH   7   8
ATOM      8  C   LIG d   1       1.101  86.287 112.057  0.00  0.00     0.119 C 
BRANCH   8   9
ATOM      9  C   LIG d   1      -0.380  86.484 111.678  0.00  0.00     0.028 C 
ATOM     10  C   LIG d   1      -0.790  85.643 110.458  0.00  0.00     0.006 C 
ENDBRANCH   8   9
BRANCH   8  11
ATOM     11  C   LIG d   1       1.747  85.624 110.837  0.00  0.00     0.028 C 
ATOM     12  C   LIG d   1       3.276  85.521 110.954  0.00  0.00     0.006 C 
ENDBRANCH   8  11
ENDBRANCH   7   8
ENDBRANCH   1   7
BRANCH   6  13
ATOM     13  N   LIG d   1       2.304  83.743 115.436  0.00  0.00    -0.311 N 
ATOM     14  C   LIG d   1       2.679  82.470 115.329  0.00  0.00     0.210 C 
ATOM     15  C   LIG d   1       1.828  81.476 116.124  0.00  0.00     0.109 C 
ATOM     16  O   LIG d   1       3.657  82.074 114.676  0.00  0.00    -0.276 OA
ATOM     17  H   LIG d   1       1.520  83.979 116.012  0.00  0.00     0.149 HD
ENDBRANCH   6  13
BRANCH   5  18
ATOM     18  N   LIG d   1       5.212  84.569 115.875  0.00  0.00     0.381 N 
ATOM     19  H   LIG d   1       6.024  85.085 116.152  0.00  0.00    -0.090 HD
ATOM     20  H   LIG d   1       5.434  84.055 115.041  0.00  0.00    -0.090 HD
ATOM     21  H   LIG d   1       4.946  83.940 116.600  0.00  0.00    -0.090 HD
ENDBRANCH   5  18
BRANCH   3  22
ATOM     22  C   LIG d   1       4.066  88.927 114.254  0.00  0.00     0.382 C 
ATOM     23  O   LIG d   1       4.391  89.396 113.136  0.00  0.00    -0.241 OA
ATOM     24  O   LIG d   1       4.101  89.661 115.260  0.00  0.00    -0.241 OA
ENDBRANCH   3  22
TORSDOF 7
ENDMDL
MODEL 2
REMARK VINA RESULT:      -5.5     24.510     27.467
REMARK  7 active torsions:
REMARK  status: ('A' for Active; 'I' for Inactive)
REMARK    1  A    between atoms: C_2  and  C_3 
REMARK    2  A    between atoms: C_3  and  O_6 
REMARK    3  A    between atoms: C_3  and  C_4 
REMARK    4  A    between atoms: C_7  and  O_6 
REMARK    5  A    between atoms: C_9  and  C_10 
REMARK    6  A    between atoms: N_15  and  C_14 
REMARK    7  A    between atoms: N_20  and  C_19 
REMARK       I    between atoms: C_22  and  N_20 
ROOT
ATOM      1  C   LIG d   1     -16.241  66.056 113.962  0.00  0.00     0.161 C 
ATOM      2  C   LIG d   1     -15.600  66.727 112.908  0.00  0.00     0.016 C 
ATOM      3  C   LIG d   1     -14.889  67.938 113.074  0.00  0.00     0.038 C 
ATOM      4  C   LIG d   1     -14.642  68.484 114.343  0.00  0.00     0.028 C 
ATOM      5  C   LIG d   1     -15.698  68.112 115.378  0.00  0.00    -0.047 C 
ATOM      6  C   LIG d   1     -15.889  66.578 115.371  0.00  0.00     0.091 C 
ENDROOT
BRANCH   1   7
ATOM      7  O   LIG d   1     -15.979  64.642 113.872  0.00  0.00    -0.368 OA
BRANCH   7   8
ATOM      8  C   LIG d   1     -17.092  63.812 113.456  0.00  0.00     0.119 C 
BRANCH   8   9
ATOM      9  C   LIG d   1     -18.346  64.708 113.412  0.00  0.00     0.028 C 
ATOM     10  C   LIG d   1     -19.165  64.507 112.126  0.00  0.00     0.006 C 
ENDBRANCH   8   9
BRANCH   8  11
ATOM     11  C   LIG d   1     -17.402  62.732 114.497  0.00  0.00     0.028 C 
ATOM     12  C   LIG d   1     -17.892  61.420 113.865  0.00  0.00     0.006 C 
ENDBRANCH   8  11
ENDBRANCH   7   8
ENDBRANCH   1   7
BRANCH   6  13
ATOM     13  N   LIG d   1     -16.965  66.137 116.296  0.00  0.00    -0.311 N 
ATOM     14  C   LIG d   1     -16.789  65.211 117.237  0.00  0.00     0.210 C 
ATOM     15  C   LIG d   1     -18.034  64.890 118.069  0.00  0.00     0.109 C 
ATOM     16  O   LIG d   1     -15.711  64.649 117.483  0.00  0.00    -0.276 OA
ATOM     17  H   LIG d   1     -17.864  66.564 116.187  0.00  0.00     0.149 HD
ENDBRANCH   6  13
BRANCH   5  18
ATOM     18  N   LIG d   1     -15.245  68.632 116.683  0.00  0.00     0.381 N 
ATOM     19  H   LIG d   1     -14.417  68.150 116.970  0.00  0.00    -0.090 HD
ATOM     20  H   LIG d   1     -15.962  68.463 117.366  0.00  0.00    -0.090 HD
ATOM     21  H   LIG d   1     -15.063  69.609 116.616  0.00  0.00    -0.090 HD
ENDBRANCH   5  18
BRANCH   3  22
ATOM     22  C   LIG d   1     -14.450  68.636 111.960  0.00  0.00     0.382 C 
ATOM     23  O   LIG d   1     -15.035  68.491 110.859  0.00  0.00    -0.241 OA
ATOM     24  O   LIG d   1     -13.450  69.375 112.030  0.00  0.00    -0.241 OA
ENDBRANCH   3  22
TORSDOF 7
ENDMDL
MODEL 3
REMARK VINA RESULT:      -5.4      7.571      9.728
REMARK  7 active torsions:
REMARK  status: ('A' for Active; 'I' for Inactive)
REMARK    1  A    between atoms: C_2  and  C_3 
REMARK    2  A    between atoms: C_3  and  O_6 
REMARK    3  A    between atoms: C_3  and  C_4 
REMARK    4  A    between atoms: C_7  and  O_6 
REMARK    5  A    between atoms: C_9  and  C_10 
REMARK    6  A    between atoms: N_15  and  C_14 
REMARK    7  A    between atoms: N_20  and  C_19 
REMARK       I    between atoms: C_22  and  N_20 
ROOT
ATOM      1  C   LIG d   1      -1.436  78.318 114.820  0.00  0.00     0.161 C 
ATOM      2  C   LIG d   1      -1.996  79.535 114.398  0.00  0.00     0.016 C 
ATOM      3  C   LIG d   1      -2.067  79.929 113.042  0.00  0.00     0.038 C 
ATOM      4  C   LIG d   1      -1.717  79.060 111.998  0.00  0.00     0.028 C 
ATOM      5  C   LIG d   1      -0.678  78.019 112.398  0.00  0.00    -0.047 C 
ATOM      6  C   LIG d   1      -1.150  77.309 113.688  0.00  0.00     0.091 C 
ENDROOT
BRANCH   1   7
ATOM      7  O   LIG d   1      -2.275  77.717 115.827  0.00  0.00    -0.368 OA
BRANCH   7   8
ATOM      8  C   LIG d   1      -3.699  77.947 115.689  0.00  0.00     0.119 C 
BRANCH   8   9
ATOM      9  C   LIG d   1      -4.219  78.451 117.049  0.00  0.00     0.028 C 
ATOM     10  C   LIG d   1      -4.485  79.966 117.050  0.00  0.00     0.006 C 
ENDBRANCH   8   9
BRANCH   8  11
ATOM     11  C   LIG d   1      -4.451  76.639 115.427  0.00  0.00     0.028 C 
ATOM     12  C   LIG d   1      -4.663  76.364 113.930  0.00  0.00     0.006 C 
ENDBRANCH   8  11
ENDBRANCH   7   8
ENDBRANCH   1   7
BRANCH   6  13
ATOM     13  N   LIG d   1      -0.151  76.333 114.196  0.00  0.00    -0.311 N 
ATOM     14  C   LIG d   1      -0.474  75.127 114.658  0.00  0.00     0.210 C 
ATOM     15  C   LIG d   1       0.707  74.286 115.152  0.00  0.00     0.109 C 
ATOM     16  O   LIG d   1      -1.623  74.660 114.675  0.00  0.00    -0.276 OA
ATOM     17  H   LIG d   1       0.809  76.618 114.189  0.00  0.00     0.149 HD
ENDBRANCH   6  13
BRANCH   5  18
ATOM     18  N   LIG d   1      -0.509  77.097 111.260  0.00  0.00     0.381 N 
ATOM     19  H   LIG d   1       0.045  76.312 111.539  0.00  0.00    -0.090 HD
ATOM     20  H   LIG d   1      -0.025  77.577 110.522  0.00  0.00    -0.090 HD
ATOM     21  H   LIG d   1      -1.399  76.787 110.937  0.00  0.00    -0.090 HD
ENDBRANCH   5  18
BRANCH   3  22
ATOM     22  C   LIG d   1      -2.456  81.221 112.721  0.00  0.00     0.382 C 
ATOM     23  O   LIG d   1      -3.653  81.569 112.863  0.00  0.00    -0.241 OA
ATOM     24  O   LIG d   1      -1.633  82.030 112.251  0.00  0.00    -0.241 OA
ENDBRANCH   3  22
TORSDOF 7
ENDMDL
MODEL 4
REMARK VINA RESULT:      -5.3      2.383      4.393
REMARK  7 active torsions:
REMARK  status: ('A' for Active; 'I' for Inactive)
REMARK    1  A    between atoms: C_2  and  C_3 
REMARK    2  A    between atoms: C_3  and  O_6 
REMARK    3  A    between atoms: C_3  and  C_4 
REMARK    4  A    between atoms: C_7  and  O_6 
REMARK    5  A    between atoms: C_9  and  C_10 
REMARK    6  A    between atoms: N_15  and  C_14 
REMARK    7  A    between atoms: N_20  and  C_19 
REMARK       I    between atoms: C_22  and  N_20 
ROOT
ATOM      1  C   LIG d   1       4.287  85.391 112.340  0.00  0.00     0.161 C 
ATOM      2  C   LIG d   1       4.759  86.575 112.932  0.00  0.00     0.016 C 
ATOM      3  C   LIG d   1       3.954  87.719 113.133  0.00  0.00     0.038 C 
ATOM      4  C   LIG d   1       2.572  87.705 112.892  0.00  0.00     0.028 C 
ATOM      5  C   LIG d   1       2.153  86.699 111.825  0.00  0.00    -0.047 C 
ATOM      6  C   LIG d   1       2.755  85.319 112.173  0.00  0.00     0.091 C 
ENDROOT
BRANCH   1   7
ATOM      7  O   LIG d   1       4.765  84.251 113.081  0.00  0.00    -0.368 OA
BRANCH   7   8
ATOM      8  C   LIG d   1       4.027  83.916 114.283  0.00  0.00     0.119 C 
BRANCH   8   9
ATOM      9  C   LIG d   1       4.999  84.044 115.472  0.00  0.00     0.028 C 
ATOM     10  C   LIG d   1       4.556  85.119 116.479  0.00  0.00     0.006 C 
ENDBRANCH   8   9
BRANCH   8  11
ATOM     11  C   LIG d   1       3.585  82.450 114.275  0.00  0.00     0.028 C 
ATOM     12  C   LIG d   1       4.194  81.650 113.113  0.00  0.00     0.006 C 
ENDBRANCH   8  11
ENDBRANCH   7   8
ENDBRANCH   1   7
BRANCH   6  13
ATOM     13  N   LIG d   1       2.463  84.295 111.136  0.00  0.00    -0.311 N 
ATOM     14  C   LIG d   1       1.459  83.425 111.226  0.00  0.00     0.210 C 
ATOM     15  C   LIG d   1       1.348  82.443 110.056  0.00  0.00     0.109 C 
ATOM     16  O   LIG d   1       0.630  83.395 112.147  0.00  0.00    -0.276 OA
ATOM     17  H   LIG d   1       3.068  84.269 110.338  0.00  0.00     0.149 HD
ENDBRANCH   6  13
BRANCH   5  18
ATOM     18  N   LIG d   1       0.679  86.692 111.774  0.00  0.00     0.381 N 
ATOM     19  H   LIG d   1       0.371  86.193 110.963  0.00  0.00    -0.090 HD
ATOM     20  H   LIG d   1       0.351  87.639 111.706  0.00  0.00    -0.090 HD
ATOM     21  H   LIG d   1       0.312  86.264 112.595  0.00  0.00    -0.090 HD
ENDBRANCH   5  18
BRANCH   3  22
ATOM     22  C   LIG d   1       4.539  88.908 113.542  0.00  0.00     0.382 C 
ATOM     23  O   LIG d   1       5.605  89.299 113.008  0.00  0.00    -0.241 OA
ATOM     24  O   LIG d   1       4.039  89.572 114.470  0.00  0.00    -0.241 OA
ENDBRANCH   3  22
TORSDOF 7
ENDMDL
MODEL 5
REMARK VINA RESULT:      -5.2      2.445      4.585
REMARK  7 active torsions:
REMARK  status: ('A' for Active; 'I' for Inactive)
REMARK    1  A    between atoms: C_2  and  C_3 
REMARK    2  A    between atoms: C_3  and  O_6 
REMARK    3  A    between atoms: C_3  and  C_4 
REMARK    4  A    between atoms: C_7  and  O_6 
REMARK    5  A    between atoms: C_9  and  C_10 
REMARK    6  A    between atoms: N_15  and  C_14 
REMARK    7  A    between atoms: N_20  and  C_19 
REMARK       I    between atoms: C_22  and  N_20 
ROOT
ATOM      1  C   LIG d   1       3.835  84.617 112.723  0.00  0.00     0.161 C 
ATOM      2  C   LIG d   1       4.419  85.823 113.145  0.00  0.00     0.016 C 
ATOM      3  C   LIG d   1       3.885  87.095 112.839  0.00  0.00     0.038 C 
ATOM      4  C   LIG d   1       2.639  87.245 112.212  0.00  0.00     0.028 C 
ATOM      5  C   LIG d   1       2.262  86.065 111.323  0.00  0.00    -0.047 C 
ATOM      6  C   LIG d   1       2.416  84.757 112.133  0.00  0.00     0.091 C 
ENDROOT
BRANCH   1   7
ATOM      7  O   LIG d   1       3.835  83.668 113.807  0.00  0.00    -0.368 OA
BRANCH   7   8
ATOM      8  C   LIG d   1       3.929  84.224 115.142  0.00  0.00     0.119 C 
BRANCH   8   9
ATOM      9  C   LIG d   1       4.743  83.236 115.999  0.00  0.00     0.028 C 
ATOM     10  C   LIG d   1       4.277  81.781 115.818  0.00  0.00     0.006 C 
ENDBRANCH   8   9
BRANCH   8  11
ATOM     11  C   LIG d   1       2.554  84.305 115.811  0.00  0.00     0.028 C 
ATOM     12  C   LIG d   1       2.090  85.751 116.047  0.00  0.00     0.006 C 
ENDBRANCH   8  11
ENDBRANCH   7   8
ENDBRANCH   1   7
BRANCH   6  13
ATOM     13  N   LIG d   1       2.147  83.547 111.313  0.00  0.00    -0.311 N 
ATOM     14  C   LIG d   1       0.953  82.962 111.238  0.00  0.00     0.210 C 
ATOM     15  C   LIG d   1       0.899  81.714 110.351  0.00  0.00     0.109 C 
ATOM     16  O   LIG d   1      -0.074  83.377 111.796  0.00  0.00    -0.276 OA
ATOM     17  H   LIG d   1       2.918  83.162 110.803  0.00  0.00     0.149 HD
ENDBRANCH   6  13
BRANCH   5  18
ATOM     18  N   LIG d   1       0.885  86.290 110.843  0.00  0.00     0.381 N 
ATOM     19  H   LIG d   1       0.655  87.260 110.917  0.00  0.00    -0.090 HD
ATOM     20  H   LIG d   1       0.250  85.770 111.424  0.00  0.00    -0.090 HD
ATOM     21  H   LIG d   1       0.801  85.991 109.896  0.00  0.00    -0.090 HD
ENDBRANCH   5  18
BRANCH   3  22
ATOM     22  C   LIG d   1       4.620  88.236 113.124  0.00  0.00     0.382 C 
ATOM     23  O   LIG d   1       5.872  88.207 113.062  0.00  0.00    -0.241 OA
ATOM     24  O   LIG d   1       4.048  89.281 113.487  0.00  0.00    -0.241 OA
ENDBRANCH   3  22
TORSDOF 7
ENDMDL
MODEL 6
REMARK VINA RESULT:      -5.2     25.598     28.770
REMARK  7 active torsions:
REMARK  status: ('A' for Active; 'I' for Inactive)
REMARK    1  A    between atoms: C_2  and  C_3 
REMARK    2  A    between atoms: C_3  and  O_6 
REMARK    3  A    between atoms: C_3  and  C_4 
REMARK    4  A    between atoms: C_7  and  O_6 
REMARK    5  A    between atoms: C_9  and  C_10 
REMARK    6  A    between atoms: N_15  and  C_14 
REMARK    7  A    between atoms: N_20  and  C_19 
REMARK       I    between atoms: C_22  and  N_20 
ROOT
ATOM      1  C   LIG d   1     -15.931  64.477 116.091  0.00  0.00     0.161 C 
ATOM      2  C   LIG d   1     -15.278  65.692 116.354  0.00  0.00     0.016 C 
ATOM      3  C   LIG d   1     -15.144  66.726 115.400  0.00  0.00     0.038 C 
ATOM      4  C   LIG d   1     -15.790  66.675 114.156  0.00  0.00     0.028 C 
ATOM      5  C   LIG d   1     -16.037  65.255 113.659  0.00  0.00    -0.047 C 
ATOM      6  C   LIG d   1     -16.738  64.448 114.776  0.00  0.00     0.091 C 
ENDROOT
BRANCH   1   7
ATOM      7  O   LIG d   1     -16.776  64.124 117.205  0.00  0.00    -0.368 OA
BRANCH   7   8
ATOM      8  C   LIG d   1     -18.151  64.572 117.129  0.00  0.00     0.119 C 
BRANCH   8   9
ATOM      9  C   LIG d   1     -18.364  65.607 118.250  0.00  0.00     0.028 C 
ATOM     10  C   LIG d   1     -18.535  67.036 117.707  0.00  0.00     0.006 C 
ENDBRANCH   8   9
BRANCH   8  11
ATOM     11  C   LIG d   1     -19.127  63.433 117.438  0.00  0.00     0.028 C 
ATOM     12  C   LIG d   1     -18.421  62.081 117.631  0.00  0.00     0.006 C 
ENDBRANCH   8  11
ENDBRANCH   7   8
ENDBRANCH   1   7
BRANCH   6  13
ATOM     13  N   LIG d   1     -16.942  63.024 114.404  0.00  0.00    -0.311 N 
ATOM     14  C   LIG d   1     -18.081  62.553 113.901  0.00  0.00     0.210 C 
ATOM     15  C   LIG d   1     -18.085  61.050 113.605  0.00  0.00     0.109 C 
ATOM     16  O   LIG d   1     -19.079  63.243 113.642  0.00  0.00    -0.276 OA
ATOM     17  H   LIG d   1     -16.173  62.399 114.552  0.00  0.00     0.149 HD
ENDBRANCH   6  13
BRANCH   5  18
ATOM     18  N   LIG d   1     -16.837  65.347 112.423  0.00  0.00     0.381 N 
ATOM     19  H   LIG d   1     -17.518  64.614 112.405  0.00  0.00    -0.090 HD
ATOM     20  H   LIG d   1     -16.228  65.232 111.633  0.00  0.00    -0.090 HD
ATOM     21  H   LIG d   1     -17.291  66.233 112.377  0.00  0.00    -0.090 HD
ENDBRANCH   5  18
BRANCH   3  22
ATOM     22  C   LIG d   1     -14.323  67.810 115.671  0.00  0.00     0.382 C 
ATOM     23  O   LIG d   1     -14.494  68.895 115.064  0.00  0.00    -0.241 OA
ATOM     24  O   LIG d   1     -13.385  67.704 116.484  0.00  0.00    -0.241 OA
ENDBRANCH   3  22
TORSDOF 7
ENDMDL
MODEL 7
REMARK VINA RESULT:      -5.1      3.055      5.565
REMARK  7 active torsions:
REMARK  status: ('A' for Active; 'I' for Inactive)
REMARK    1  A    between atoms: C_2  and  C_3 
REMARK    2  A    between atoms: C_3  and  O_6 
REMARK    3  A    between atoms: C_3  and  C_4 
REMARK    4  A    between atoms: C_7  and  O_6 
REMARK    5  A    between atoms: C_9  and  C_10 
REMARK    6  A    between atoms: N_15  and  C_14 
REMARK    7  A    between atoms: N_20  and  C_19 
REMARK       I    between atoms: C_22  and  N_20 
ROOT
ATOM      1  C   LIG d   1       2.935  87.866 114.809  0.00  0.00     0.161 C 
ATOM      2  C   LIG d   1       2.802  86.892 113.805  0.00  0.00     0.016 C 
ATOM      3  C   LIG d   1       3.746  86.709 112.768  0.00  0.00     0.038 C 
ATOM      4  C   LIG d   1       4.971  87.393 112.752  0.00  0.00     0.028 C 
ATOM      5  C   LIG d   1       4.922  88.742 113.461  0.00  0.00    -0.047 C 
ATOM      6  C   LIG d   1       4.319  88.546 114.871  0.00  0.00     0.091 C 
ENDROOT
BRANCH   1   7
ATOM      7  O   LIG d   1       2.599  87.297 116.089  0.00  0.00    -0.368 OA
BRANCH   7   8
ATOM      8  C   LIG d   1       2.881  85.885 116.253  0.00  0.00     0.119 C 
BRANCH   8   9
ATOM      9  C   LIG d   1       1.810  85.305 117.197  0.00  0.00     0.028 C 
ATOM     10  C   LIG d   1       1.756  83.769 117.151  0.00  0.00     0.006 C 
ENDBRANCH   8   9
BRANCH   8  11
ATOM     11  C   LIG d   1       4.216  85.663 116.970  0.00  0.00     0.028 C 
ATOM     12  C   LIG d   1       5.283  85.033 116.062  0.00  0.00     0.006 C 
ENDBRANCH   8  11
ENDBRANCH   7   8
ENDBRANCH   1   7
BRANCH   6  13
ATOM     13  N   LIG d   1       4.157  89.829 115.602  0.00  0.00    -0.311 N 
ATOM     14  C   LIG d   1       4.658  90.050 116.816  0.00  0.00     0.210 C 
ATOM     15  C   LIG d   1       4.359  91.435 117.397  0.00  0.00     0.109 C 
ATOM     16  O   LIG d   1       5.350  89.242 117.454  0.00  0.00    -0.276 OA
ATOM     17  H   LIG d   1       3.636  90.552 115.145  0.00  0.00     0.149 HD
ENDBRANCH   6  13
BRANCH   5  18
ATOM     18  N   LIG d   1       6.295  89.281 113.489  0.00  0.00     0.381 N 
ATOM     19  H   LIG d   1       6.312  90.137 114.006  0.00  0.00    -0.090 HD
ATOM     20  H   LIG d   1       6.587  89.475 112.548  0.00  0.00    -0.090 HD
ATOM     21  H   LIG d   1       6.912  88.620 113.907  0.00  0.00    -0.090 HD
ENDBRANCH   5  18
BRANCH   3  22
ATOM     22  C   LIG d   1       3.450  85.863 111.711  0.00  0.00     0.382 C 
ATOM     23  O   LIG d   1       2.702  86.256 110.783  0.00  0.00    -0.241 OA
ATOM     24  O   LIG d   1       3.885  84.696 111.694  0.00  0.00    -0.241 OA
ENDBRANCH   3  22
TORSDOF 7
ENDMDL
MODEL 8
REMARK VINA RESULT:      -5.0      2.530      5.991
REMARK  7 active torsions:
REMARK  status: ('A' for Active; 'I' for Inactive)
REMARK    1  A    between atoms: C_2  and  C_3 
REMARK    2  A    between atoms: C_3  and  O_6 
REMARK    3  A    between atoms: C_3  and  C_4 
REMARK    4  A    between atoms: C_7  and  O_6 
REMARK    5  A    between atoms: C_9  and  C_10 
REMARK    6  A    between atoms: N_15  and  C_14 
REMARK    7  A    between atoms: N_20  and  C_19 
REMARK       I    between atoms: C_22  and  N_20 
ROOT
ATOM      1  C   LIG d   1       2.590  84.709 113.338  0.00  0.00     0.161 C 
ATOM      2  C   LIG d   1       1.927  83.812 112.485  0.00  0.00     0.016 C 
ATOM      3  C   LIG d   1       1.109  84.223 111.407  0.00  0.00     0.038 C 
ATOM      4  C   LIG d   1       1.020  85.567 111.015  0.00  0.00     0.028 C 
ATOM      5  C   LIG d   1       1.269  86.548 112.155  0.00  0.00    -0.047 C 
ATOM      6  C   LIG d   1       2.594  86.175 112.857  0.00  0.00     0.091 C 
ENDROOT
BRANCH   1   7
ATOM      7  O   LIG d   1       3.938  84.255 113.572  0.00  0.00    -0.368 OA
BRANCH   7   8
ATOM      8  C   LIG d   1       4.184  83.622 114.852  0.00  0.00     0.119 C 
BRANCH   8   9
ATOM      9  C   LIG d   1       4.186  82.098 114.622  0.00  0.00     0.028 C 
ATOM     10  C   LIG d   1       4.768  81.712 113.252  0.00  0.00     0.006 C 
ENDBRANCH   8   9
BRANCH   8  11
ATOM     11  C   LIG d   1       3.037  83.883 115.832  0.00  0.00     0.028 C 
ATOM     12  C   LIG d   1       2.459  82.590 116.431  0.00  0.00     0.006 C 
ENDBRANCH   8  11
ENDBRANCH   7   8
ENDBRANCH   1   7
BRANCH   6  13
ATOM     13  N   LIG d   1       2.871  87.035 114.038  0.00  0.00    -0.311 N 
ATOM     14  C   LIG d   1       3.572  88.165 113.973  0.00  0.00     0.210 C 
ATOM     15  C   LIG d   1       3.758  88.888 115.311  0.00  0.00     0.109 C 
ATOM     16  O   LIG d   1       4.030  88.655 112.930  0.00  0.00    -0.276 OA
ATOM     17  H   LIG d   1       2.509  86.728 114.920  0.00  0.00     0.149 HD
ENDBRANCH   6  13
BRANCH   5  18
ATOM     18  N   LIG d   1       1.282  87.906 111.579  0.00  0.00     0.381 N 
ATOM     19  H   LIG d   1       2.137  88.054 111.080  0.00  0.00    -0.090 HD
ATOM     20  H   LIG d   1       1.232  88.577 112.325  0.00  0.00    -0.090 HD
ATOM     21  H   LIG d   1       0.506  88.024 110.965  0.00  0.00    -0.090 HD
ENDBRANCH   5  18
BRANCH   3  22
ATOM     22  C   LIG d   1       0.337  83.288 110.734  0.00  0.00     0.382 C 
ATOM     23  O   LIG d   1       0.891  82.390 110.055  0.00  0.00    -0.241 OA
ATOM     24  O   LIG d   1      -0.906  83.357 110.761  0.00  0.00    -0.241 OA
ENDBRANCH   3  22
TORSDOF 7
ENDMDL
MODEL 9
REMARK VINA RESULT:      -4.9      2.389      5.078
REMARK  7 active torsions:
REMARK  status: ('A' for Active; 'I' for Inactive)
REMARK    1  A    between atoms: C_2  and  C_3 
REMARK    2  A    between atoms: C_3  and  O_6 
REMARK    3  A    between atoms: C_3  and  C_4 
REMARK    4  A    between atoms: C_7  and  O_6 
REMARK    5  A    between atoms: C_9  and  C_10 
REMARK    6  A    between atoms: N_15  and  C_14 
REMARK    7  A    between atoms: N_20  and  C_19 
REMARK       I    between atoms: C_22  and  N_20 
ROOT
ATOM      1  C   LIG d   1       2.162  85.444 114.721  0.00  0.00     0.161 C 
ATOM      2  C   LIG d   1       3.254  84.886 115.407  0.00  0.00     0.016 C 
ATOM      3  C   LIG d   1       4.084  83.880 114.860  0.00  0.00     0.038 C 
ATOM      4  C   LIG d   1       3.970  83.470 113.523  0.00  0.00     0.028 C 
ATOM      5  C   LIG d   1       2.565  83.642 112.955  0.00  0.00    -0.047 C 
ATOM      6  C   LIG d   1       2.089  85.088 113.222  0.00  0.00     0.091 C 
ENDROOT
BRANCH   1   7
ATOM      7  O   LIG d   1       2.154  86.874 114.898  0.00  0.00    -0.368 OA
BRANCH   7   8
ATOM      8  C   LIG d   1       3.448  87.503 115.070  0.00  0.00     0.119 C 
BRANCH   8   9
ATOM      9  C   LIG d   1       3.279  88.637 116.098  0.00  0.00     0.028 C 
ATOM     10  C   LIG d   1       4.320  89.755 115.916  0.00  0.00     0.006 C 
ENDBRANCH   8   9
BRANCH   8  11
ATOM     11  C   LIG d   1       3.909  88.190 113.781  0.00  0.00     0.028 C 
ATOM     12  C   LIG d   1       4.983  87.387 113.029  0.00  0.00     0.006 C 
ENDBRANCH   8  11
ENDBRANCH   7   8
ENDBRANCH   1   7
BRANCH   6  13
ATOM     13  N   LIG d   1       0.691  85.317 112.772  0.00  0.00    -0.311 N 
ATOM     14  C   LIG d   1       0.294  86.424 112.147  0.00  0.00     0.210 C 
ATOM     15  C   LIG d   1      -1.195  86.465 111.789  0.00  0.00     0.109 C 
ATOM     16  O   LIG d   1       1.040  87.362 111.827  0.00  0.00    -0.276 OA
ATOM     17  H   LIG d   1       0.026  84.593 112.963  0.00  0.00     0.149 HD
ENDBRANCH   6  13
BRANCH   5  18
ATOM     18  N   LIG d   1       2.621  83.307 111.520  0.00  0.00     0.381 N 
ATOM     19  H   LIG d   1       3.533  83.507 111.160  0.00  0.00    -0.090 HD
ATOM     20  H   LIG d   1       1.956  83.876 111.027  0.00  0.00    -0.090 HD
ATOM     21  H   LIG d   1       2.407  82.343 111.386  0.00  0.00    -0.090 HD
ENDBRANCH   5  18
BRANCH   3  22
ATOM     22  C   LIG d   1       5.017  83.246 115.666  0.00  0.00     0.382 C 
ATOM     23  O   LIG d   1       4.871  82.035 115.961  0.00  0.00    -0.241 OA
ATOM     24  O   LIG d   1       5.980  83.881 116.138  0.00  0.00    -0.241 OA
ENDBRANCH   3  22
TORSDOF 7
ENDMDL
