MODEL 1
REMARK VINA RESULT:      -5.6      0.000      0.000
REMARK  7 active torsions:
REMARK  status: ('A' for Active; 'I' for Inactive)
REMARK    1  A    between atoms: C_2  and  C_3 
REMARK    2  A    between atoms: C_3  and  O_6 
REMARK    3  A    between atoms: C_3  and  C_4 
REMARK    4  A    between atoms: C_7  and  O_6 
REMARK    5  A    between atoms: C_9  and  C_10 
REMARK    6  A    between atoms: N_15  and  C_14 
REMARK    7  A    between atoms: N_20  and  C_19 
REMARK       I    between atoms: C_22  and  N_20 
ROOT
ATOM      1  C   LIG d   1       3.762  85.941 112.186  0.00  0.00     0.161 C 
ATOM      2  C   LIG d   1       4.390  87.195 112.096  0.00  0.00     0.016 C 
ATOM      3  C   LIG d   1       4.753  87.966 113.224  0.00  0.00     0.038 C 
ATOM      4  C   LIG d   1       4.648  87.464 114.530  0.00  0.00     0.028 C 
ATOM      5  C   LIG d   1       3.556  86.412 114.689  0.00  0.00    -0.047 C 
ATOM      6  C   LIG d   1       3.741  85.328 113.602  0.00  0.00     0.091 C 
ENDROOT
BRANCH   1   7
ATOM      7  O   LIG d   1       4.367  85.024 111.252  0.00  0.00    -0.368 OA
BRANCH   7   8
ATOM      8  C   LIG d   1       3.558  84.655 110.108  0.00  0.00     0.119 C 
BRANCH   8   9
ATOM      9  C   LIG d   1       2.169  85.294 110.297  0.00  0.00     0.028 C 
ATOM     10  C   LIG d   1       1.026  84.291 110.067  0.00  0.00     0.006 C 
ENDBRANCH   8   9
BRANCH   8  11
ATOM     11  C   LIG d   1       3.308  83.144 110.067  0.00  0.00     0.028 C 
ATOM     12  C   LIG d   1       4.576  82.322 110.346  0.00  0.00     0.006 C 
ENDBRANCH   8  11
ENDBRANCH   7   8
ENDBRANCH   1   7
BRANCH   6  13
ATOM     13  N   LIG d   1       2.664  84.305 113.633  0.00  0.00    -0.311 N 
ATOM     14  C   LIG d   1       2.899  82.996 113.706  0.00  0.00     0.210 C 
ATOM     15  C   LIG d   1       1.647  82.113 113.705  0.00  0.00     0.109 C 
ATOM     16  O   LIG d   1       4.024  82.483 113.804  0.00  0.00    -0.276 OA
ATOM     17  H   LIG d   1       1.720  84.634 113.589  0.00  0.00     0.149 HD
ENDBRANCH   6  13
BRANCH   5  18
ATOM     18  N   LIG d   1       3.649  85.877 116.060  0.00  0.00     0.381 N 
ATOM     19  H   LIG d   1       4.033  84.953 116.038  0.00  0.00    -0.090 HD
ATOM     20  H   LIG d   1       2.725  85.825 116.452  0.00  0.00    -0.090 HD
ATOM     21  H   LIG d   1       4.222  86.469 116.619  0.00  0.00    -0.090 HD
ENDBRANCH   5  18
BRANCH   3  22
ATOM     22  C   LIG d   1       5.190  89.271 113.053  0.00  0.00     0.382 C 
ATOM     23  O   LIG d   1       4.368  90.217 113.093  0.00  0.00    -0.241 OA
ATOM     24  O   LIG d   1       6.389  89.509 112.815  0.00  0.00    -0.241 OA
ENDBRANCH   3  22
TORSDOF 7
ENDMDL
MODEL 2
REMARK VINA RESULT:      -5.6      2.922      6.150
REMARK  7 active torsions:
REMARK  status: ('A' for Active; 'I' for Inactive)
REMARK    1  A    between atoms: C_2  and  C_3 
REMARK    2  A    between atoms: C_3  and  O_6 
REMARK    3  A    between atoms: C_3  and  C_4 
REMARK    4  A    between atoms: C_7  and  O_6 
REMARK    5  A    between atoms: C_9  and  C_10 
REMARK    6  A    between atoms: N_15  and  C_14 
REMARK    7  A    between atoms: N_20  and  C_19 
REMARK       I    between atoms: C_22  and  N_20 
ROOT
ATOM      1  C   LIG d   1       1.595  83.930 112.702  0.00  0.00     0.161 C 
ATOM      2  C   LIG d   1       0.737  82.829 112.547  0.00  0.00     0.016 C 
ATOM      3  C   LIG d   1      -0.505  82.898 111.875  0.00  0.00     0.038 C 
ATOM      4  C   LIG d   1      -0.907  84.046 111.176  0.00  0.00     0.028 C 
ATOM      5  C   LIG d   1      -0.307  85.333 111.730  0.00  0.00    -0.047 C 
ATOM      6  C   LIG d   1       1.225  85.163 111.850  0.00  0.00     0.091 C 
ENDROOT
BRANCH   1   7
ATOM      7  O   LIG d   1       2.955  83.531 112.441  0.00  0.00    -0.368 OA
BRANCH   7   8
ATOM      8  C   LIG d   1       3.207  82.105 112.421  0.00  0.00     0.119 C 
BRANCH   8   9
ATOM      9  C   LIG d   1       4.309  81.815 113.460  0.00  0.00     0.028 C 
ATOM     10  C   LIG d   1       3.828  82.041 114.903  0.00  0.00     0.006 C 
ENDBRANCH   8   9
BRANCH   8  11
ATOM     11  C   LIG d   1       3.791  81.661 111.077  0.00  0.00     0.028 C 
ATOM     12  C   LIG d   1       4.913  82.586 110.579  0.00  0.00     0.006 C 
ENDBRANCH   8  11
ENDBRANCH   7   8
ENDBRANCH   1   7
BRANCH   6  13
ATOM     13  N   LIG d   1       1.881  86.347 112.464  0.00  0.00    -0.311 N 
ATOM     14  C   LIG d   1       2.966  86.929 111.956  0.00  0.00     0.210 C 
ATOM     15  C   LIG d   1       3.493  88.124 112.756  0.00  0.00     0.109 C 
ATOM     16  O   LIG d   1       3.523  86.588 110.901  0.00  0.00    -0.276 OA
ATOM     17  H   LIG d   1       1.475  86.708 113.305  0.00  0.00     0.149 HD
ENDBRANCH   6  13
BRANCH   5  18
ATOM     18  N   LIG d   1      -0.697  86.432 110.826  0.00  0.00     0.381 N 
ATOM     19  H   LIG d   1       0.114  86.799 110.369  0.00  0.00    -0.090 HD
ATOM     20  H   LIG d   1      -1.113  87.168 111.369  0.00  0.00    -0.090 HD
ATOM     21  H   LIG d   1      -1.348  86.101 110.149  0.00  0.00    -0.090 HD
ENDBRANCH   5  18
BRANCH   3  22
ATOM     22  C   LIG d   1      -1.378  81.822 111.932  0.00  0.00     0.382 C 
ATOM     23  O   LIG d   1      -2.532  81.975 112.400  0.00  0.00    -0.241 OA
ATOM     24  O   LIG d   1      -1.011  80.691 111.562  0.00  0.00    -0.241 OA
ENDBRANCH   3  22
TORSDOF 7
ENDMDL
MODEL 3
REMARK VINA RESULT:      -5.5      2.928      6.097
REMARK  7 active torsions:
REMARK  status: ('A' for Active; 'I' for Inactive)
REMARK    1  A    between atoms: C_2  and  C_3 
REMARK    2  A    between atoms: C_3  and  O_6 
REMARK    3  A    between atoms: C_3  and  C_4 
REMARK    4  A    between atoms: C_7  and  O_6 
REMARK    5  A    between atoms: C_9  and  C_10 
REMARK    6  A    between atoms: N_15  and  C_14 
REMARK    7  A    between atoms: N_20  and  C_19 
REMARK       I    between atoms: C_22  and  N_20 
ROOT
ATOM      1  C   LIG d   1       2.008  83.536 111.715  0.00  0.00     0.161 C 
ATOM      2  C   LIG d   1       1.150  82.434 111.567  0.00  0.00     0.016 C 
ATOM      3  C   LIG d   1      -0.250  82.507 111.750  0.00  0.00     0.038 C 
ATOM      4  C   LIG d   1      -0.909  83.729 111.947  0.00  0.00     0.028 C 
ATOM      5  C   LIG d   1      -0.033  84.791 112.604  0.00  0.00    -0.047 C 
ATOM      6  C   LIG d   1       1.295  84.901 111.820  0.00  0.00     0.091 C 
ENDROOT
BRANCH   1   7
ATOM      7  O   LIG d   1       2.970  83.555 110.642  0.00  0.00    -0.368 OA
BRANCH   7   8
ATOM      8  C   LIG d   1       4.358  83.404 111.028  0.00  0.00     0.119 C 
BRANCH   8   9
ATOM      9  C   LIG d   1       4.999  82.389 110.061  0.00  0.00     0.028 C 
ATOM     10  C   LIG d   1       4.293  81.023 110.091  0.00  0.00     0.006 C 
ENDBRANCH   8   9
BRANCH   8  11
ATOM     11  C   LIG d   1       4.485  82.775 112.418  0.00  0.00     0.028 C 
ATOM     12  C   LIG d   1       4.788  83.809 113.514  0.00  0.00     0.006 C 
ENDBRANCH   8  11
ENDBRANCH   7   8
ENDBRANCH   1   7
BRANCH   6  13
ATOM     13  N   LIG d   1       2.244  85.858 112.446  0.00  0.00    -0.311 N 
ATOM     14  C   LIG d   1       2.603  87.010 111.882  0.00  0.00     0.210 C 
ATOM     15  C   LIG d   1       3.609  87.838 112.687  0.00  0.00     0.109 C 
ATOM     16  O   LIG d   1       2.158  87.439 110.806  0.00  0.00    -0.276 OA
ATOM     17  H   LIG d   1       2.629  85.603 113.335  0.00  0.00     0.149 HD
ENDBRANCH   6  13
BRANCH   5  18
ATOM     18  N   LIG d   1      -0.800  86.051 112.622  0.00  0.00     0.381 N 
ATOM     19  H   LIG d   1      -0.405  86.697 111.968  0.00  0.00    -0.090 HD
ATOM     20  H   LIG d   1      -0.739  86.455 113.540  0.00  0.00    -0.090 HD
ATOM     21  H   LIG d   1      -1.752  85.875 112.392  0.00  0.00    -0.090 HD
ENDBRANCH   5  18
BRANCH   3  22
ATOM     22  C   LIG d   1      -1.001  81.342 111.777  0.00  0.00     0.382 C 
ATOM     23  O   LIG d   1      -0.568  80.304 111.220  0.00  0.00    -0.241 OA
ATOM     24  O   LIG d   1      -2.126  81.327 112.312  0.00  0.00    -0.241 OA
ENDBRANCH   3  22
TORSDOF 7
ENDMDL
MODEL 4
REMARK VINA RESULT:      -5.2      3.222      6.511
REMARK  7 active torsions:
REMARK  status: ('A' for Active; 'I' for Inactive)
REMARK    1  A    between atoms: C_2  and  C_3 
REMARK    2  A    between atoms: C_3  and  O_6 
REMARK    3  A    between atoms: C_3  and  C_4 
REMARK    4  A    between atoms: C_7  and  O_6 
REMARK    5  A    between atoms: C_9  and  C_10 
REMARK    6  A    between atoms: N_15  and  C_14 
REMARK    7  A    between atoms: N_20  and  C_19 
REMARK       I    between atoms: C_22  and  N_20 
ROOT
ATOM      1  C   LIG d   1       1.361  86.267 113.287  0.00  0.00     0.161 C 
ATOM      2  C   LIG d   1       0.254  85.650 112.682  0.00  0.00     0.016 C 
ATOM      3  C   LIG d   1       0.316  84.991 111.433  0.00  0.00     0.038 C 
ATOM      4  C   LIG d   1       1.533  84.773 110.770  0.00  0.00     0.028 C 
ATOM      5  C   LIG d   1       2.597  85.816 111.097  0.00  0.00    -0.047 C 
ATOM      6  C   LIG d   1       2.720  85.943 112.632  0.00  0.00     0.091 C 
ENDROOT
BRANCH   1   7
ATOM      7  O   LIG d   1       1.393  85.946 114.692  0.00  0.00    -0.368 OA
BRANCH   7   8
ATOM      8  C   LIG d   1       1.271  87.065 115.605  0.00  0.00     0.119 C 
BRANCH   8   9
ATOM      9  C   LIG d   1       2.561  87.117 116.447  0.00  0.00     0.028 C 
ATOM     10  C   LIG d   1       3.036  88.557 116.702  0.00  0.00     0.006 C 
ENDBRANCH   8   9
BRANCH   8  11
ATOM     11  C   LIG d   1       0.138  86.842 116.611  0.00  0.00     0.028 C 
ATOM     12  C   LIG d   1      -0.876  87.997 116.630  0.00  0.00     0.006 C 
ENDBRANCH   8  11
ENDBRANCH   7   8
ENDBRANCH   1   7
BRANCH   6  13
ATOM     13  N   LIG d   1       3.679  87.003 113.038  0.00  0.00    -0.311 N 
ATOM     14  C   LIG d   1       3.475  88.301 112.816  0.00  0.00     0.210 C 
ATOM     15  C   LIG d   1       4.599  89.224 113.297  0.00  0.00     0.109 C 
ATOM     16  O   LIG d   1       2.455  88.777 112.296  0.00  0.00    -0.276 OA
ATOM     17  H   LIG d   1       4.520  86.708 113.494  0.00  0.00     0.149 HD
ENDBRANCH   6  13
BRANCH   5  18
ATOM     18  N   LIG d   1       3.852  85.390 110.449  0.00  0.00     0.381 N 
ATOM     19  H   LIG d   1       3.948  85.847 109.564  0.00  0.00    -0.090 HD
ATOM     20  H   LIG d   1       3.816  84.399 110.290  0.00  0.00    -0.090 HD
ATOM     21  H   LIG d   1       4.629  85.613 111.032  0.00  0.00    -0.090 HD
ENDBRANCH   5  18
BRANCH   3  22
ATOM     22  C   LIG d   1      -0.854  84.578 110.815  0.00  0.00     0.382 C 
ATOM     23  O   LIG d   1      -1.482  85.368 110.070  0.00  0.00    -0.241 OA
ATOM     24  O   LIG d   1      -1.312  83.439 111.027  0.00  0.00    -0.241 OA
ENDBRANCH   3  22
TORSDOF 7
ENDMDL
MODEL 5
REMARK VINA RESULT:      -5.1      1.949      2.300
REMARK  7 active torsions:
REMARK  status: ('A' for Active; 'I' for Inactive)
REMARK    1  A    between atoms: C_2  and  C_3 
REMARK    2  A    between atoms: C_3  and  O_6 
REMARK    3  A    between atoms: C_3  and  C_4 
REMARK    4  A    between atoms: C_7  and  O_6 
REMARK    5  A    between atoms: C_9  and  C_10 
REMARK    6  A    between atoms: N_15  and  C_14 
REMARK    7  A    between atoms: N_20  and  C_19 
REMARK       I    between atoms: C_22  and  N_20 
ROOT
ATOM      1  C   LIG d   1       2.145  87.018 114.132  0.00  0.00     0.161 C 
ATOM      2  C   LIG d   1       2.897  88.018 113.494  0.00  0.00     0.016 C 
ATOM      3  C   LIG d   1       4.287  88.189 113.687  0.00  0.00     0.038 C 
ATOM      4  C   LIG d   1       5.052  87.268 114.418  0.00  0.00     0.028 C 
ATOM      5  C   LIG d   1       4.254  86.533 115.490  0.00  0.00    -0.047 C 
ATOM      6  C   LIG d   1       2.982  85.936 114.847  0.00  0.00     0.091 C 
ENDROOT
BRANCH   1   7
ATOM      7  O   LIG d   1       1.241  86.409 113.188  0.00  0.00    -0.368 OA
BRANCH   7   8
ATOM      8  C   LIG d   1       1.652  86.445 111.799  0.00  0.00     0.119 C 
BRANCH   8   9
ATOM      9  C   LIG d   1       0.387  86.671 110.948  0.00  0.00     0.028 C 
ATOM     10  C   LIG d   1      -0.776  85.757 111.371  0.00  0.00     0.006 C 
ENDBRANCH   8   9
BRANCH   8  11
ATOM     11  C   LIG d   1       2.207  85.091 111.347  0.00  0.00     0.028 C 
ATOM     12  C   LIG d   1       3.523  85.219 110.563  0.00  0.00     0.006 C 
ENDBRANCH   8  11
ENDBRANCH   7   8
ENDBRANCH   1   7
BRANCH   6  13
ATOM     13  N   LIG d   1       2.102  85.272 115.843  0.00  0.00    -0.311 N 
ATOM     14  C   LIG d   1       2.158  83.970 116.117  0.00  0.00     0.210 C 
ATOM     15  C   LIG d   1       1.148  83.485 117.162  0.00  0.00     0.109 C 
ATOM     16  O   LIG d   1       2.970  83.176 115.619  0.00  0.00    -0.276 OA
ATOM     17  H   LIG d   1       1.434  85.847 116.318  0.00  0.00     0.149 HD
ENDBRANCH   6  13
BRANCH   5  18
ATOM     18  N   LIG d   1       5.138  85.511 116.081  0.00  0.00     0.381 N 
ATOM     19  H   LIG d   1       5.089  85.557 117.079  0.00  0.00    -0.090 HD
ATOM     20  H   LIG d   1       6.085  85.699 115.802  0.00  0.00    -0.090 HD
ATOM     21  H   LIG d   1       4.866  84.604 115.769  0.00  0.00    -0.090 HD
ENDBRANCH   5  18
BRANCH   3  22
ATOM     22  C   LIG d   1       4.919  89.312 113.176  0.00  0.00     0.382 C 
ATOM     23  O   LIG d   1       4.303  90.404 113.114  0.00  0.00    -0.241 OA
ATOM     24  O   LIG d   1       6.082  89.238 112.736  0.00  0.00    -0.241 OA
ENDBRANCH   3  22
TORSDOF 7
ENDMDL
MODEL 6
REMARK VINA RESULT:      -5.1      2.055      3.808
REMARK  7 active torsions:
REMARK  status: ('A' for Active; 'I' for Inactive)
REMARK    1  A    between atoms: C_2  and  C_3 
REMARK    2  A    between atoms: C_3  and  O_6 
REMARK    3  A    between atoms: C_3  and  C_4 
REMARK    4  A    between atoms: C_7  and  O_6 
REMARK    5  A    between atoms: C_9  and  C_10 
REMARK    6  A    between atoms: N_15  and  C_14 
REMARK    7  A    between atoms: N_20  and  C_19 
REMARK       I    between atoms: C_22  and  N_20 
ROOT
ATOM      1  C   LIG d   1       4.294  85.537 113.317  0.00  0.00     0.161 C 
ATOM      2  C   LIG d   1       4.133  86.865 113.746  0.00  0.00     0.016 C 
ATOM      3  C   LIG d   1       3.374  87.825 113.038  0.00  0.00     0.038 C 
ATOM      4  C   LIG d   1       2.595  87.479 111.924  0.00  0.00     0.028 C 
ATOM      5  C   LIG d   1       3.128  86.269 111.165  0.00  0.00    -0.047 C 
ATOM      6  C   LIG d   1       3.361  85.113 112.164  0.00  0.00     0.091 C 
ENDROOT
BRANCH   1   7
ATOM      7  O   LIG d   1       4.147  84.641 114.436  0.00  0.00    -0.368 OA
BRANCH   7   8
ATOM      8  C   LIG d   1       2.788  84.326 114.827  0.00  0.00     0.119 C 
BRANCH   8   9
ATOM      9  C   LIG d   1       2.639  84.688 116.317  0.00  0.00     0.028 C 
ATOM     10  C   LIG d   1       1.275  84.267 116.890  0.00  0.00     0.006 C 
ENDBRANCH   8   9
BRANCH   8  11
ATOM     11  C   LIG d   1       2.519  82.821 114.746  0.00  0.00     0.028 C 
ATOM     12  C   LIG d   1       3.809  81.985 114.730  0.00  0.00     0.006 C 
ENDBRANCH   8  11
ENDBRANCH   7   8
ENDBRANCH   1   7
BRANCH   6  13
ATOM     13  N   LIG d   1       3.962  83.917 111.517  0.00  0.00    -0.311 N 
ATOM     14  C   LIG d   1       3.246  82.883 111.079  0.00  0.00     0.210 C 
ATOM     15  C   LIG d   1       4.064  81.745 110.461  0.00  0.00     0.109 C 
ATOM     16  O   LIG d   1       2.008  82.814 111.114  0.00  0.00    -0.276 OA
ATOM     17  H   LIG d   1       4.958  83.903 111.419  0.00  0.00     0.149 HD
ENDBRANCH   6  13
BRANCH   5  18
ATOM     18  N   LIG d   1       2.148  85.935 110.113  0.00  0.00     0.381 N 
ATOM     19  H   LIG d   1       2.618  85.532 109.328  0.00  0.00    -0.090 HD
ATOM     20  H   LIG d   1       1.695  86.780 109.811  0.00  0.00    -0.090 HD
ATOM     21  H   LIG d   1       1.471  85.296 110.468  0.00  0.00    -0.090 HD
ENDBRANCH   5  18
BRANCH   3  22
ATOM     22  C   LIG d   1       3.421  89.157 113.421  0.00  0.00     0.382 C 
ATOM     23  O   LIG d   1       4.240  89.937 112.878  0.00  0.00    -0.241 OA
ATOM     24  O   LIG d   1       2.685  89.578 114.333  0.00  0.00    -0.241 OA
ENDBRANCH   3  22
TORSDOF 7
ENDMDL
MODEL 7
REMARK VINA RESULT:      -5.1     27.546     29.357
REMARK  7 active torsions:
REMARK  status: ('A' for Active; 'I' for Inactive)
REMARK    1  A    between atoms: C_2  and  C_3 
REMARK    2  A    between atoms: C_3  and  O_6 
REMARK    3  A    between atoms: C_3  and  C_4 
REMARK    4  A    between atoms: C_7  and  O_6 
REMARK    5  A    between atoms: C_9  and  C_10 
REMARK    6  A    between atoms: N_15  and  C_14 
REMARK    7  A    between atoms: N_20  and  C_19 
REMARK       I    between atoms: C_22  and  N_20 
ROOT
ATOM      1  C   LIG d   1     -25.556  85.806 112.876  0.00  0.00     0.161 C 
ATOM      2  C   LIG d   1     -24.428  86.573 113.210  0.00  0.00     0.016 C 
ATOM      3  C   LIG d   1     -23.208  86.011 113.652  0.00  0.00     0.038 C 
ATOM      4  C   LIG d   1     -22.985  84.626 113.645  0.00  0.00     0.028 C 
ATOM      5  C   LIG d   1     -24.261  83.806 113.797  0.00  0.00    -0.047 C 
ATOM      6  C   LIG d   1     -25.296  84.290 112.756  0.00  0.00     0.091 C 
ENDROOT
BRANCH   1   7
ATOM      7  O   LIG d   1     -26.147  86.310 111.662  0.00  0.00    -0.368 OA
BRANCH   7   8
ATOM      8  C   LIG d   1     -26.972  87.494 111.798  0.00  0.00     0.119 C 
BRANCH   8   9
ATOM      9  C   LIG d   1     -28.442  87.051 111.674  0.00  0.00     0.028 C 
ATOM     10  C   LIG d   1     -28.631  85.923 110.646  0.00  0.00     0.006 C 
ENDBRANCH   8   9
BRANCH   8  11
ATOM     11  C   LIG d   1     -26.743  88.469 110.639  0.00  0.00     0.028 C 
ATOM     12  C   LIG d   1     -27.634  89.718 110.726  0.00  0.00     0.006 C 
ENDBRANCH   8  11
ENDBRANCH   7   8
ENDBRANCH   1   7
BRANCH   6  13
ATOM     13  N   LIG d   1     -26.604  83.597 112.891  0.00  0.00    -0.311 N 
ATOM     14  C   LIG d   1     -27.079  82.746 111.984  0.00  0.00     0.210 C 
ATOM     15  C   LIG d   1     -28.456  82.157 112.309  0.00  0.00     0.109 C 
ATOM     16  O   LIG d   1     -26.478  82.397 110.957  0.00  0.00    -0.276 OA
ATOM     17  H   LIG d   1     -27.144  83.798 113.710  0.00  0.00     0.149 HD
ENDBRANCH   6  13
BRANCH   5  18
ATOM     18  N   LIG d   1     -23.900  82.385 113.635  0.00  0.00     0.381 N 
ATOM     19  H   LIG d   1     -24.414  81.828 114.289  0.00  0.00    -0.090 HD
ATOM     20  H   LIG d   1     -22.920  82.274 113.829  0.00  0.00    -0.090 HD
ATOM     21  H   LIG d   1     -24.099  82.086 112.706  0.00  0.00    -0.090 HD
ENDBRANCH   5  18
BRANCH   3  22
ATOM     22  C   LIG d   1     -22.210  86.836 114.145  0.00  0.00     0.382 C 
ATOM     23  O   LIG d   1     -22.280  87.273 115.319  0.00  0.00    -0.241 OA
ATOM     24  O   LIG d   1     -21.262  87.186 113.417  0.00  0.00    -0.241 OA
ENDBRANCH   3  22
TORSDOF 7
ENDMDL
MODEL 8
REMARK VINA RESULT:      -4.9      3.092      6.448
REMARK  7 active torsions:
REMARK  status: ('A' for Active; 'I' for Inactive)
REMARK    1  A    between atoms: C_2  and  C_3 
REMARK    2  A    between atoms: C_3  and  O_6 
REMARK    3  A    between atoms: C_3  and  C_4 
REMARK    4  A    between atoms: C_7  and  O_6 
REMARK    5  A    between atoms: C_9  and  C_10 
REMARK    6  A    between atoms: N_15  and  C_14 
REMARK    7  A    between atoms: N_20  and  C_19 
REMARK       I    between atoms: C_22  and  N_20 
ROOT
ATOM      1  C   LIG d   1       1.586  83.841 111.761  0.00  0.00     0.161 C 
ATOM      2  C   LIG d   1       0.884  82.650 111.515  0.00  0.00     0.016 C 
ATOM      3  C   LIG d   1       1.494  81.476 111.017  0.00  0.00     0.038 C 
ATOM      4  C   LIG d   1       2.885  81.367 110.872  0.00  0.00     0.028 C 
ATOM      5  C   LIG d   1       3.575  82.704 110.629  0.00  0.00    -0.047 C 
ATOM      6  C   LIG d   1       3.123  83.707 111.714  0.00  0.00     0.091 C 
ENDROOT
BRANCH   1   7
ATOM      7  O   LIG d   1       1.170  84.403 113.021  0.00  0.00    -0.368 OA
BRANCH   7   8
ATOM      8  C   LIG d   1       0.695  85.771 112.984  0.00  0.00     0.119 C 
BRANCH   8   9
ATOM      9  C   LIG d   1       0.795  86.335 114.414  0.00  0.00     0.028 C 
ATOM     10  C   LIG d   1       1.069  85.240 115.459  0.00  0.00     0.006 C 
ENDBRANCH   8   9
BRANCH   8  11
ATOM     11  C   LIG d   1      -0.793  85.834 112.626  0.00  0.00     0.028 C 
ATOM     12  C   LIG d   1      -1.036  86.177 111.148  0.00  0.00     0.006 C 
ENDBRANCH   8  11
ENDBRANCH   7   8
ENDBRANCH   1   7
BRANCH   6  13
ATOM     13  N   LIG d   1       3.686  85.066 111.501  0.00  0.00    -0.311 N 
ATOM     14  C   LIG d   1       4.148  85.831 112.488  0.00  0.00     0.210 C 
ATOM     15  C   LIG d   1       4.667  87.205 112.052  0.00  0.00     0.109 C 
ATOM     16  O   LIG d   1       4.207  85.490 113.679  0.00  0.00    -0.276 OA
ATOM     17  H   LIG d   1       3.705  85.409 110.561  0.00  0.00     0.149 HD
ENDBRANCH   6  13
BRANCH   5  18
ATOM     18  N   LIG d   1       5.030  82.463 110.635  0.00  0.00     0.381 N 
ATOM     19  H   LIG d   1       5.495  83.208 111.114  0.00  0.00    -0.090 HD
ATOM     20  H   LIG d   1       5.360  82.444 109.686  0.00  0.00    -0.090 HD
ATOM     21  H   LIG d   1       5.230  81.595 111.081  0.00  0.00    -0.090 HD
ENDBRANCH   5  18
BRANCH   3  22
ATOM     22  C   LIG d   1       0.704  80.407 110.620  0.00  0.00     0.382 C 
ATOM     23  O   LIG d   1       1.229  79.413 110.062  0.00  0.00    -0.241 OA
ATOM     24  O   LIG d   1      -0.531  80.443 110.771  0.00  0.00    -0.241 OA
ENDBRANCH   3  22
TORSDOF 7
ENDMDL
MODEL 9
REMARK VINA RESULT:      -4.9      8.838     12.121
REMARK  7 active torsions:
REMARK  status: ('A' for Active; 'I' for Inactive)
REMARK    1  A    between atoms: C_2  and  C_3 
REMARK    2  A    between atoms: C_3  and  O_6 
REMARK    3  A    between atoms: C_3  and  C_4 
REMARK    4  A    between atoms: C_7  and  O_6 
REMARK    5  A    between atoms: C_9  and  C_10 
REMARK    6  A    between atoms: N_15  and  C_14 
REMARK    7  A    between atoms: N_20  and  C_19 
REMARK       I    between atoms: C_22  and  N_20 
ROOT
ATOM      1  C   LIG d   1      -2.886  77.005 115.023  0.00  0.00     0.161 C 
ATOM      2  C   LIG d   1      -2.582  75.848 115.759  0.00  0.00     0.016 C 
ATOM      3  C   LIG d   1      -1.448  75.733 116.595  0.00  0.00     0.038 C 
ATOM      4  C   LIG d   1      -0.616  76.828 116.872  0.00  0.00     0.028 C 
ATOM      5  C   LIG d   1      -0.597  77.870 115.758  0.00  0.00    -0.047 C 
ATOM      6  C   LIG d   1      -2.052  78.248 115.399  0.00  0.00     0.091 C 
ENDROOT
BRANCH   1   7
ATOM      7  O   LIG d   1      -4.294  77.296 115.130  0.00  0.00    -0.368 OA
BRANCH   7   8
ATOM      8  C   LIG d   1      -5.005  76.621 116.197  0.00  0.00     0.119 C 
BRANCH   8   9
ATOM      9  C   LIG d   1      -6.144  75.808 115.552  0.00  0.00     0.028 C 
ATOM     10  C   LIG d   1      -5.929  75.590 114.045  0.00  0.00     0.006 C 
ENDBRANCH   8   9
BRANCH   8  11
ATOM     11  C   LIG d   1      -5.697  77.623 117.125  0.00  0.00     0.028 C 
ATOM     12  C   LIG d   1      -4.715  78.610 117.777  0.00  0.00     0.006 C 
ENDBRANCH   8  11
ENDBRANCH   7   8
ENDBRANCH   1   7
BRANCH   6  13
ATOM     13  N   LIG d   1      -2.125  79.200 114.260  0.00  0.00    -0.311 N 
ATOM     14  C   LIG d   1      -1.792  78.877 113.012  0.00  0.00     0.210 C 
ATOM     15  C   LIG d   1      -1.923  80.014 111.993  0.00  0.00     0.109 C 
ATOM     16  O   LIG d   1      -1.432  77.748 112.645  0.00  0.00    -0.276 OA
ATOM     17  H   LIG d   1      -2.438  80.130 114.462  0.00  0.00     0.149 HD
ENDBRANCH   6  13
BRANCH   5  18
ATOM     18  N   LIG d   1       0.198  79.018 116.236  0.00  0.00     0.381 N 
ATOM     19  H   LIG d   1      -0.245  79.428 117.033  0.00  0.00    -0.090 HD
ATOM     20  H   LIG d   1       0.240  79.709 115.508  0.00  0.00    -0.090 HD
ATOM     21  H   LIG d   1       1.118  78.720 116.474  0.00  0.00    -0.090 HD
ENDBRANCH   5  18
BRANCH   3  22
ATOM     22  C   LIG d   1      -1.113  74.499 117.133  0.00  0.00     0.382 C 
ATOM     23  O   LIG d   1      -1.525  74.180 118.274  0.00  0.00    -0.241 OA
ATOM     24  O   LIG d   1      -0.367  73.720 116.510  0.00  0.00    -0.241 OA
ENDBRANCH   3  22
TORSDOF 7
ENDMDL
