MODEL 1
REMARK VINA RESULT:      -5.8      0.000      0.000
REMARK  7 active torsions:
REMARK  status: ('A' for Active; 'I' for Inactive)
REMARK    1  A    between atoms: C_2  and  C_3 
REMARK    2  A    between atoms: C_3  and  O_6 
REMARK    3  A    between atoms: C_3  and  C_4 
REMARK    4  A    between atoms: C_7  and  O_6 
REMARK    5  A    between atoms: C_9  and  C_10 
REMARK    6  A    between atoms: N_15  and  C_14 
REMARK    7  A    between atoms: N_20  and  C_19 
REMARK       I    between atoms: C_22  and  N_20 
ROOT
ATOM      1  C   LIG d   1      -0.482  84.076 113.165  0.00  0.00     0.161 C 
ATOM      2  C   LIG d   1       0.268  85.148 112.653  0.00  0.00     0.016 C 
ATOM      3  C   LIG d   1       0.880  85.131 111.378  0.00  0.00     0.038 C 
ATOM      4  C   LIG d   1       0.656  84.093 110.462  0.00  0.00     0.028 C 
ATOM      5  C   LIG d   1       0.320  82.762 111.125  0.00  0.00    -0.047 C 
ATOM      6  C   LIG d   1      -0.830  82.980 112.135  0.00  0.00     0.091 C 
ENDROOT
BRANCH   1   7
ATOM      7  O   LIG d   1      -1.680  84.573 113.792  0.00  0.00    -0.368 OA
BRANCH   7   8
ATOM      8  C   LIG d   1      -1.730  84.478 115.237  0.00  0.00     0.119 C 
BRANCH   8   9
ATOM      9  C   LIG d   1      -0.384  83.894 115.709  0.00  0.00     0.028 C 
ATOM     10  C   LIG d   1       0.410  84.881 116.581  0.00  0.00     0.006 C 
ENDBRANCH   8   9
BRANCH   8  11
ATOM     11  C   LIG d   1      -2.791  83.473 115.693  0.00  0.00     0.028 C 
ATOM     12  C   LIG d   1      -2.259  82.479 116.739  0.00  0.00     0.006 C 
ENDBRANCH   8  11
ENDBRANCH   7   8
ENDBRANCH   1   7
BRANCH   6  13
ATOM     13  N   LIG d   1      -1.164  81.744 112.889  0.00  0.00    -0.311 N 
ATOM     14  C   LIG d   1      -2.409  81.302 113.057  0.00  0.00     0.210 C 
ATOM     15  C   LIG d   1      -2.534  80.019 113.885  0.00  0.00     0.109 C 
ATOM     16  O   LIG d   1      -3.420  81.834 112.573  0.00  0.00    -0.276 OA
ATOM     17  H   LIG d   1      -0.402  81.234 113.289  0.00  0.00     0.149 HD
ENDBRANCH   6  13
BRANCH   5  18
ATOM     18  N   LIG d   1      -0.025  81.806 110.055  0.00  0.00     0.381 N 
ATOM     19  H   LIG d   1      -0.739  81.183 110.375  0.00  0.00    -0.090 HD
ATOM     20  H   LIG d   1       0.790  81.262 109.831  0.00  0.00    -0.090 HD
ATOM     21  H   LIG d   1      -0.339  82.297 109.247  0.00  0.00    -0.090 HD
ENDBRANCH   5  18
BRANCH   3  22
ATOM     22  C   LIG d   1       1.759  86.143 111.025  0.00  0.00     0.382 C 
ATOM     23  O   LIG d   1       2.983  85.895 110.899  0.00  0.00    -0.241 OA
ATOM     24  O   LIG d   1       1.352  87.311 110.874  0.00  0.00    -0.241 OA
ENDBRANCH   3  22
TORSDOF 7
ENDMDL
MODEL 2
REMARK VINA RESULT:      -5.7     21.771     25.088
REMARK  7 active torsions:
REMARK  status: ('A' for Active; 'I' for Inactive)
REMARK    1  A    between atoms: C_2  and  C_3 
REMARK    2  A    between atoms: C_3  and  O_6 
REMARK    3  A    between atoms: C_3  and  C_4 
REMARK    4  A    between atoms: C_7  and  O_6 
REMARK    5  A    between atoms: C_9  and  C_10 
REMARK    6  A    between atoms: N_15  and  C_14 
REMARK    7  A    between atoms: N_20  and  C_19 
REMARK       I    between atoms: C_22  and  N_20 
ROOT
ATOM      1  C   LIG d   1     -16.680  64.851 113.550  0.00  0.00     0.161 C 
ATOM      2  C   LIG d   1     -16.242  65.791 112.602  0.00  0.00     0.016 C 
ATOM      3  C   LIG d   1     -15.558  66.980 112.944  0.00  0.00     0.038 C 
ATOM      4  C   LIG d   1     -15.129  67.238 114.255  0.00  0.00     0.028 C 
ATOM      5  C   LIG d   1     -15.989  66.561 115.317  0.00  0.00    -0.047 C 
ATOM      6  C   LIG d   1     -16.124  65.060 114.973  0.00  0.00     0.091 C 
ENDROOT
BRANCH   1   7
ATOM      7  O   LIG d   1     -16.385  63.518 113.088  0.00  0.00    -0.368 OA
BRANCH   7   8
ATOM      8  C   LIG d   1     -17.527  62.658 112.850  0.00  0.00     0.119 C 
BRANCH   8   9
ATOM      9  C   LIG d   1     -18.794  63.528 112.966  0.00  0.00     0.028 C 
ATOM     10  C   LIG d   1     -19.942  63.014 112.082  0.00  0.00     0.006 C 
ENDBRANCH   8   9
BRANCH   8  11
ATOM     11  C   LIG d   1     -17.663  61.596 113.945  0.00  0.00     0.028 C 
ATOM     12  C   LIG d   1     -17.903  60.187 113.381  0.00  0.00     0.006 C 
ENDBRANCH   8  11
ENDBRANCH   7   8
ENDBRANCH   1   7
BRANCH   6  13
ATOM     13  N   LIG d   1     -17.019  64.341 115.917  0.00  0.00    -0.311 N 
ATOM     14  C   LIG d   1     -16.574  63.617 116.942  0.00  0.00     0.210 C 
ATOM     15  C   LIG d   1     -17.665  62.942 117.779  0.00  0.00     0.109 C 
ATOM     16  O   LIG d   1     -15.381  63.497 117.258  0.00  0.00    -0.276 OA
ATOM     17  H   LIG d   1     -18.004  64.410 115.753  0.00  0.00     0.149 HD
ENDBRANCH   6  13
BRANCH   5  18
ATOM     18  N   LIG d   1     -15.350  66.800 116.626  0.00  0.00     0.381 N 
ATOM     19  H   LIG d   1     -15.200  67.780 116.756  0.00  0.00    -0.090 HD
ATOM     20  H   LIG d   1     -14.457  66.339 116.640  0.00  0.00    -0.090 HD
ATOM     21  H   LIG d   1     -15.927  66.445 117.356  0.00  0.00    -0.090 HD
ENDBRANCH   5  18
BRANCH   3  22
ATOM     22  C   LIG d   1     -15.331  67.946 111.975  0.00  0.00     0.382 C 
ATOM     23  O   LIG d   1     -15.454  67.656 110.761  0.00  0.00    -0.241 OA
ATOM     24  O   LIG d   1     -14.962  69.090 112.299  0.00  0.00    -0.241 OA
ENDBRANCH   3  22
TORSDOF 7
ENDMDL
MODEL 3
REMARK VINA RESULT:      -5.7      2.184      5.227
REMARK  7 active torsions:
REMARK  status: ('A' for Active; 'I' for Inactive)
REMARK    1  A    between atoms: C_2  and  C_3 
REMARK    2  A    between atoms: C_3  and  O_6 
REMARK    3  A    between atoms: C_3  and  C_4 
REMARK    4  A    between atoms: C_7  and  O_6 
REMARK    5  A    between atoms: C_9  and  C_10 
REMARK    6  A    between atoms: N_15  and  C_14 
REMARK    7  A    between atoms: N_20  and  C_19 
REMARK       I    between atoms: C_22  and  N_20 
ROOT
ATOM      1  C   LIG d   1      -0.031  83.298 112.130  0.00  0.00     0.161 C 
ATOM      2  C   LIG d   1      -1.220  82.714 112.598  0.00  0.00     0.016 C 
ATOM      3  C   LIG d   1      -1.542  81.350 112.414  0.00  0.00     0.038 C 
ATOM      4  C   LIG d   1      -0.622  80.437 111.876  0.00  0.00     0.028 C 
ATOM      5  C   LIG d   1       0.388  81.081 110.932  0.00  0.00    -0.047 C 
ATOM      6  C   LIG d   1       1.033  82.295 111.639  0.00  0.00     0.091 C 
ENDROOT
BRANCH   1   7
ATOM      7  O   LIG d   1       0.523  84.160 113.144  0.00  0.00    -0.368 OA
BRANCH   7   8
ATOM      8  C   LIG d   1       0.339  85.583 112.941  0.00  0.00     0.119 C 
BRANCH   8   9
ATOM      9  C   LIG d   1      -1.011  85.970 113.574  0.00  0.00     0.028 C 
ATOM     10  C   LIG d   1      -1.118  85.532 115.044  0.00  0.00     0.006 C 
ENDBRANCH   8   9
BRANCH   8  11
ATOM     11  C   LIG d   1       0.202  85.921 111.454  0.00  0.00     0.028 C 
ATOM     12  C   LIG d   1      -1.189  86.466 111.092  0.00  0.00     0.006 C 
ENDBRANCH   8  11
ENDBRANCH   7   8
ENDBRANCH   1   7
BRANCH   6  13
ATOM     13  N   LIG d   1       1.973  83.032 110.755  0.00  0.00    -0.311 N 
ATOM     14  C   LIG d   1       3.151  83.500 111.165  0.00  0.00     0.210 C 
ATOM     15  C   LIG d   1       3.956  84.248 110.098  0.00  0.00     0.109 C 
ATOM     16  O   LIG d   1       3.619  83.339 112.302  0.00  0.00    -0.276 OA
ATOM     17  H   LIG d   1       1.686  83.180 109.807  0.00  0.00     0.149 HD
ENDBRANCH   6  13
BRANCH   5  18
ATOM     18  N   LIG d   1       1.367  80.044 110.554  0.00  0.00     0.381 N 
ATOM     19  H   LIG d   1       0.955  79.138 110.650  0.00  0.00    -0.090 HD
ATOM     20  H   LIG d   1       2.156  80.100 111.175  0.00  0.00    -0.090 HD
ATOM     21  H   LIG d   1       1.666  80.183 109.614  0.00  0.00    -0.090 HD
ENDBRANCH   5  18
BRANCH   3  22
ATOM     22  C   LIG d   1      -2.812  80.895 112.733  0.00  0.00     0.382 C 
ATOM     23  O   LIG d   1      -2.981  79.702 113.081  0.00  0.00    -0.241 OA
ATOM     24  O   LIG d   1      -3.797  81.651 112.634  0.00  0.00    -0.241 OA
ENDBRANCH   3  22
TORSDOF 7
ENDMDL
MODEL 4
REMARK VINA RESULT:      -5.5      3.275      6.796
REMARK  7 active torsions:
REMARK  status: ('A' for Active; 'I' for Inactive)
REMARK    1  A    between atoms: C_2  and  C_3 
REMARK    2  A    between atoms: C_3  and  O_6 
REMARK    3  A    between atoms: C_3  and  C_4 
REMARK    4  A    between atoms: C_7  and  O_6 
REMARK    5  A    between atoms: C_9  and  C_10 
REMARK    6  A    between atoms: N_15  and  C_14 
REMARK    7  A    between atoms: N_20  and  C_19 
REMARK       I    between atoms: C_22  and  N_20 
ROOT
ATOM      1  C   LIG d   1       1.933  85.682 113.312  0.00  0.00     0.161 C 
ATOM      2  C   LIG d   1       0.795  84.902 113.576  0.00  0.00     0.016 C 
ATOM      3  C   LIG d   1      -0.143  85.210 114.588  0.00  0.00     0.038 C 
ATOM      4  C   LIG d   1      -0.086  86.411 115.310  0.00  0.00     0.028 C 
ATOM      5  C   LIG d   1       1.323  86.983 115.426  0.00  0.00    -0.047 C 
ATOM      6  C   LIG d   1       1.952  87.056 114.016  0.00  0.00     0.091 C 
ENDROOT
BRANCH   1   7
ATOM      7  O   LIG d   1       2.095  85.846 111.890  0.00  0.00    -0.368 OA
BRANCH   7   8
ATOM      8  C   LIG d   1       1.096  85.207 111.057  0.00  0.00     0.119 C 
BRANCH   8   9
ATOM      9  C   LIG d   1       1.838  84.302 110.055  0.00  0.00     0.028 C 
ATOM     10  C   LIG d   1       1.578  82.808 110.310  0.00  0.00     0.006 C 
ENDBRANCH   8   9
BRANCH   8  11
ATOM     11  C   LIG d   1       0.347  86.232 110.200  0.00  0.00     0.028 C 
ATOM     12  C   LIG d   1      -1.079  86.502 110.703  0.00  0.00     0.006 C 
ENDBRANCH   8  11
ENDBRANCH   7   8
ENDBRANCH   1   7
BRANCH   6  13
ATOM     13  N   LIG d   1       3.362  87.525 114.048  0.00  0.00    -0.311 N 
ATOM     14  C   LIG d   1       3.802  88.573 113.353  0.00  0.00     0.210 C 
ATOM     15  C   LIG d   1       5.295  88.874 113.514  0.00  0.00     0.109 C 
ATOM     16  O   LIG d   1       3.090  89.301 112.645  0.00  0.00    -0.276 OA
ATOM     17  H   LIG d   1       4.001  87.011 114.622  0.00  0.00     0.149 HD
ENDBRANCH   6  13
BRANCH   5  18
ATOM     18  N   LIG d   1       1.217  88.300 116.081  0.00  0.00     0.381 N 
ATOM     19  H   LIG d   1       1.280  88.191 117.074  0.00  0.00    -0.090 HD
ATOM     20  H   LIG d   1       0.322  88.700 115.863  0.00  0.00    -0.090 HD
ATOM     21  H   LIG d   1       1.945  88.900 115.759  0.00  0.00    -0.090 HD
ENDBRANCH   5  18
BRANCH   3  22
ATOM     22  C   LIG d   1      -1.130  84.292 114.913  0.00  0.00     0.382 C 
ATOM     23  O   LIG d   1      -2.339  84.591 114.761  0.00  0.00    -0.241 OA
ATOM     24  O   LIG d   1      -0.828  83.185 115.397  0.00  0.00    -0.241 OA
ENDBRANCH   3  22
TORSDOF 7
ENDMDL
MODEL 5
REMARK VINA RESULT:      -5.5      2.995      5.257
REMARK  7 active torsions:
REMARK  status: ('A' for Active; 'I' for Inactive)
REMARK    1  A    between atoms: C_2  and  C_3 
REMARK    2  A    between atoms: C_3  and  O_6 
REMARK    3  A    between atoms: C_3  and  C_4 
REMARK    4  A    between atoms: C_7  and  O_6 
REMARK    5  A    between atoms: C_9  and  C_10 
REMARK    6  A    between atoms: N_15  and  C_14 
REMARK    7  A    between atoms: N_20  and  C_19 
REMARK       I    between atoms: C_22  and  N_20 
ROOT
ATOM      1  C   LIG d   1       2.036  86.252 112.149  0.00  0.00     0.161 C 
ATOM      2  C   LIG d   1       2.967  87.304 112.154  0.00  0.00     0.016 C 
ATOM      3  C   LIG d   1       3.414  87.942 113.334  0.00  0.00     0.038 C 
ATOM      4  C   LIG d   1       3.072  87.467 114.609  0.00  0.00     0.028 C 
ATOM      5  C   LIG d   1       1.738  86.727 114.642  0.00  0.00    -0.047 C 
ATOM      6  C   LIG d   1       1.737  85.647 113.536  0.00  0.00     0.091 C 
ENDROOT
BRANCH   1   7
ATOM      7  O   LIG d   1       2.467  85.223 111.236  0.00  0.00    -0.368 OA
BRANCH   7   8
ATOM      8  C   LIG d   1       1.649  85.035 110.055  0.00  0.00     0.119 C 
BRANCH   8   9
ATOM      9  C   LIG d   1       0.522  86.086 110.101  0.00  0.00     0.028 C 
ATOM     10  C   LIG d   1      -0.877  85.448 110.055  0.00  0.00     0.006 C 
ENDBRANCH   8   9
BRANCH   8  11
ATOM     11  C   LIG d   1       0.939  83.678 110.078  0.00  0.00     0.028 C 
ATOM     12  C   LIG d   1       1.716  82.613 110.869  0.00  0.00     0.006 C 
ENDBRANCH   8  11
ENDBRANCH   7   8
ENDBRANCH   1   7
BRANCH   6  13
ATOM     13  N   LIG d   1       0.437  84.932 113.444  0.00  0.00    -0.311 N 
ATOM     14  C   LIG d   1       0.204  83.755 114.023  0.00  0.00     0.210 C 
ATOM     15  C   LIG d   1      -1.197  83.184 113.786  0.00  0.00     0.109 C 
ATOM     16  O   LIG d   1       1.015  83.146 114.737  0.00  0.00    -0.276 OA
ATOM     17  H   LIG d   1      -0.288  85.370 112.910  0.00  0.00     0.149 HD
ENDBRANCH   6  13
BRANCH   5  18
ATOM     18  N   LIG d   1       1.572  86.168 115.997  0.00  0.00     0.381 N 
ATOM     19  H   LIG d   1       0.659  85.770 116.089  0.00  0.00    -0.090 HD
ATOM     20  H   LIG d   1       1.662  86.911 116.668  0.00  0.00    -0.090 HD
ATOM     21  H   LIG d   1       2.265  85.472 116.166  0.00  0.00    -0.090 HD
ENDBRANCH   5  18
BRANCH   3  22
ATOM     22  C   LIG d   1       4.181  89.093 113.244  0.00  0.00     0.382 C 
ATOM     23  O   LIG d   1       3.661  90.212 113.473  0.00  0.00    -0.241 OA
ATOM     24  O   LIG d   1       5.375  89.032 112.895  0.00  0.00    -0.241 OA
ENDBRANCH   3  22
TORSDOF 7
ENDMDL
MODEL 6
REMARK VINA RESULT:      -5.4      1.930      2.396
REMARK  7 active torsions:
REMARK  status: ('A' for Active; 'I' for Inactive)
REMARK    1  A    between atoms: C_2  and  C_3 
REMARK    2  A    between atoms: C_3  and  O_6 
REMARK    3  A    between atoms: C_3  and  C_4 
REMARK    4  A    between atoms: C_7  and  O_6 
REMARK    5  A    between atoms: C_9  and  C_10 
REMARK    6  A    between atoms: N_15  and  C_14 
REMARK    7  A    between atoms: N_20  and  C_19 
REMARK       I    between atoms: C_22  and  N_20 
ROOT
ATOM      1  C   LIG d   1       0.792  85.709 113.616  0.00  0.00     0.161 C 
ATOM      2  C   LIG d   1       1.672  86.801 113.525  0.00  0.00     0.016 C 
ATOM      3  C   LIG d   1       2.564  86.993 112.446  0.00  0.00     0.038 C 
ATOM      4  C   LIG d   1       2.531  86.181 111.302  0.00  0.00     0.028 C 
ATOM      5  C   LIG d   1       2.011  84.774 111.574  0.00  0.00    -0.047 C 
ATOM      6  C   LIG d   1       0.663  84.874 112.325  0.00  0.00     0.091 C 
ENDROOT
BRANCH   1   7
ATOM      7  O   LIG d   1      -0.505  86.162 114.052  0.00  0.00    -0.368 OA
BRANCH   7   8
ATOM      8  C   LIG d   1      -0.924  85.724 115.367  0.00  0.00     0.119 C 
BRANCH   8   9
ATOM      9  C   LIG d   1       0.230  84.900 115.970  0.00  0.00     0.028 C 
ATOM     10  C   LIG d   1       0.792  85.530 117.256  0.00  0.00     0.006 C 
ENDBRANCH   8   9
BRANCH   8  11
ATOM     11  C   LIG d   1      -2.110  84.759 115.282  0.00  0.00     0.028 C 
ATOM     12  C   LIG d   1      -1.783  83.362 115.833  0.00  0.00     0.006 C 
ENDBRANCH   8  11
ENDBRANCH   7   8
ENDBRANCH   1   7
BRANCH   6  13
ATOM     13  N   LIG d   1       0.126  83.541 112.704  0.00  0.00    -0.311 N 
ATOM     14  C   LIG d   1      -0.798  82.894 111.995  0.00  0.00     0.210 C 
ATOM     15  C   LIG d   1      -1.227  81.542 112.574  0.00  0.00     0.109 C 
ATOM     16  O   LIG d   1      -1.278  83.297 110.925  0.00  0.00    -0.276 OA
ATOM     17  H   LIG d   1       0.484  83.126 113.543  0.00  0.00     0.149 HD
ENDBRANCH   6  13
BRANCH   5  18
ATOM     18  N   LIG d   1       1.899  84.082 110.276  0.00  0.00     0.381 N 
ATOM     19  H   LIG d   1       1.072  83.519 110.262  0.00  0.00    -0.090 HD
ATOM     20  H   LIG d   1       2.694  83.478 110.161  0.00  0.00    -0.090 HD
ATOM     21  H   LIG d   1       1.869  84.748 109.536  0.00  0.00    -0.090 HD
ENDBRANCH   5  18
BRANCH   3  22
ATOM     22  C   LIG d   1       3.531  87.985 112.522  0.00  0.00     0.382 C 
ATOM     23  O   LIG d   1       4.746  87.684 112.427  0.00  0.00    -0.241 OA
ATOM     24  O   LIG d   1       3.206  89.169 112.728  0.00  0.00    -0.241 OA
ENDBRANCH   3  22
TORSDOF 7
ENDMDL
MODEL 7
REMARK VINA RESULT:      -5.3      2.366      5.987
REMARK  7 active torsions:
REMARK  status: ('A' for Active; 'I' for Inactive)
REMARK    1  A    between atoms: C_2  and  C_3 
REMARK    2  A    between atoms: C_3  and  O_6 
REMARK    3  A    between atoms: C_3  and  C_4 
REMARK    4  A    between atoms: C_7  and  O_6 
REMARK    5  A    between atoms: C_9  and  C_10 
REMARK    6  A    between atoms: N_15  and  C_14 
REMARK    7  A    between atoms: N_20  and  C_19 
REMARK       I    between atoms: C_22  and  N_20 
ROOT
ATOM      1  C   LIG d   1       0.891  83.489 112.863  0.00  0.00     0.161 C 
ATOM      2  C   LIG d   1      -0.165  82.638 112.495  0.00  0.00     0.016 C 
ATOM      3  C   LIG d   1      -1.371  82.533 113.225  0.00  0.00     0.038 C 
ATOM      4  C   LIG d   1      -1.666  83.388 114.297  0.00  0.00     0.028 C 
ATOM      5  C   LIG d   1      -0.426  83.913 115.012  0.00  0.00    -0.047 C 
ATOM      6  C   LIG d   1       0.542  84.511 113.966  0.00  0.00     0.091 C 
ENDROOT
BRANCH   1   7
ATOM      7  O   LIG d   1       1.404  84.164 111.698  0.00  0.00    -0.368 OA
BRANCH   7   8
ATOM      8  C   LIG d   1       0.825  85.460 111.406  0.00  0.00     0.119 C 
BRANCH   8   9
ATOM      9  C   LIG d   1       0.090  85.345 110.056  0.00  0.00     0.028 C 
ATOM     10  C   LIG d   1      -1.256  86.087 110.056  0.00  0.00     0.006 C 
ENDBRANCH   8   9
BRANCH   8  11
ATOM     11  C   LIG d   1       1.910  86.518 111.188  0.00  0.00     0.028 C 
ATOM     12  C   LIG d   1       3.328  85.977 111.429  0.00  0.00     0.006 C 
ENDBRANCH   8  11
ENDBRANCH   7   8
ENDBRANCH   1   7
BRANCH   6  13
ATOM     13  N   LIG d   1       1.819  84.971 114.572  0.00  0.00    -0.311 N 
ATOM     14  C   LIG d   1       2.050  86.234 114.925  0.00  0.00     0.210 C 
ATOM     15  C   LIG d   1       3.439  86.498 115.514  0.00  0.00     0.109 C 
ATOM     16  O   LIG d   1       1.224  87.155 114.836  0.00  0.00    -0.276 OA
ATOM     17  H   LIG d   1       2.533  84.282 114.709  0.00  0.00     0.149 HD
ENDBRANCH   6  13
BRANCH   5  18
ATOM     18  N   LIG d   1      -0.873  84.897 116.015  0.00  0.00     0.381 N 
ATOM     19  H   LIG d   1      -0.509  85.801 115.788  0.00  0.00    -0.090 HD
ATOM     20  H   LIG d   1      -0.514  84.630 116.915  0.00  0.00    -0.090 HD
ATOM     21  H   LIG d   1      -1.868  84.929 116.042  0.00  0.00    -0.090 HD
ENDBRANCH   5  18
BRANCH   3  22
ATOM     22  C   LIG d   1      -2.281  81.535 112.909  0.00  0.00     0.382 C 
ATOM     23  O   LIG d   1      -1.924  80.332 112.927  0.00  0.00    -0.241 OA
ATOM     24  O   LIG d   1      -3.441  81.825 112.563  0.00  0.00    -0.241 OA
ENDBRANCH   3  22
TORSDOF 7
ENDMDL
MODEL 8
REMARK VINA RESULT:      -5.3      2.332      4.949
REMARK  7 active torsions:
REMARK  status: ('A' for Active; 'I' for Inactive)
REMARK    1  A    between atoms: C_2  and  C_3 
REMARK    2  A    between atoms: C_3  and  O_6 
REMARK    3  A    between atoms: C_3  and  C_4 
REMARK    4  A    between atoms: C_7  and  O_6 
REMARK    5  A    between atoms: C_9  and  C_10 
REMARK    6  A    between atoms: N_15  and  C_14 
REMARK    7  A    between atoms: N_20  and  C_19 
REMARK       I    between atoms: C_22  and  N_20 
ROOT
ATOM      1  C   LIG d   1       0.004  83.329 112.301  0.00  0.00     0.161 C 
ATOM      2  C   LIG d   1      -1.182  82.781 112.819  0.00  0.00     0.016 C 
ATOM      3  C   LIG d   1      -1.583  81.444 112.595  0.00  0.00     0.038 C 
ATOM      4  C   LIG d   1      -0.746  80.514 111.960  0.00  0.00     0.028 C 
ATOM      5  C   LIG d   1       0.235  81.153 110.982  0.00  0.00    -0.047 C 
ATOM      6  C   LIG d   1       0.983  82.300 111.699  0.00  0.00     0.091 C 
ENDROOT
BRANCH   1   7
ATOM      7  O   LIG d   1       0.662  84.114 113.314  0.00  0.00    -0.368 OA
BRANCH   7   8
ATOM      8  C   LIG d   1       0.480  83.672 114.682  0.00  0.00     0.119 C 
BRANCH   8   9
ATOM      9  C   LIG d   1       0.166  84.917 115.534  0.00  0.00     0.028 C 
ATOM     10  C   LIG d   1       0.305  86.224 114.736  0.00  0.00     0.006 C 
ENDBRANCH   8   9
BRANCH   8  11
ATOM     11  C   LIG d   1       1.779  83.102 115.261  0.00  0.00     0.028 C 
ATOM     12  C   LIG d   1       1.879  81.576 115.112  0.00  0.00     0.006 C 
ENDBRANCH   8  11
ENDBRANCH   7   8
ENDBRANCH   1   7
BRANCH   6  13
ATOM     13  N   LIG d   1       1.903  83.032 110.790  0.00  0.00    -0.311 N 
ATOM     14  C   LIG d   1       3.134  83.404 111.136  0.00  0.00     0.210 C 
ATOM     15  C   LIG d   1       3.907  84.166 110.055  0.00  0.00     0.109 C 
ATOM     16  O   LIG d   1       3.671  83.146 112.224  0.00  0.00    -0.276 OA
ATOM     17  H   LIG d   1       1.559  83.255 109.876  0.00  0.00     0.149 HD
ENDBRANCH   6  13
BRANCH   5  18
ATOM     18  N   LIG d   1       1.136  80.090 110.497  0.00  0.00     0.381 N 
ATOM     19  H   LIG d   1       0.835  79.203 110.851  0.00  0.00    -0.090 HD
ATOM     20  H   LIG d   1       2.063  80.268 110.839  0.00  0.00    -0.090 HD
ATOM     21  H   LIG d   1       1.139  80.074 109.501  0.00  0.00    -0.090 HD
ENDBRANCH   5  18
BRANCH   3  22
ATOM     22  C   LIG d   1      -2.853  81.035 112.975  0.00  0.00     0.382 C 
ATOM     23  O   LIG d   1      -2.995  80.013 113.689  0.00  0.00    -0.241 OA
ATOM     24  O   LIG d   1      -3.860  81.648 112.575  0.00  0.00    -0.241 OA
ENDBRANCH   3  22
TORSDOF 7
ENDMDL
MODEL 9
REMARK VINA RESULT:      -5.2      2.842      4.901
REMARK  7 active torsions:
REMARK  status: ('A' for Active; 'I' for Inactive)
REMARK    1  A    between atoms: C_2  and  C_3 
REMARK    2  A    between atoms: C_3  and  O_6 
REMARK    3  A    between atoms: C_3  and  C_4 
REMARK    4  A    between atoms: C_7  and  O_6 
REMARK    5  A    between atoms: C_9  and  C_10 
REMARK    6  A    between atoms: N_15  and  C_14 
REMARK    7  A    between atoms: N_20  and  C_19 
REMARK       I    between atoms: C_22  and  N_20 
ROOT
ATOM      1  C   LIG d   1       1.267  85.817 112.180  0.00  0.00     0.161 C 
ATOM      2  C   LIG d   1       2.268  86.787 112.004  0.00  0.00     0.016 C 
ATOM      3  C   LIG d   1       2.936  87.418 113.078  0.00  0.00     0.038 C 
ATOM      4  C   LIG d   1       2.754  87.010 114.408  0.00  0.00     0.028 C 
ATOM      5  C   LIG d   1       1.387  86.386 114.668  0.00  0.00    -0.047 C 
ATOM      6  C   LIG d   1       1.134  85.278 113.620  0.00  0.00     0.091 C 
ENDROOT
BRANCH   1   7
ATOM      7  O   LIG d   1       1.473  84.730 111.256  0.00  0.00    -0.368 OA
BRANCH   7   8
ATOM      8  C   LIG d   1       2.479  83.757 111.630  0.00  0.00     0.119 C 
BRANCH   8   9
ATOM      9  C   LIG d   1       3.629  83.865 110.610  0.00  0.00     0.028 C 
ATOM     10  C   LIG d   1       4.052  82.494 110.055  0.00  0.00     0.006 C 
ENDBRANCH   8   9
BRANCH   8  11
ATOM     11  C   LIG d   1       1.948  82.327 111.493  0.00  0.00     0.028 C 
ATOM     12  C   LIG d   1       0.475  82.276 111.060  0.00  0.00     0.006 C 
ENDBRANCH   8  11
ENDBRANCH   7   8
ENDBRANCH   1   7
BRANCH   6  13
ATOM     13  N   LIG d   1      -0.218  84.673 113.750  0.00  0.00    -0.311 N 
ATOM     14  C   LIG d   1      -0.450  83.530 114.393  0.00  0.00     0.210 C 
ATOM     15  C   LIG d   1      -1.912  83.073 114.392  0.00  0.00     0.109 C 
ATOM     16  O   LIG d   1       0.411  82.868 114.992  0.00  0.00    -0.276 OA
ATOM     17  H   LIG d   1      -0.979  85.161 113.320  0.00  0.00     0.149 HD
ENDBRANCH   6  13
BRANCH   5  18
ATOM     18  N   LIG d   1       1.384  85.881 116.054  0.00  0.00     0.381 N 
ATOM     19  H   LIG d   1       2.147  85.248 116.186  0.00  0.00    -0.090 HD
ATOM     20  H   LIG d   1       0.527  85.381 116.216  0.00  0.00    -0.090 HD
ATOM     21  H   LIG d   1       1.459  86.641 116.694  0.00  0.00    -0.090 HD
ENDBRANCH   5  18
BRANCH   3  22
ATOM     22  C   LIG d   1       3.770  88.498 112.830  0.00  0.00     0.382 C 
ATOM     23  O   LIG d   1       3.285  89.650 112.715  0.00  0.00    -0.241 OA
ATOM     24  O   LIG d   1       4.994  88.329 112.675  0.00  0.00    -0.241 OA
ENDBRANCH   3  22
TORSDOF 7
ENDMDL
