MODEL 1
REMARK VINA RESULT:      -5.1      0.000      0.000
REMARK  7 active torsions:
REMARK  status: ('A' for Active; 'I' for Inactive)
REMARK    1  A    between atoms: C_2  and  C_3 
REMARK    2  A    between atoms: C_3  and  O_6 
REMARK    3  A    between atoms: C_3  and  C_4 
REMARK    4  A    between atoms: C_7  and  O_6 
REMARK    5  A    between atoms: C_9  and  C_10 
REMARK    6  A    between atoms: N_15  and  C_14 
REMARK    7  A    between atoms: N_20  and  C_19 
REMARK       I    between atoms: C_22  and  N_20 
ROOT
ATOM      1  C   LIG d   1      -3.378  77.785 115.277  0.00  0.00     0.161 C 
ATOM      2  C   LIG d   1      -3.404  78.882 114.401  0.00  0.00     0.016 C 
ATOM      3  C   LIG d   1      -2.288  79.296 113.639  0.00  0.00     0.038 C 
ATOM      4  C   LIG d   1      -1.105  78.543 113.587  0.00  0.00     0.028 C 
ATOM      5  C   LIG d   1      -0.862  77.711 114.841  0.00  0.00    -0.047 C 
ATOM      6  C   LIG d   1      -2.131  76.885 115.150  0.00  0.00     0.091 C 
ENDROOT
BRANCH   1   7
ATOM      7  O   LIG d   1      -4.579  77.003 115.117  0.00  0.00    -0.368 OA
BRANCH   7   8
ATOM      8  C   LIG d   1      -5.560  77.117 116.177  0.00  0.00     0.119 C 
BRANCH   8   9
ATOM      9  C   LIG d   1      -4.890  77.856 117.351  0.00  0.00     0.028 C 
ATOM     10  C   LIG d   1      -5.738  79.031 117.865  0.00  0.00     0.006 C 
ENDBRANCH   8   9
BRANCH   8  11
ATOM     11  C   LIG d   1      -5.945  75.742 116.730  0.00  0.00     0.028 C 
ATOM     12  C   LIG d   1      -5.351  74.583 115.913  0.00  0.00     0.006 C 
ENDBRANCH   8  11
ENDBRANCH   7   8
ENDBRANCH   1   7
BRANCH   6  13
ATOM     13  N   LIG d   1      -2.009  76.106 116.410  0.00  0.00    -0.311 N 
ATOM     14  C   LIG d   1      -1.708  74.809 116.443  0.00  0.00     0.210 C 
ATOM     15  C   LIG d   1      -1.651  74.194 117.845  0.00  0.00     0.109 C 
ATOM     16  O   LIG d   1      -1.451  74.116 115.447  0.00  0.00    -0.276 OA
ATOM     17  H   LIG d   1      -2.170  76.597 117.267  0.00  0.00     0.149 HD
ENDBRANCH   6  13
BRANCH   5  18
ATOM     18  N   LIG d   1       0.328  76.873 114.597  0.00  0.00     0.381 N 
ATOM     19  H   LIG d   1       0.788  76.677 115.463  0.00  0.00    -0.090 HD
ATOM     20  H   LIG d   1       0.966  77.379 114.008  0.00  0.00    -0.090 HD
ATOM     21  H   LIG d   1       0.060  76.021 114.155  0.00  0.00    -0.090 HD
ENDBRANCH   5  18
BRANCH   3  22
ATOM     22  C   LIG d   1      -2.334  80.497 112.948  0.00  0.00     0.382 C 
ATOM     23  O   LIG d   1      -3.419  81.118 112.842  0.00  0.00    -0.241 OA
ATOM     24  O   LIG d   1      -1.314  80.946 112.392  0.00  0.00    -0.241 OA
ENDBRANCH   3  22
TORSDOF 7
ENDMDL
MODEL 2
REMARK VINA RESULT:      -5.1     22.194     24.337
REMARK  7 active torsions:
REMARK  status: ('A' for Active; 'I' for Inactive)
REMARK    1  A    between atoms: C_2  and  C_3 
REMARK    2  A    between atoms: C_3  and  O_6 
REMARK    3  A    between atoms: C_3  and  C_4 
REMARK    4  A    between atoms: C_7  and  O_6 
REMARK    5  A    between atoms: C_9  and  C_10 
REMARK    6  A    between atoms: N_15  and  C_14 
REMARK    7  A    between atoms: N_20  and  C_19 
REMARK       I    between atoms: C_22  and  N_20 
ROOT
ATOM      1  C   LIG d   1     -25.691  85.555 113.202  0.00  0.00     0.161 C 
ATOM      2  C   LIG d   1     -24.565  86.361 113.434  0.00  0.00     0.016 C 
ATOM      3  C   LIG d   1     -23.262  85.844 113.615  0.00  0.00     0.038 C 
ATOM      4  C   LIG d   1     -22.970  84.485 113.424  0.00  0.00     0.028 C 
ATOM      5  C   LIG d   1     -24.160  83.568 113.686  0.00  0.00    -0.047 C 
ATOM      6  C   LIG d   1     -25.375  84.079 112.879  0.00  0.00     0.091 C 
ENDROOT
BRANCH   1   7
ATOM      7  O   LIG d   1     -26.499  86.133 112.158  0.00  0.00    -0.368 OA
BRANCH   7   8
ATOM      8  C   LIG d   1     -27.611  86.954 112.593  0.00  0.00     0.119 C 
BRANCH   8   9
ATOM      9  C   LIG d   1     -28.905  86.159 112.328  0.00  0.00     0.028 C 
ATOM     10  C   LIG d   1     -28.981  85.627 110.887  0.00  0.00     0.006 C 
ENDBRANCH   8   9
BRANCH   8  11
ATOM     11  C   LIG d   1     -27.734  88.222 111.744  0.00  0.00     0.028 C 
ATOM     12  C   LIG d   1     -26.455  88.535 110.952  0.00  0.00     0.006 C 
ENDBRANCH   8  11
ENDBRANCH   7   8
ENDBRANCH   1   7
BRANCH   6  13
ATOM     13  N   LIG d   1     -26.605  83.287 113.144  0.00  0.00    -0.311 N 
ATOM     14  C   LIG d   1     -27.213  82.547 112.219  0.00  0.00     0.210 C 
ATOM     15  C   LIG d   1     -28.478  81.827 112.696  0.00  0.00     0.109 C 
ATOM     16  O   LIG d   1     -26.807  82.393 111.057  0.00  0.00    -0.276 OA
ATOM     17  H   LIG d   1     -26.984  83.330 114.069  0.00  0.00     0.149 HD
ENDBRANCH   6  13
BRANCH   5  18
ATOM     18  N   LIG d   1     -23.756  82.198 113.317  0.00  0.00     0.381 N 
ATOM     19  H   LIG d   1     -24.494  81.753 112.809  0.00  0.00    -0.090 HD
ATOM     20  H   LIG d   1     -23.588  81.671 114.156  0.00  0.00    -0.090 HD
ATOM     21  H   LIG d   1     -22.929  82.224 112.762  0.00  0.00    -0.090 HD
ENDBRANCH   5  18
BRANCH   3  22
ATOM     22  C   LIG d   1     -22.240  86.684 114.031  0.00  0.00     0.382 C 
ATOM     23  O   LIG d   1     -21.108  86.606 113.497  0.00  0.00    -0.241 OA
ATOM     24  O   LIG d   1     -22.424  87.489 114.963  0.00  0.00    -0.241 OA
ENDBRANCH   3  22
TORSDOF 7
ENDMDL
MODEL 3
REMARK VINA RESULT:      -4.9      2.203      4.770
REMARK  7 active torsions:
REMARK  status: ('A' for Active; 'I' for Inactive)
REMARK    1  A    between atoms: C_2  and  C_3 
REMARK    2  A    between atoms: C_3  and  O_6 
REMARK    3  A    between atoms: C_3  and  C_4 
REMARK    4  A    between atoms: C_7  and  O_6 
REMARK    5  A    between atoms: C_9  and  C_10 
REMARK    6  A    between atoms: N_15  and  C_14 
REMARK    7  A    between atoms: N_20  and  C_19 
REMARK       I    between atoms: C_22  and  N_20 
ROOT
ATOM      1  C   LIG d   1      -2.946  76.367 114.639  0.00  0.00     0.161 C 
ATOM      2  C   LIG d   1      -2.589  75.525 115.706  0.00  0.00     0.016 C 
ATOM      3  C   LIG d   1      -1.377  75.650 116.424  0.00  0.00     0.038 C 
ATOM      4  C   LIG d   1      -0.503  76.728 116.221  0.00  0.00     0.028 C 
ATOM      5  C   LIG d   1      -0.579  77.312 114.814  0.00  0.00    -0.047 C 
ATOM      6  C   LIG d   1      -2.056  77.617 114.476  0.00  0.00     0.091 C 
ENDROOT
BRANCH   1   7
ATOM      7  O   LIG d   1      -4.330  76.750 114.761  0.00  0.00    -0.368 OA
BRANCH   7   8
ATOM      8  C   LIG d   1      -5.015  76.293 115.953  0.00  0.00     0.119 C 
BRANCH   8   9
ATOM      9  C   LIG d   1      -6.196  75.412 115.500  0.00  0.00     0.028 C 
ATOM     10  C   LIG d   1      -6.064  73.958 115.984  0.00  0.00     0.006 C 
ENDBRANCH   8   9
BRANCH   8  11
ATOM     11  C   LIG d   1      -5.649  77.461 116.714  0.00  0.00     0.028 C 
ATOM     12  C   LIG d   1      -4.646  78.583 117.027  0.00  0.00     0.006 C 
ENDBRANCH   8  11
ENDBRANCH   7   8
ENDBRANCH   1   7
BRANCH   6  13
ATOM     13  N   LIG d   1      -2.229  78.113 113.086  0.00  0.00    -0.311 N 
ATOM     14  C   LIG d   1      -1.730  77.492 112.018  0.00  0.00     0.210 C 
ATOM     15  C   LIG d   1      -2.006  78.184 110.680  0.00  0.00     0.109 C 
ATOM     16  O   LIG d   1      -1.112  76.417 112.050  0.00  0.00    -0.276 OA
ATOM     17  H   LIG d   1      -2.744  78.963 112.966  0.00  0.00     0.149 HD
ENDBRANCH   6  13
BRANCH   5  18
ATOM     18  N   LIG d   1       0.280  78.511 114.783  0.00  0.00     0.381 N 
ATOM     19  H   LIG d   1      -0.213  79.270 114.357  0.00  0.00    -0.090 HD
ATOM     20  H   LIG d   1       1.094  78.313 114.228  0.00  0.00    -0.090 HD
ATOM     21  H   LIG d   1       0.553  78.760 115.708  0.00  0.00    -0.090 HD
ENDBRANCH   5  18
BRANCH   3  22
ATOM     22  C   LIG d   1      -1.011  74.667 117.331  0.00  0.00     0.382 C 
ATOM     23  O   LIG d   1       0.155  74.643 117.793  0.00  0.00    -0.241 OA
ATOM     24  O   LIG d   1      -1.819  73.777 117.658  0.00  0.00    -0.241 OA
ENDBRANCH   3  22
TORSDOF 7
ENDMDL
MODEL 4
REMARK VINA RESULT:      -4.6      2.297      4.583
REMARK  7 active torsions:
REMARK  status: ('A' for Active; 'I' for Inactive)
REMARK    1  A    between atoms: C_2  and  C_3 
REMARK    2  A    between atoms: C_3  and  O_6 
REMARK    3  A    between atoms: C_3  and  C_4 
REMARK    4  A    between atoms: C_7  and  O_6 
REMARK    5  A    between atoms: C_9  and  C_10 
REMARK    6  A    between atoms: N_15  and  C_14 
REMARK    7  A    between atoms: N_20  and  C_19 
REMARK       I    between atoms: C_22  and  N_20 
ROOT
ATOM      1  C   LIG d   1      -2.403  76.551 114.719  0.00  0.00     0.161 C 
ATOM      2  C   LIG d   1      -1.231  77.310 114.565  0.00  0.00     0.016 C 
ATOM      3  C   LIG d   1      -1.056  78.596 115.128  0.00  0.00     0.038 C 
ATOM      4  C   LIG d   1      -1.991  79.149 116.015  0.00  0.00     0.028 C 
ATOM      5  C   LIG d   1      -3.410  78.637 115.798  0.00  0.00    -0.047 C 
ATOM      6  C   LIG d   1      -3.389  77.092 115.776  0.00  0.00     0.091 C 
ENDROOT
BRANCH   1   7
ATOM      7  O   LIG d   1      -2.063  75.180 115.006  0.00  0.00    -0.368 OA
BRANCH   7   8
ATOM      8  C   LIG d   1      -0.779  74.962 115.642  0.00  0.00     0.119 C 
BRANCH   8   9
ATOM      9  C   LIG d   1      -0.106  73.773 114.928  0.00  0.00     0.028 C 
ATOM     10  C   LIG d   1       0.795  74.221 113.765  0.00  0.00     0.006 C 
ENDBRANCH   8   9
BRANCH   8  11
ATOM     11  C   LIG d   1      -0.947  74.518 117.098  0.00  0.00     0.028 C 
ATOM     12  C   LIG d   1       0.257  74.894 117.977  0.00  0.00     0.006 C 
ENDBRANCH   8  11
ENDBRANCH   7   8
ENDBRANCH   1   7
BRANCH   6  13
ATOM     13  N   LIG d   1      -4.725  76.510 115.484  0.00  0.00    -0.311 N 
ATOM     14  C   LIG d   1      -5.616  76.210 116.428  0.00  0.00     0.210 C 
ATOM     15  C   LIG d   1      -6.923  75.600 115.912  0.00  0.00     0.109 C 
ATOM     16  O   LIG d   1      -5.460  76.419 117.640  0.00  0.00    -0.276 OA
ATOM     17  H   LIG d   1      -4.946  76.336 114.523  0.00  0.00     0.149 HD
ENDBRANCH   6  13
BRANCH   5  18
ATOM     18  N   LIG d   1      -4.253  79.189 116.876  0.00  0.00     0.381 N 
ATOM     19  H   LIG d   1      -3.766  79.927 117.343  0.00  0.00    -0.090 HD
ATOM     20  H   LIG d   1      -4.442  78.463 117.544  0.00  0.00    -0.090 HD
ATOM     21  H   LIG d   1      -5.108  79.533 116.498  0.00  0.00    -0.090 HD
ENDBRANCH   5  18
BRANCH   3  22
ATOM     22  C   LIG d   1       0.046  79.358 114.771  0.00  0.00     0.382 C 
ATOM     23  O   LIG d   1       0.862  79.728 115.649  0.00  0.00    -0.241 OA
ATOM     24  O   LIG d   1       0.210  79.718 113.590  0.00  0.00    -0.241 OA
ENDBRANCH   3  22
TORSDOF 7
ENDMDL
MODEL 5
REMARK VINA RESULT:      -4.6     14.233     16.356
REMARK  7 active torsions:
REMARK  status: ('A' for Active; 'I' for Inactive)
REMARK    1  A    between atoms: C_2  and  C_3 
REMARK    2  A    between atoms: C_3  and  O_6 
REMARK    3  A    between atoms: C_3  and  C_4 
REMARK    4  A    between atoms: C_7  and  O_6 
REMARK    5  A    between atoms: C_9  and  C_10 
REMARK    6  A    between atoms: N_15  and  C_14 
REMARK    7  A    between atoms: N_20  and  C_19 
REMARK       I    between atoms: C_22  and  N_20 
ROOT
ATOM      1  C   LIG d   1      12.753  74.652 115.343  0.00  0.00     0.161 C 
ATOM      2  C   LIG d   1      11.440  75.090 115.104  0.00  0.00     0.016 C 
ATOM      3  C   LIG d   1      11.126  76.186 114.267  0.00  0.00     0.038 C 
ATOM      4  C   LIG d   1      12.100  76.826 113.488  0.00  0.00     0.028 C 
ATOM      5  C   LIG d   1      13.502  76.744 114.082  0.00  0.00    -0.047 C 
ATOM      6  C   LIG d   1      13.820  75.268 114.414  0.00  0.00     0.091 C 
ENDROOT
BRANCH   1   7
ATOM      7  O   LIG d   1      12.807  73.212 115.281  0.00  0.00    -0.368 OA
BRANCH   7   8
ATOM      8  C   LIG d   1      11.889  72.580 114.355  0.00  0.00     0.119 C 
BRANCH   8   9
ATOM      9  C   LIG d   1      11.347  71.309 115.037  0.00  0.00     0.028 C 
ATOM     10  C   LIG d   1       9.994  70.863 114.455  0.00  0.00     0.006 C 
ENDBRANCH   8   9
BRANCH   8  11
ATOM     11  C   LIG d   1      12.616  72.089 113.100  0.00  0.00     0.028 C 
ATOM     12  C   LIG d   1      13.733  71.081 113.414  0.00  0.00     0.006 C 
ENDBRANCH   8  11
ENDBRANCH   7   8
ENDBRANCH   1   7
BRANCH   6  13
ATOM     13  N   LIG d   1      15.141  75.108 115.078  0.00  0.00    -0.311 N 
ATOM     14  C   LIG d   1      16.121  74.353 114.586  0.00  0.00     0.210 C 
ATOM     15  C   LIG d   1      17.394  74.311 115.438  0.00  0.00     0.109 C 
ATOM     16  O   LIG d   1      16.070  73.740 113.509  0.00  0.00    -0.276 OA
ATOM     17  H   LIG d   1      15.279  75.596 115.941  0.00  0.00     0.149 HD
ENDBRANCH   6  13
BRANCH   5  18
ATOM     18  N   LIG d   1      14.437  77.330 113.103  0.00  0.00     0.381 N 
ATOM     19  H   LIG d   1      15.260  76.766 113.041  0.00  0.00    -0.090 HD
ATOM     20  H   LIG d   1      14.705  78.246 113.417  0.00  0.00    -0.090 HD
ATOM     21  H   LIG d   1      14.000  77.392 112.209  0.00  0.00    -0.090 HD
ENDBRANCH   5  18
BRANCH   3  22
ATOM     22  C   LIG d   1       9.829  76.676 114.235  0.00  0.00     0.382 C 
ATOM     23  O   LIG d   1       8.899  75.960 113.793  0.00  0.00    -0.241 OA
ATOM     24  O   LIG d   1       9.585  77.841 114.602  0.00  0.00    -0.241 OA
ENDBRANCH   3  22
TORSDOF 7
ENDMDL
MODEL 6
REMARK VINA RESULT:      -4.6      1.856      3.906
REMARK  7 active torsions:
REMARK  status: ('A' for Active; 'I' for Inactive)
REMARK    1  A    between atoms: C_2  and  C_3 
REMARK    2  A    between atoms: C_3  and  O_6 
REMARK    3  A    between atoms: C_3  and  C_4 
REMARK    4  A    between atoms: C_7  and  O_6 
REMARK    5  A    between atoms: C_9  and  C_10 
REMARK    6  A    between atoms: N_15  and  C_14 
REMARK    7  A    between atoms: N_20  and  C_19 
REMARK       I    between atoms: C_22  and  N_20 
ROOT
ATOM      1  C   LIG d   1      -2.865  76.577 114.416  0.00  0.00     0.161 C 
ATOM      2  C   LIG d   1      -2.440  77.749 113.769  0.00  0.00     0.016 C 
ATOM      3  C   LIG d   1      -2.681  79.047 114.275  0.00  0.00     0.038 C 
ATOM      4  C   LIG d   1      -3.234  79.257 115.547  0.00  0.00     0.028 C 
ATOM      5  C   LIG d   1      -4.135  78.117 116.011  0.00  0.00    -0.047 C 
ATOM      6  C   LIG d   1      -3.372  76.781 115.859  0.00  0.00     0.091 C 
ENDROOT
BRANCH   1   7
ATOM      7  O   LIG d   1      -1.809  75.595 114.391  0.00  0.00    -0.368 OA
BRANCH   7   8
ATOM      8  C   LIG d   1      -0.994  75.504 115.585  0.00  0.00     0.119 C 
BRANCH   8   9
ATOM      9  C   LIG d   1       0.251  76.385 115.364  0.00  0.00     0.028 C 
ATOM     10  C   LIG d   1       0.298  77.586 116.324  0.00  0.00     0.006 C 
ENDBRANCH   8   9
BRANCH   8  11
ATOM     11  C   LIG d   1      -0.456  74.085 115.786  0.00  0.00     0.028 C 
ATOM     12  C   LIG d   1       0.119  73.477 114.496  0.00  0.00     0.006 C 
ENDBRANCH   8  11
ENDBRANCH   7   8
ENDBRANCH   1   7
BRANCH   6  13
ATOM     13  N   LIG d   1      -4.210  75.606 116.212  0.00  0.00    -0.311 N 
ATOM     14  C   LIG d   1      -5.406  75.370 115.674  0.00  0.00     0.210 C 
ATOM     15  C   LIG d   1      -6.112  74.114 116.192  0.00  0.00     0.109 C 
ATOM     16  O   LIG d   1      -5.934  76.065 114.793  0.00  0.00    -0.276 OA
ATOM     17  H   LIG d   1      -3.844  74.974 116.896  0.00  0.00     0.149 HD
ENDBRANCH   6  13
BRANCH   5  18
ATOM     18  N   LIG d   1      -4.532  78.401 117.403  0.00  0.00     0.381 N 
ATOM     19  H   LIG d   1      -3.822  78.079 118.030  0.00  0.00    -0.090 HD
ATOM     20  H   LIG d   1      -5.382  77.905 117.606  0.00  0.00    -0.090 HD
ATOM     21  H   LIG d   1      -4.673  79.380 117.524  0.00  0.00    -0.090 HD
ENDBRANCH   5  18
BRANCH   3  22
ATOM     22  C   LIG d   1      -2.403  80.154 113.487  0.00  0.00     0.382 C 
ATOM     23  O   LIG d   1      -3.340  80.864 113.051  0.00  0.00    -0.241 OA
ATOM     24  O   LIG d   1      -1.229  80.425 113.171  0.00  0.00    -0.241 OA
ENDBRANCH   3  22
TORSDOF 7
ENDMDL
MODEL 7
REMARK VINA RESULT:      -4.5     13.442     15.754
REMARK  7 active torsions:
REMARK  status: ('A' for Active; 'I' for Inactive)
REMARK    1  A    between atoms: C_2  and  C_3 
REMARK    2  A    between atoms: C_3  and  O_6 
REMARK    3  A    between atoms: C_3  and  C_4 
REMARK    4  A    between atoms: C_7  and  O_6 
REMARK    5  A    between atoms: C_9  and  C_10 
REMARK    6  A    between atoms: N_15  and  C_14 
REMARK    7  A    between atoms: N_20  and  C_19 
REMARK       I    between atoms: C_22  and  N_20 
ROOT
ATOM      1  C   LIG d   1      11.936  75.538 114.692  0.00  0.00     0.161 C 
ATOM      2  C   LIG d   1      10.584  75.742 115.015  0.00  0.00     0.016 C 
ATOM      3  C   LIG d   1       9.940  76.996 114.912  0.00  0.00     0.038 C 
ATOM      4  C   LIG d   1      10.568  78.107 114.330  0.00  0.00     0.028 C 
ATOM      5  C   LIG d   1      12.087  78.078 114.457  0.00  0.00    -0.047 C 
ATOM      6  C   LIG d   1      12.608  76.714 113.950  0.00  0.00     0.091 C 
ENDROOT
BRANCH   1   7
ATOM      7  O   LIG d   1      12.080  74.321 113.934  0.00  0.00    -0.368 OA
BRANCH   7   8
ATOM      8  C   LIG d   1      12.278  73.110 114.704  0.00  0.00     0.119 C 
BRANCH   8   9
ATOM      9  C   LIG d   1      13.793  72.953 114.938  0.00  0.00     0.028 C 
ATOM     10  C   LIG d   1      14.560  72.657 113.639  0.00  0.00     0.006 C 
ENDBRANCH   8   9
BRANCH   8  11
ATOM     11  C   LIG d   1      11.860  71.869 113.910  0.00  0.00     0.028 C 
ATOM     12  C   LIG d   1      10.611  71.185 114.488  0.00  0.00     0.006 C 
ENDBRANCH   8  11
ENDBRANCH   7   8
ENDBRANCH   1   7
BRANCH   6  13
ATOM     13  N   LIG d   1      14.077  76.570 114.117  0.00  0.00    -0.311 N 
ATOM     14  C   LIG d   1      14.964  77.023 113.233  0.00  0.00     0.210 C 
ATOM     15  C   LIG d   1      16.429  76.753 113.589  0.00  0.00     0.109 C 
ATOM     16  O   LIG d   1      14.677  77.653 112.203  0.00  0.00    -0.276 OA
ATOM     17  H   LIG d   1      14.399  76.099 114.941  0.00  0.00     0.149 HD
ENDBRANCH   6  13
BRANCH   5  18
ATOM     18  N   LIG d   1      12.620  79.221 113.690  0.00  0.00     0.381 N 
ATOM     19  H   LIG d   1      12.979  79.912 114.318  0.00  0.00    -0.090 HD
ATOM     20  H   LIG d   1      11.873  79.633 113.161  0.00  0.00    -0.090 HD
ATOM     21  H   LIG d   1      13.341  78.912 113.076  0.00  0.00    -0.090 HD
ENDBRANCH   5  18
BRANCH   3  22
ATOM     22  C   LIG d   1       8.664  77.157 115.430  0.00  0.00     0.382 C 
ATOM     23  O   LIG d   1       7.769  77.699 114.737  0.00  0.00    -0.241 OA
ATOM     24  O   LIG d   1       8.408  76.808 116.598  0.00  0.00    -0.241 OA
ENDBRANCH   3  22
TORSDOF 7
ENDMDL
MODEL 8
REMARK VINA RESULT:      -4.5     22.372     24.606
REMARK  7 active torsions:
REMARK  status: ('A' for Active; 'I' for Inactive)
REMARK    1  A    between atoms: C_2  and  C_3 
REMARK    2  A    between atoms: C_3  and  O_6 
REMARK    3  A    between atoms: C_3  and  C_4 
REMARK    4  A    between atoms: C_7  and  O_6 
REMARK    5  A    between atoms: C_9  and  C_10 
REMARK    6  A    between atoms: N_15  and  C_14 
REMARK    7  A    between atoms: N_20  and  C_19 
REMARK       I    between atoms: C_22  and  N_20 
ROOT
ATOM      1  C   LIG d   1     -25.742  85.848 114.325  0.00  0.00     0.161 C 
ATOM      2  C   LIG d   1     -24.364  86.124 114.340  0.00  0.00     0.016 C 
ATOM      3  C   LIG d   1     -23.402  85.325 113.681  0.00  0.00     0.038 C 
ATOM      4  C   LIG d   1     -23.771  84.273 112.829  0.00  0.00     0.028 C 
ATOM      5  C   LIG d   1     -25.115  83.648 113.186  0.00  0.00    -0.047 C 
ATOM      6  C   LIG d   1     -26.173  84.768 113.310  0.00  0.00     0.091 C 
ENDROOT
BRANCH   1   7
ATOM      7  O   LIG d   1     -26.482  87.065 114.107  0.00  0.00    -0.368 OA
BRANCH   7   8
ATOM      8  C   LIG d   1     -25.851  88.050 113.252  0.00  0.00     0.119 C 
BRANCH   8   9
ATOM      9  C   LIG d   1     -26.258  89.443 113.772  0.00  0.00     0.028 C 
ATOM     10  C   LIG d   1     -27.164  89.364 115.012  0.00  0.00     0.006 C 
ENDBRANCH   8   9
BRANCH   8  11
ATOM     11  C   LIG d   1     -26.395  87.977 111.822  0.00  0.00     0.028 C 
ATOM     12  C   LIG d   1     -27.893  87.638 111.771  0.00  0.00     0.006 C 
ENDBRANCH   8  11
ENDBRANCH   7   8
ENDBRANCH   1   7
BRANCH   6  13
ATOM     13  N   LIG d   1     -27.499  84.252 113.739  0.00  0.00    -0.311 N 
ATOM     14  C   LIG d   1     -28.473  83.936 112.887  0.00  0.00     0.210 C 
ATOM     15  C   LIG d   1     -29.767  83.440 113.540  0.00  0.00     0.109 C 
ATOM     16  O   LIG d   1     -28.377  83.988 111.652  0.00  0.00    -0.276 OA
ATOM     17  H   LIG d   1     -27.651  84.149 114.723  0.00  0.00     0.149 HD
ENDBRANCH   6  13
BRANCH   5  18
ATOM     18  N   LIG d   1     -25.439  82.660 112.139  0.00  0.00     0.381 N 
ATOM     19  H   LIG d   1     -26.179  82.064 112.452  0.00  0.00    -0.090 HD
ATOM     20  H   LIG d   1     -24.628  82.093 111.965  0.00  0.00    -0.090 HD
ATOM     21  H   LIG d   1     -25.711  83.128 111.302  0.00  0.00    -0.090 HD
ENDBRANCH   5  18
BRANCH   3  22
ATOM     22  C   LIG d   1     -22.052  85.551 113.902  0.00  0.00     0.382 C 
ATOM     23  O   LIG d   1     -21.382  84.732 114.575  0.00  0.00    -0.241 OA
ATOM     24  O   LIG d   1     -21.507  86.587 113.476  0.00  0.00    -0.241 OA
ENDBRANCH   3  22
TORSDOF 7
ENDMDL
MODEL 9
REMARK VINA RESULT:      -4.5     13.357     15.712
REMARK  7 active torsions:
REMARK  status: ('A' for Active; 'I' for Inactive)
REMARK    1  A    between atoms: C_2  and  C_3 
REMARK    2  A    between atoms: C_3  and  O_6 
REMARK    3  A    between atoms: C_3  and  C_4 
REMARK    4  A    between atoms: C_7  and  O_6 
REMARK    5  A    between atoms: C_9  and  C_10 
REMARK    6  A    between atoms: N_15  and  C_14 
REMARK    7  A    between atoms: N_20  and  C_19 
REMARK       I    between atoms: C_22  and  N_20 
ROOT
ATOM      1  C   LIG d   1      11.531  76.197 114.114  0.00  0.00     0.161 C 
ATOM      2  C   LIG d   1      10.238  76.727 114.260  0.00  0.00     0.016 C 
ATOM      3  C   LIG d   1       9.648  77.005 115.515  0.00  0.00     0.038 C 
ATOM      4  C   LIG d   1      10.373  76.912 116.712  0.00  0.00     0.028 C 
ATOM      5  C   LIG d   1      11.514  75.902 116.652  0.00  0.00    -0.047 C 
ATOM      6  C   LIG d   1      12.378  76.194 115.404  0.00  0.00     0.091 C 
ENDROOT
BRANCH   1   7
ATOM      7  O   LIG d   1      12.227  76.890 113.060  0.00  0.00    -0.368 OA
BRANCH   7   8
ATOM      8  C   LIG d   1      13.229  77.848 113.480  0.00  0.00     0.119 C 
BRANCH   8   9
ATOM      9  C   LIG d   1      12.604  79.252 113.367  0.00  0.00     0.028 C 
ATOM     10  C   LIG d   1      12.601  80.004 114.709  0.00  0.00     0.006 C 
ENDBRANCH   8   9
BRANCH   8  11
ATOM     11  C   LIG d   1      14.425  77.859 112.524  0.00  0.00     0.028 C 
ATOM     12  C   LIG d   1      15.738  78.261 113.216  0.00  0.00     0.006 C 
ENDBRANCH   8  11
ENDBRANCH   7   8
ENDBRANCH   1   7
BRANCH   6  13
ATOM     13  N   LIG d   1      13.467  75.199 115.224  0.00  0.00    -0.311 N 
ATOM     14  C   LIG d   1      14.706  75.379 115.679  0.00  0.00     0.210 C 
ATOM     15  C   LIG d   1      15.681  74.239 115.368  0.00  0.00     0.109 C 
ATOM     16  O   LIG d   1      15.082  76.360 116.339  0.00  0.00    -0.276 OA
ATOM     17  H   LIG d   1      13.242  74.360 114.727  0.00  0.00     0.149 HD
ENDBRANCH   6  13
BRANCH   5  18
ATOM     18  N   LIG d   1      12.269  76.007 117.915  0.00  0.00     0.381 N 
ATOM     19  H   LIG d   1      11.634  76.024 118.689  0.00  0.00    -0.090 HD
ATOM     20  H   LIG d   1      12.787  76.868 117.914  0.00  0.00    -0.090 HD
ATOM     21  H   LIG d   1      12.893  75.236 118.005  0.00  0.00    -0.090 HD
ENDBRANCH   5  18
BRANCH   3  22
ATOM     22  C   LIG d   1       8.304  77.342 115.583  0.00  0.00     0.382 C 
ATOM     23  O   LIG d   1       7.772  77.989 114.648  0.00  0.00    -0.241 OA
ATOM     24  O   LIG d   1       7.629  77.047 116.587  0.00  0.00    -0.241 OA
ENDBRANCH   3  22
TORSDOF 7
ENDMDL
