MODEL 1
REMARK VINA RESULT:      -5.4      0.000      0.000
REMARK  7 active torsions:
REMARK  status: ('A' for Active; 'I' for Inactive)
REMARK    1  A    between atoms: C_2  and  C_3 
REMARK    2  A    between atoms: C_3  and  O_6 
REMARK    3  A    between atoms: C_3  and  C_4 
REMARK    4  A    between atoms: C_7  and  O_6 
REMARK    5  A    between atoms: C_9  and  C_10 
REMARK    6  A    between atoms: N_15  and  C_14 
REMARK    7  A    between atoms: N_20  and  C_19 
REMARK       I    between atoms: C_22  and  N_20 
ROOT
ATOM      1  C   LIG d   1       2.907  84.492 113.587  0.00  0.00     0.161 C 
ATOM      2  C   LIG d   1       3.546  85.650 114.061  0.00  0.00     0.016 C 
ATOM      3  C   LIG d   1       3.563  86.874 113.354  0.00  0.00     0.038 C 
ATOM      4  C   LIG d   1       2.808  87.067 112.188  0.00  0.00     0.028 C 
ATOM      5  C   LIG d   1       2.557  85.781 111.408  0.00  0.00    -0.047 C 
ATOM      6  C   LIG d   1       1.984  84.715 112.370  0.00  0.00     0.091 C 
ENDROOT
BRANCH   1   7
ATOM      7  O   LIG d   1       2.178  83.862 114.659  0.00  0.00    -0.368 OA
BRANCH   7   8
ATOM      8  C   LIG d   1       2.887  82.834 115.394  0.00  0.00     0.119 C 
BRANCH   8   9
ATOM      9  C   LIG d   1       2.530  81.479 114.754  0.00  0.00     0.028 C 
ATOM     10  C   LIG d   1       1.839  80.526 115.744  0.00  0.00     0.006 C 
ENDBRANCH   8   9
BRANCH   8  11
ATOM     11  C   LIG d   1       2.393  82.742 116.841  0.00  0.00     0.028 C 
ATOM     12  C   LIG d   1       1.863  84.082 117.376  0.00  0.00     0.006 C 
ENDBRANCH   8  11
ENDBRANCH   7   8
ENDBRANCH   1   7
BRANCH   6  13
ATOM     13  N   LIG d   1       1.789  83.399 111.707  0.00  0.00    -0.311 N 
ATOM     14  C   LIG d   1       0.592  82.850 111.505  0.00  0.00     0.210 C 
ATOM     15  C   LIG d   1       0.617  81.479 110.822  0.00  0.00     0.109 C 
ATOM     16  O   LIG d   1      -0.489  83.383 111.799  0.00  0.00    -0.276 OA
ATOM     17  H   LIG d   1       2.611  82.912 111.408  0.00  0.00     0.149 HD
ENDBRANCH   6  13
BRANCH   5  18
ATOM     18  N   LIG d   1       1.646  86.105 110.295  0.00  0.00     0.381 N 
ATOM     19  H   LIG d   1       2.095  86.736 109.662  0.00  0.00    -0.090 HD
ATOM     20  H   LIG d   1       0.828  86.557 110.665  0.00  0.00    -0.090 HD
ATOM     21  H   LIG d   1       1.384  85.272 109.815  0.00  0.00    -0.090 HD
ENDBRANCH   5  18
BRANCH   3  22
ATOM     22  C   LIG d   1       4.374  87.909 113.793  0.00  0.00     0.382 C 
ATOM     23  O   LIG d   1       4.792  88.767 112.978  0.00  0.00    -0.241 OA
ATOM     24  O   LIG d   1       4.729  87.972 114.985  0.00  0.00    -0.241 OA
ENDBRANCH   3  22
TORSDOF 7
ENDMDL
MODEL 2
REMARK VINA RESULT:      -4.6     26.386     28.379
REMARK  7 active torsions:
REMARK  status: ('A' for Active; 'I' for Inactive)
REMARK    1  A    between atoms: C_2  and  C_3 
REMARK    2  A    between atoms: C_3  and  O_6 
REMARK    3  A    between atoms: C_3  and  C_4 
REMARK    4  A    between atoms: C_7  and  O_6 
REMARK    5  A    between atoms: C_9  and  C_10 
REMARK    6  A    between atoms: N_15  and  C_14 
REMARK    7  A    between atoms: N_20  and  C_19 
REMARK       I    between atoms: C_22  and  N_20 
ROOT
ATOM      1  C   LIG d   1     -25.737  85.459 113.789  0.00  0.00     0.161 C 
ATOM      2  C   LIG d   1     -24.418  85.935 113.704  0.00  0.00     0.016 C 
ATOM      3  C   LIG d   1     -23.328  85.138 113.287  0.00  0.00     0.038 C 
ATOM      4  C   LIG d   1     -23.508  83.843 112.779  0.00  0.00     0.028 C 
ATOM      5  C   LIG d   1     -24.753  83.148 113.320  0.00  0.00    -0.047 C 
ATOM      6  C   LIG d   1     -25.970  84.082 113.133  0.00  0.00     0.091 C 
ENDROOT
BRANCH   1   7
ATOM      7  O   LIG d   1     -26.646  86.434 113.242  0.00  0.00    -0.368 OA
BRANCH   7   8
ATOM      8  C   LIG d   1     -26.129  87.251 112.162  0.00  0.00     0.119 C 
BRANCH   8   9
ATOM      9  C   LIG d   1     -26.601  88.697 112.408  0.00  0.00     0.028 C 
ATOM     10  C   LIG d   1     -26.717  89.507 111.106  0.00  0.00     0.006 C 
ENDBRANCH   8   9
BRANCH   8  11
ATOM     11  C   LIG d   1     -26.742  86.848 110.817  0.00  0.00     0.028 C 
ATOM     12  C   LIG d   1     -28.115  86.173 110.966  0.00  0.00     0.006 C 
ENDBRANCH   8  11
ENDBRANCH   7   8
ENDBRANCH   1   7
BRANCH   6  13
ATOM     13  N   LIG d   1     -27.215  83.513 113.712  0.00  0.00    -0.311 N 
ATOM     14  C   LIG d   1     -28.112  82.833 112.998  0.00  0.00     0.210 C 
ATOM     15  C   LIG d   1     -29.334  82.351 113.786  0.00  0.00     0.109 C 
ATOM     16  O   LIG d   1     -27.995  82.557 111.795  0.00  0.00    -0.276 OA
ATOM     17  H   LIG d   1     -27.374  83.663 114.689  0.00  0.00     0.149 HD
ENDBRANCH   6  13
BRANCH   5  18
ATOM     18  N   LIG d   1     -24.893  81.865 112.605  0.00  0.00     0.381 N 
ATOM     19  H   LIG d   1     -25.813  81.790 112.220  0.00  0.00    -0.090 HD
ATOM     20  H   LIG d   1     -24.762  81.113 113.259  0.00  0.00    -0.090 HD
ATOM     21  H   LIG d   1     -24.214  81.804 111.878  0.00  0.00    -0.090 HD
ENDBRANCH   5  18
BRANCH   3  22
ATOM     22  C   LIG d   1     -22.034  85.622 113.414  0.00  0.00     0.382 C 
ATOM     23  O   LIG d   1     -21.780  86.815 113.122  0.00  0.00    -0.241 OA
ATOM     24  O   LIG d   1     -21.111  84.868 113.775  0.00  0.00    -0.241 OA
ENDBRANCH   3  22
TORSDOF 7
ENDMDL
MODEL 3
REMARK VINA RESULT:      -4.5     11.694     13.384
REMARK  7 active torsions:
REMARK  status: ('A' for Active; 'I' for Inactive)
REMARK    1  A    between atoms: C_2  and  C_3 
REMARK    2  A    between atoms: C_3  and  O_6 
REMARK    3  A    between atoms: C_3  and  C_4 
REMARK    4  A    between atoms: C_7  and  O_6 
REMARK    5  A    between atoms: C_9  and  C_10 
REMARK    6  A    between atoms: N_15  and  C_14 
REMARK    7  A    between atoms: N_20  and  C_19 
REMARK       I    between atoms: C_22  and  N_20 
ROOT
ATOM      1  C   LIG d   1      12.420  78.233 114.143  0.00  0.00     0.161 C 
ATOM      2  C   LIG d   1      11.145  78.768 114.391  0.00  0.00     0.016 C 
ATOM      3  C   LIG d   1      10.071  78.011 114.912  0.00  0.00     0.038 C 
ATOM      4  C   LIG d   1      10.243  76.694 115.364  0.00  0.00     0.028 C 
ATOM      5  C   LIG d   1      11.382  75.958 114.667  0.00  0.00    -0.047 C 
ATOM      6  C   LIG d   1      12.658  76.828 114.734  0.00  0.00     0.091 C 
ENDROOT
BRANCH   1   7
ATOM      7  O   LIG d   1      13.433  79.149 114.605  0.00  0.00    -0.368 OA
BRANCH   7   8
ATOM      8  C   LIG d   1      14.151  79.876 113.578  0.00  0.00     0.119 C 
BRANCH   8   9
ATOM      9  C   LIG d   1      13.827  79.210 112.227  0.00  0.00     0.028 C 
ATOM     10  C   LIG d   1      15.056  78.534 111.596  0.00  0.00     0.006 C 
ENDBRANCH   8   9
BRANCH   8  11
ATOM     11  C   LIG d   1      15.666  79.730 113.749  0.00  0.00     0.028 C 
ATOM     12  C   LIG d   1      16.097  79.671 115.223  0.00  0.00     0.006 C 
ENDBRANCH   8  11
ENDBRANCH   7   8
ENDBRANCH   1   7
BRANCH   6  13
ATOM     13  N   LIG d   1      13.799  76.219 114.002  0.00  0.00    -0.311 N 
ATOM     14  C   LIG d   1      14.997  76.017 114.548  0.00  0.00     0.210 C 
ATOM     15  C   LIG d   1      16.038  75.395 113.612  0.00  0.00     0.109 C 
ATOM     16  O   LIG d   1      15.287  76.265 115.728  0.00  0.00    -0.276 OA
ATOM     17  H   LIG d   1      13.642  75.959 113.048  0.00  0.00     0.149 HD
ENDBRANCH   6  13
BRANCH   5  18
ATOM     18  N   LIG d   1      11.539  74.649 115.329  0.00  0.00     0.381 N 
ATOM     19  H   LIG d   1      12.479  74.325 115.221  0.00  0.00    -0.090 HD
ATOM     20  H   LIG d   1      10.924  73.987 114.890  0.00  0.00    -0.090 HD
ATOM     21  H   LIG d   1      11.317  74.729 116.297  0.00  0.00    -0.090 HD
ENDBRANCH   5  18
BRANCH   3  22
ATOM     22  C   LIG d   1       8.797  78.558 114.947  0.00  0.00     0.382 C 
ATOM     23  O   LIG d   1       7.792  77.807 114.941  0.00  0.00    -0.241 OA
ATOM     24  O   LIG d   1       8.640  79.793 114.939  0.00  0.00    -0.241 OA
ENDBRANCH   3  22
TORSDOF 7
ENDMDL
MODEL 4
REMARK VINA RESULT:      -4.5      2.058      2.417
REMARK  7 active torsions:
REMARK  status: ('A' for Active; 'I' for Inactive)
REMARK    1  A    between atoms: C_2  and  C_3 
REMARK    2  A    between atoms: C_3  and  O_6 
REMARK    3  A    between atoms: C_3  and  C_4 
REMARK    4  A    between atoms: C_7  and  O_6 
REMARK    5  A    between atoms: C_9  and  C_10 
REMARK    6  A    between atoms: N_15  and  C_14 
REMARK    7  A    between atoms: N_20  and  C_19 
REMARK       I    between atoms: C_22  and  N_20 
ROOT
ATOM      1  C   LIG d   1       2.585  83.083 113.320  0.00  0.00     0.161 C 
ATOM      2  C   LIG d   1       2.624  84.437 113.694  0.00  0.00     0.016 C 
ATOM      3  C   LIG d   1       2.034  85.471 112.932  0.00  0.00     0.038 C 
ATOM      4  C   LIG d   1       1.229  85.203 111.814  0.00  0.00     0.028 C 
ATOM      5  C   LIG d   1       1.581  83.894 111.115  0.00  0.00    -0.047 C 
ATOM      6  C   LIG d   1       1.617  82.759 112.163  0.00  0.00     0.091 C 
ENDROOT
BRANCH   1   7
ATOM      7  O   LIG d   1       2.283  82.268 114.470  0.00  0.00    -0.368 OA
BRANCH   7   8
ATOM      8  C   LIG d   1       3.035  82.559 115.673  0.00  0.00     0.119 C 
BRANCH   8   9
ATOM      9  C   LIG d   1       3.856  81.302 116.022  0.00  0.00     0.028 C 
ATOM     10  C   LIG d   1       5.026  81.611 116.971  0.00  0.00     0.006 C 
ENDBRANCH   8   9
BRANCH   8  11
ATOM     11  C   LIG d   1       2.106  82.782 116.870  0.00  0.00     0.028 C 
ATOM     12  C   LIG d   1       2.101  84.240 117.357  0.00  0.00     0.006 C 
ENDBRANCH   8  11
ENDBRANCH   7   8
ENDBRANCH   1   7
BRANCH   6  13
ATOM     13  N   LIG d   1       2.036  81.459 111.577  0.00  0.00    -0.311 N 
ATOM     14  C   LIG d   1       3.184  81.286 110.923  0.00  0.00     0.210 C 
ATOM     15  C   LIG d   1       3.412  79.871 110.382  0.00  0.00     0.109 C 
ATOM     16  O   LIG d   1       4.049  82.161 110.769  0.00  0.00    -0.276 OA
ATOM     17  H   LIG d   1       1.408  80.687 111.683  0.00  0.00     0.149 HD
ENDBRANCH   6  13
BRANCH   5  18
ATOM     18  N   LIG d   1       0.579  83.672 110.056  0.00  0.00     0.381 N 
ATOM     19  H   LIG d   1      -0.205  84.276 110.199  0.00  0.00    -0.090 HD
ATOM     20  H   LIG d   1       0.258  82.721 110.106  0.00  0.00    -0.090 HD
ATOM     21  H   LIG d   1       0.983  83.846 109.162  0.00  0.00    -0.090 HD
ENDBRANCH   5  18
BRANCH   3  22
ATOM     22  C   LIG d   1       2.280  86.795 113.263  0.00  0.00     0.382 C 
ATOM     23  O   LIG d   1       2.706  87.591 112.392  0.00  0.00    -0.241 OA
ATOM     24  O   LIG d   1       2.123  87.193 114.433  0.00  0.00    -0.241 OA
ENDBRANCH   3  22
TORSDOF 7
ENDMDL
MODEL 5
REMARK VINA RESULT:      -4.5     11.796     13.898
REMARK  7 active torsions:
REMARK  status: ('A' for Active; 'I' for Inactive)
REMARK    1  A    between atoms: C_2  and  C_3 
REMARK    2  A    between atoms: C_3  and  O_6 
REMARK    3  A    between atoms: C_3  and  C_4 
REMARK    4  A    between atoms: C_7  and  O_6 
REMARK    5  A    between atoms: C_9  and  C_10 
REMARK    6  A    between atoms: N_15  and  C_14 
REMARK    7  A    between atoms: N_20  and  C_19 
REMARK       I    between atoms: C_22  and  N_20 
ROOT
ATOM      1  C   LIG d   1      11.329  75.939 114.777  0.00  0.00     0.161 C 
ATOM      2  C   LIG d   1      11.086  74.690 115.372  0.00  0.00     0.016 C 
ATOM      3  C   LIG d   1      12.087  73.709 115.559  0.00  0.00     0.038 C 
ATOM      4  C   LIG d   1      13.440  73.972 115.299  0.00  0.00     0.028 C 
ATOM      5  C   LIG d   1      13.656  75.036 114.229  0.00  0.00    -0.047 C 
ATOM      6  C   LIG d   1      12.821  76.286 114.589  0.00  0.00     0.091 C 
ENDROOT
BRANCH   1   7
ATOM      7  O   LIG d   1      10.664  76.975 115.527  0.00  0.00    -0.368 OA
BRANCH   7   8
ATOM      8  C   LIG d   1       9.550  77.625 114.866  0.00  0.00     0.119 C 
BRANCH   8   9
ATOM      9  C   LIG d   1       9.799  79.145 114.926  0.00  0.00     0.028 C 
ATOM     10  C   LIG d   1      11.001  79.508 115.814  0.00  0.00     0.006 C 
ENDBRANCH   8   9
BRANCH   8  11
ATOM     11  C   LIG d   1       8.241  77.398 115.629  0.00  0.00     0.028 C 
ATOM     12  C   LIG d   1       8.458  76.741 117.001  0.00  0.00     0.006 C 
ENDBRANCH   8  11
ENDBRANCH   7   8
ENDBRANCH   1   7
BRANCH   6  13
ATOM     13  N   LIG d   1      12.909  77.345 113.550  0.00  0.00    -0.311 N 
ATOM     14  C   LIG d   1      13.763  78.366 113.613  0.00  0.00     0.210 C 
ATOM     15  C   LIG d   1      13.675  79.356 112.447  0.00  0.00     0.109 C 
ATOM     16  O   LIG d   1      14.606  78.527 114.507  0.00  0.00    -0.276 OA
ATOM     17  H   LIG d   1      12.282  77.275 112.772  0.00  0.00     0.149 HD
ENDBRANCH   6  13
BRANCH   5  18
ATOM     18  N   LIG d   1      15.104  75.309 114.157  0.00  0.00     0.381 N 
ATOM     19  H   LIG d   1      15.552  74.977 114.988  0.00  0.00    -0.090 HD
ATOM     20  H   LIG d   1      15.245  76.302 114.098  0.00  0.00    -0.090 HD
ATOM     21  H   LIG d   1      15.496  74.862 113.358  0.00  0.00    -0.090 HD
ENDBRANCH   5  18
BRANCH   3  22
ATOM     22  C   LIG d   1      11.731  72.435 115.974  0.00  0.00     0.382 C 
ATOM     23  O   LIG d   1      11.424  71.562 115.126  0.00  0.00    -0.241 OA
ATOM     24  O   LIG d   1      11.669  72.160 117.187  0.00  0.00    -0.241 OA
ENDBRANCH   3  22
TORSDOF 7
ENDMDL
MODEL 6
REMARK VINA RESULT:      -4.4     11.457     13.225
REMARK  7 active torsions:
REMARK  status: ('A' for Active; 'I' for Inactive)
REMARK    1  A    between atoms: C_2  and  C_3 
REMARK    2  A    between atoms: C_3  and  O_6 
REMARK    3  A    between atoms: C_3  and  C_4 
REMARK    4  A    between atoms: C_7  and  O_6 
REMARK    5  A    between atoms: C_9  and  C_10 
REMARK    6  A    between atoms: N_15  and  C_14 
REMARK    7  A    between atoms: N_20  and  C_19 
REMARK       I    between atoms: C_22  and  N_20 
ROOT
ATOM      1  C   LIG d   1      12.636  78.083 114.564  0.00  0.00     0.161 C 
ATOM      2  C   LIG d   1      11.410  77.421 114.379  0.00  0.00     0.016 C 
ATOM      3  C   LIG d   1      10.173  77.935 114.831  0.00  0.00     0.038 C 
ATOM      4  C   LIG d   1      10.058  79.225 115.369  0.00  0.00     0.028 C 
ATOM      5  C   LIG d   1      11.338  79.720 116.035  0.00  0.00    -0.047 C 
ATOM      6  C   LIG d   1      12.516  79.542 115.050  0.00  0.00     0.091 C 
ENDROOT
BRANCH   1   7
ATOM      7  O   LIG d   1      13.412  78.020 113.352  0.00  0.00    -0.368 OA
BRANCH   7   8
ATOM      8  C   LIG d   1      14.352  76.922 113.252  0.00  0.00     0.119 C 
BRANCH   8   9
ATOM      9  C   LIG d   1      14.970  76.714 114.649  0.00  0.00     0.028 C 
ATOM     10  C   LIG d   1      16.429  77.193 114.722  0.00  0.00     0.006 C 
ENDBRANCH   8   9
BRANCH   8  11
ATOM     11  C   LIG d   1      15.528  77.276 112.337  0.00  0.00     0.028 C 
ATOM     12  C   LIG d   1      15.080  77.896 111.004  0.00  0.00     0.006 C 
ENDBRANCH   8  11
ENDBRANCH   7   8
ENDBRANCH   1   7
BRANCH   6  13
ATOM     13  N   LIG d   1      13.820  79.924 115.652  0.00  0.00    -0.311 N 
ATOM     14  C   LIG d   1      14.790  80.535 114.974  0.00  0.00     0.210 C 
ATOM     15  C   LIG d   1      16.061  80.821 115.779  0.00  0.00     0.109 C 
ATOM     16  O   LIG d   1      14.705  80.897 113.791  0.00  0.00    -0.276 OA
ATOM     17  H   LIG d   1      13.961  79.696 116.617  0.00  0.00     0.149 HD
ENDBRANCH   6  13
BRANCH   5  18
ATOM     18  N   LIG d   1      11.120  81.125 116.428  0.00  0.00     0.381 N 
ATOM     19  H   LIG d   1      10.741  81.163 117.353  0.00  0.00    -0.090 HD
ATOM     20  H   LIG d   1      10.457  81.541 115.798  0.00  0.00    -0.090 HD
ATOM     21  H   LIG d   1      11.981  81.626 116.394  0.00  0.00    -0.090 HD
ENDBRANCH   5  18
BRANCH   3  22
ATOM     22  C   LIG d   1       9.039  77.138 114.783  0.00  0.00     0.382 C 
ATOM     23  O   LIG d   1       9.125  75.948 114.393  0.00  0.00    -0.241 OA
ATOM     24  O   LIG d   1       7.924  77.606 115.082  0.00  0.00    -0.241 OA
ENDBRANCH   3  22
TORSDOF 7
ENDMDL
MODEL 7
REMARK VINA RESULT:      -4.4     26.641     28.620
REMARK  7 active torsions:
REMARK  status: ('A' for Active; 'I' for Inactive)
REMARK    1  A    between atoms: C_2  and  C_3 
REMARK    2  A    between atoms: C_3  and  O_6 
REMARK    3  A    between atoms: C_3  and  C_4 
REMARK    4  A    between atoms: C_7  and  O_6 
REMARK    5  A    between atoms: C_9  and  C_10 
REMARK    6  A    between atoms: N_15  and  C_14 
REMARK    7  A    between atoms: N_20  and  C_19 
REMARK       I    between atoms: C_22  and  N_20 
ROOT
ATOM      1  C   LIG d   1     -25.449  86.193 113.064  0.00  0.00     0.161 C 
ATOM      2  C   LIG d   1     -24.071  86.032 112.847  0.00  0.00     0.016 C 
ATOM      3  C   LIG d   1     -23.196  85.457 113.798  0.00  0.00     0.038 C 
ATOM      4  C   LIG d   1     -23.669  84.863 114.977  0.00  0.00     0.028 C 
ATOM      5  C   LIG d   1     -24.988  85.452 115.465  0.00  0.00    -0.047 C 
ATOM      6  C   LIG d   1     -26.001  85.449 114.298  0.00  0.00     0.091 C 
ENDROOT
BRANCH   1   7
ATOM      7  O   LIG d   1     -26.178  85.809 111.881  0.00  0.00    -0.368 OA
BRANCH   7   8
ATOM      8  C   LIG d   1     -26.707  86.893 111.078  0.00  0.00     0.119 C 
BRANCH   8   9
ATOM      9  C   LIG d   1     -26.589  88.185 111.910  0.00  0.00     0.028 C 
ATOM     10  C   LIG d   1     -26.860  89.448 111.075  0.00  0.00     0.006 C 
ENDBRANCH   8   9
BRANCH   8  11
ATOM     11  C   LIG d   1     -28.205  86.714 110.817  0.00  0.00     0.028 C 
ATOM     12  C   LIG d   1     -28.724  85.334 111.249  0.00  0.00     0.006 C 
ENDBRANCH   8  11
ENDBRANCH   7   8
ENDBRANCH   1   7
BRANCH   6  13
ATOM     13  N   LIG d   1     -27.292  86.086 114.667  0.00  0.00    -0.311 N 
ATOM     14  C   LIG d   1     -28.361  85.399 115.067  0.00  0.00     0.210 C 
ATOM     15  C   LIG d   1     -29.596  86.250 115.380  0.00  0.00     0.109 C 
ATOM     16  O   LIG d   1     -28.394  84.169 115.223  0.00  0.00    -0.276 OA
ATOM     17  H   LIG d   1     -27.344  87.084 114.600  0.00  0.00     0.149 HD
ENDBRANCH   6  13
BRANCH   5  18
ATOM     18  N   LIG d   1     -25.434  84.649 116.620  0.00  0.00     0.381 N 
ATOM     19  H   LIG d   1     -26.166  85.130 117.104  0.00  0.00    -0.090 HD
ATOM     20  H   LIG d   1     -24.661  84.532 117.252  0.00  0.00    -0.090 HD
ATOM     21  H   LIG d   1     -25.758  83.759 116.312  0.00  0.00    -0.090 HD
ENDBRANCH   5  18
BRANCH   3  22
ATOM     22  C   LIG d   1     -21.826  85.510 113.590  0.00  0.00     0.382 C 
ATOM     23  O   LIG d   1     -21.313  86.514 113.040  0.00  0.00    -0.241 OA
ATOM     24  O   LIG d   1     -21.102  84.547 113.906  0.00  0.00    -0.241 OA
ENDBRANCH   3  22
TORSDOF 7
ENDMDL
MODEL 8
REMARK VINA RESULT:      -4.2     25.263     28.513
REMARK  7 active torsions:
REMARK  status: ('A' for Active; 'I' for Inactive)
REMARK    1  A    between atoms: C_2  and  C_3 
REMARK    2  A    between atoms: C_3  and  O_6 
REMARK    3  A    between atoms: C_3  and  C_4 
REMARK    4  A    between atoms: C_7  and  O_6 
REMARK    5  A    between atoms: C_9  and  C_10 
REMARK    6  A    between atoms: N_15  and  C_14 
REMARK    7  A    between atoms: N_20  and  C_19 
REMARK       I    between atoms: C_22  and  N_20 
ROOT
ATOM      1  C   LIG d   1     -17.565  64.798 114.603  0.00  0.00     0.161 C 
ATOM      2  C   LIG d   1     -17.821  63.700 115.441  0.00  0.00     0.016 C 
ATOM      3  C   LIG d   1     -17.219  63.532 116.710  0.00  0.00     0.038 C 
ATOM      4  C   LIG d   1     -16.431  64.535 117.295  0.00  0.00     0.028 C 
ATOM      5  C   LIG d   1     -15.740  65.434 116.275  0.00  0.00    -0.047 C 
ATOM      6  C   LIG d   1     -16.794  65.956 115.271  0.00  0.00     0.091 C 
ENDROOT
BRANCH   1   7
ATOM      7  O   LIG d   1     -18.800  65.280 114.038  0.00  0.00    -0.368 OA
BRANCH   7   8
ATOM      8  C   LIG d   1     -20.008  64.943 114.765  0.00  0.00     0.119 C 
BRANCH   8   9
ATOM      9  C   LIG d   1     -21.119  64.694 113.726  0.00  0.00     0.028 C 
ATOM     10  C   LIG d   1     -20.573  64.614 112.291  0.00  0.00     0.006 C 
ENDBRANCH   8   9
BRANCH   8  11
ATOM     11  C   LIG d   1     -20.498  66.124 115.608  0.00  0.00     0.028 C 
ATOM     12  C   LIG d   1     -20.195  65.953 117.105  0.00  0.00     0.006 C 
ENDBRANCH   8  11
ENDBRANCH   7   8
ENDBRANCH   1   7
BRANCH   6  13
ATOM     13  N   LIG d   1     -16.189  66.776 114.190  0.00  0.00    -0.311 N 
ATOM     14  C   LIG d   1     -15.949  68.081 114.307  0.00  0.00     0.210 C 
ATOM     15  C   LIG d   1     -15.339  68.740 113.066  0.00  0.00     0.109 C 
ATOM     16  O   LIG d   1     -16.153  68.749 115.332  0.00  0.00    -0.276 OA
ATOM     17  H   LIG d   1     -15.963  66.308 113.334  0.00  0.00     0.149 HD
ENDBRANCH   6  13
BRANCH   5  18
ATOM     18  N   LIG d   1     -15.066  66.515 117.019  0.00  0.00     0.381 N 
ATOM     19  H   LIG d   1     -15.696  67.281 117.150  0.00  0.00    -0.090 HD
ATOM     20  H   LIG d   1     -14.282  66.840 116.481  0.00  0.00    -0.090 HD
ATOM     21  H   LIG d   1     -14.754  66.177 117.903  0.00  0.00    -0.090 HD
ENDBRANCH   5  18
BRANCH   3  22
ATOM     22  C   LIG d   1     -17.372  62.334 117.390  0.00  0.00     0.382 C 
ATOM     23  O   LIG d   1     -18.452  61.700 117.309  0.00  0.00    -0.241 OA
ATOM     24  O   LIG d   1     -16.460  61.900 118.119  0.00  0.00    -0.241 OA
ENDBRANCH   3  22
TORSDOF 7
ENDMDL
MODEL 9
REMARK VINA RESULT:      -4.2     25.814     28.717
REMARK  7 active torsions:
REMARK  status: ('A' for Active; 'I' for Inactive)
REMARK    1  A    between atoms: C_2  and  C_3 
REMARK    2  A    between atoms: C_3  and  O_6 
REMARK    3  A    between atoms: C_3  and  C_4 
REMARK    4  A    between atoms: C_7  and  O_6 
REMARK    5  A    between atoms: C_9  and  C_10 
REMARK    6  A    between atoms: N_15  and  C_14 
REMARK    7  A    between atoms: N_20  and  C_19 
REMARK       I    between atoms: C_22  and  N_20 
ROOT
ATOM      1  C   LIG d   1     -18.601  65.505 116.323  0.00  0.00     0.161 C 
ATOM      2  C   LIG d   1     -17.525  64.926 117.017  0.00  0.00     0.016 C 
ATOM      3  C   LIG d   1     -17.068  63.609 116.785  0.00  0.00     0.038 C 
ATOM      4  C   LIG d   1     -17.562  62.828 115.730  0.00  0.00     0.028 C 
ATOM      5  C   LIG d   1     -18.991  63.183 115.331  0.00  0.00    -0.047 C 
ATOM      6  C   LIG d   1     -19.080  64.708 115.092  0.00  0.00     0.091 C 
ENDROOT
BRANCH   1   7
ATOM      7  O   LIG d   1     -18.269  66.856 115.947  0.00  0.00    -0.368 OA
BRANCH   7   8
ATOM      8  C   LIG d   1     -16.879  67.105 115.624  0.00  0.00     0.119 C 
BRANCH   8   9
ATOM      9  C   LIG d   1     -16.497  68.466 116.239  0.00  0.00     0.028 C 
ATOM     10  C   LIG d   1     -17.140  68.688 117.618  0.00  0.00     0.006 C 
ENDBRANCH   8   9
BRANCH   8  11
ATOM     11  C   LIG d   1     -16.678  67.271 114.115  0.00  0.00     0.028 C 
ATOM     12  C   LIG d   1     -15.634  68.344 113.767  0.00  0.00     0.006 C 
ENDBRANCH   8  11
ENDBRANCH   7   8
ENDBRANCH   1   7
BRANCH   6  13
ATOM     13  N   LIG d   1     -20.464  65.152 114.780  0.00  0.00    -0.311 N 
ATOM     14  C   LIG d   1     -20.928  65.285 113.538  0.00  0.00     0.210 C 
ATOM     15  C   LIG d   1     -22.376  65.775 113.439  0.00  0.00     0.109 C 
ATOM     16  O   LIG d   1     -20.289  65.012 112.511  0.00  0.00    -0.276 OA
ATOM     17  H   LIG d   1     -21.061  65.364 115.555  0.00  0.00     0.149 HD
ENDBRANCH   6  13
BRANCH   5  18
ATOM     18  N   LIG d   1     -19.329  62.390 114.134  0.00  0.00     0.381 N 
ATOM     19  H   LIG d   1     -18.922  61.479 114.205  0.00  0.00    -0.090 HD
ATOM     20  H   LIG d   1     -18.946  62.844 113.324  0.00  0.00    -0.090 HD
ATOM     21  H   LIG d   1     -20.319  62.314 114.044  0.00  0.00    -0.090 HD
ENDBRANCH   5  18
BRANCH   3  22
ATOM     22  C   LIG d   1     -16.132  63.045 117.639  0.00  0.00     0.382 C 
ATOM     23  O   LIG d   1     -16.338  61.912 118.135  0.00  0.00    -0.241 OA
ATOM     24  O   LIG d   1     -15.105  63.675 117.955  0.00  0.00    -0.241 OA
ENDBRANCH   3  22
TORSDOF 7
ENDMDL
