MODEL 1
REMARK VINA RESULT:      -5.5      0.000      0.000
REMARK  7 active torsions:
REMARK  status: ('A' for Active; 'I' for Inactive)
REMARK    1  A    between atoms: C_2  and  C_3 
REMARK    2  A    between atoms: C_3  and  O_6 
REMARK    3  A    between atoms: C_3  and  C_4 
REMARK    4  A    between atoms: C_7  and  O_6 
REMARK    5  A    between atoms: C_9  and  C_10 
REMARK    6  A    between atoms: N_15  and  C_14 
REMARK    7  A    between atoms: N_20  and  C_19 
REMARK       I    between atoms: C_22  and  N_20 
ROOT
ATOM      1  C   LIG d   1      -6.375  75.382 118.111  0.00  0.00     0.161 C 
ATOM      2  C   LIG d   1      -7.732  75.734 118.028  0.00  0.00     0.016 C 
ATOM      3  C   LIG d   1      -8.181  77.046 117.753  0.00  0.00     0.038 C 
ATOM      4  C   LIG d   1      -7.295  78.072 117.390  0.00  0.00     0.028 C 
ATOM      5  C   LIG d   1      -5.890  77.886 117.954  0.00  0.00    -0.047 C 
ATOM      6  C   LIG d   1      -5.395  76.463 117.609  0.00  0.00     0.091 C 
ENDROOT
BRANCH   1   7
ATOM      7  O   LIG d   1      -6.149  74.140 117.417  0.00  0.00    -0.368 OA
BRANCH   7   8
ATOM      8  C   LIG d   1      -6.842  73.979 116.155  0.00  0.00     0.119 C 
BRANCH   8   9
ATOM      9  C   LIG d   1      -7.295  72.510 116.058  0.00  0.00     0.028 C 
ATOM     10  C   LIG d   1      -8.779  72.328 116.418  0.00  0.00     0.006 C 
ENDBRANCH   8   9
BRANCH   8  11
ATOM     11  C   LIG d   1      -5.896  74.191 114.969  0.00  0.00     0.028 C 
ATOM     12  C   LIG d   1      -6.019  75.593 114.352  0.00  0.00     0.006 C 
ENDBRANCH   8  11
ENDBRANCH   7   8
ENDBRANCH   1   7
BRANCH   6  13
ATOM     13  N   LIG d   1      -4.062  76.169 118.196  0.00  0.00    -0.311 N 
ATOM     14  C   LIG d   1      -2.921  76.273 117.516  0.00  0.00     0.210 C 
ATOM     15  C   LIG d   1      -1.661  75.903 118.305  0.00  0.00     0.109 C 
ATOM     16  O   LIG d   1      -2.831  76.667 116.343  0.00  0.00    -0.276 OA
ATOM     17  H   LIG d   1      -4.040  75.872 119.153  0.00  0.00     0.149 HD
ENDBRANCH   6  13
BRANCH   5  18
ATOM     18  N   LIG d   1      -5.038  78.948 117.387  0.00  0.00     0.381 N 
ATOM     19  H   LIG d   1      -4.421  78.559 116.703  0.00  0.00    -0.090 HD
ATOM     20  H   LIG d   1      -4.481  79.346 118.123  0.00  0.00    -0.090 HD
ATOM     21  H   LIG d   1      -5.604  79.654 116.971  0.00  0.00    -0.090 HD
ENDBRANCH   5  18
BRANCH   3  22
ATOM     22  C   LIG d   1      -9.527  77.353 117.878  0.00  0.00     0.382 C 
ATOM     23  O   LIG d   1      -9.878  78.512 118.208  0.00  0.00    -0.241 OA
ATOM     24  O   LIG d   1     -10.394  76.475 117.708  0.00  0.00    -0.241 OA
ENDBRANCH   3  22
TORSDOF 7
ENDMDL
MODEL 2
REMARK VINA RESULT:      -5.5     10.612     13.567
REMARK  7 active torsions:
REMARK  status: ('A' for Active; 'I' for Inactive)
REMARK    1  A    between atoms: C_2  and  C_3 
REMARK    2  A    between atoms: C_3  and  O_6 
REMARK    3  A    between atoms: C_3  and  C_4 
REMARK    4  A    between atoms: C_7  and  O_6 
REMARK    5  A    between atoms: C_9  and  C_10 
REMARK    6  A    between atoms: N_15  and  C_14 
REMARK    7  A    between atoms: N_20  and  C_19 
REMARK       I    between atoms: C_22  and  N_20 
ROOT
ATOM      1  C   LIG d   1       2.422  83.770 113.110  0.00  0.00     0.161 C 
ATOM      2  C   LIG d   1       3.034  85.034 113.161  0.00  0.00     0.016 C 
ATOM      3  C   LIG d   1       2.716  86.089 112.275  0.00  0.00     0.038 C 
ATOM      4  C   LIG d   1       1.650  85.999 111.368  0.00  0.00     0.028 C 
ATOM      5  C   LIG d   1       1.338  84.570 110.938  0.00  0.00    -0.047 C 
ATOM      6  C   LIG d   1       1.178  83.691 112.200  0.00  0.00     0.091 C 
ENDROOT
BRANCH   1   7
ATOM      7  O   LIG d   1       2.096  83.331 114.443  0.00  0.00    -0.368 OA
BRANCH   7   8
ATOM      8  C   LIG d   1       2.967  83.802 115.500  0.00  0.00     0.119 C 
BRANCH   8   9
ATOM      9  C   LIG d   1       3.688  82.573 116.088  0.00  0.00     0.028 C 
ATOM     10  C   LIG d   1       4.771  82.961 117.109  0.00  0.00     0.006 C 
ENDBRANCH   8   9
BRANCH   8  11
ATOM     11  C   LIG d   1       2.164  84.396 116.662  0.00  0.00     0.028 C 
ATOM     12  C   LIG d   1       2.192  85.932 116.682  0.00  0.00     0.006 C 
ENDBRANCH   8  11
ENDBRANCH   7   8
ENDBRANCH   1   7
BRANCH   6  13
ATOM     13  N   LIG d   1       0.955  82.259 111.868  0.00  0.00    -0.311 N 
ATOM     14  C   LIG d   1      -0.255  81.723 111.711  0.00  0.00     0.210 C 
ATOM     15  C   LIG d   1      -0.261  80.225 111.391  0.00  0.00     0.109 C 
ATOM     16  O   LIG d   1      -1.321  82.353 111.773  0.00  0.00    -0.276 OA
ATOM     17  H   LIG d   1       1.766  81.682 111.768  0.00  0.00     0.149 HD
ENDBRANCH   6  13
BRANCH   5  18
ATOM     18  N   LIG d   1       0.122  84.610 110.104  0.00  0.00     0.381 N 
ATOM     19  H   LIG d   1       0.328  84.264 109.188  0.00  0.00    -0.090 HD
ATOM     20  H   LIG d   1      -0.183  85.564 110.019  0.00  0.00    -0.090 HD
ATOM     21  H   LIG d   1      -0.596  84.061 110.521  0.00  0.00    -0.090 HD
ENDBRANCH   5  18
BRANCH   3  22
ATOM     22  C   LIG d   1       3.496  87.235 112.263  0.00  0.00     0.382 C 
ATOM     23  O   LIG d   1       3.010  88.328 112.643  0.00  0.00    -0.241 OA
ATOM     24  O   LIG d   1       4.666  87.199 111.837  0.00  0.00    -0.241 OA
ENDBRANCH   3  22
TORSDOF 7
ENDMDL
MODEL 3
REMARK VINA RESULT:      -5.5     11.233     13.776
REMARK  7 active torsions:
REMARK  status: ('A' for Active; 'I' for Inactive)
REMARK    1  A    between atoms: C_2  and  C_3 
REMARK    2  A    between atoms: C_3  and  O_6 
REMARK    3  A    between atoms: C_3  and  C_4 
REMARK    4  A    between atoms: C_7  and  O_6 
REMARK    5  A    between atoms: C_9  and  C_10 
REMARK    6  A    between atoms: N_15  and  C_14 
REMARK    7  A    between atoms: N_20  and  C_19 
REMARK       I    between atoms: C_22  and  N_20 
ROOT
ATOM      1  C   LIG d   1       2.196  84.678 113.344  0.00  0.00     0.161 C 
ATOM      2  C   LIG d   1       1.348  83.634 112.939  0.00  0.00     0.016 C 
ATOM      3  C   LIG d   1       0.491  83.717 111.818  0.00  0.00     0.038 C 
ATOM      4  C   LIG d   1       0.535  84.803 110.930  0.00  0.00     0.028 C 
ATOM      5  C   LIG d   1       1.012  86.097 111.580  0.00  0.00    -0.047 C 
ATOM      6  C   LIG d   1       2.340  85.827 112.323  0.00  0.00     0.091 C 
ENDROOT
BRANCH   1   7
ATOM      7  O   LIG d   1       3.492  84.150 113.688  0.00  0.00    -0.368 OA
BRANCH   7   8
ATOM      8  C   LIG d   1       3.817  84.129 115.100  0.00  0.00     0.119 C 
BRANCH   8   9
ATOM      9  C   LIG d   1       2.660  84.815 115.852  0.00  0.00     0.028 C 
ATOM     10  C   LIG d   1       2.115  83.953 117.003  0.00  0.00     0.006 C 
ENDBRANCH   8   9
BRANCH   8  11
ATOM     11  C   LIG d   1       5.055  84.980 115.399  0.00  0.00     0.028 C 
ATOM     12  C   LIG d   1       4.735  86.222 116.246  0.00  0.00     0.006 C 
ENDBRANCH   8  11
ENDBRANCH   7   8
ENDBRANCH   1   7
BRANCH   6  13
ATOM     13  N   LIG d   1       2.832  87.022 113.057  0.00  0.00    -0.311 N 
ATOM     14  C   LIG d   1       4.002  87.606 112.806  0.00  0.00     0.210 C 
ATOM     15  C   LIG d   1       4.326  88.813 113.692  0.00  0.00     0.109 C 
ATOM     16  O   LIG d   1       4.789  87.258 111.912  0.00  0.00    -0.276 OA
ATOM     17  H   LIG d   1       2.243  87.389 113.779  0.00  0.00     0.149 HD
ENDBRANCH   6  13
BRANCH   5  18
ATOM     18  N   LIG d   1       1.142  87.109 110.514  0.00  0.00     0.381 N 
ATOM     19  H   LIG d   1       1.148  86.660 109.620  0.00  0.00    -0.090 HD
ATOM     20  H   LIG d   1       2.015  87.593 110.630  0.00  0.00    -0.090 HD
ATOM     21  H   LIG d   1       0.386  87.756 110.563  0.00  0.00    -0.090 HD
ENDBRANCH   5  18
BRANCH   3  22
ATOM     22  C   LIG d   1      -0.452  82.725 111.598  0.00  0.00     0.382 C 
ATOM     23  O   LIG d   1      -1.531  82.732 112.238  0.00  0.00    -0.241 OA
ATOM     24  O   LIG d   1      -0.218  81.797 110.800  0.00  0.00    -0.241 OA
ENDBRANCH   3  22
TORSDOF 7
ENDMDL
MODEL 4
REMARK VINA RESULT:      -5.4     12.117     15.102
REMARK  7 active torsions:
REMARK  status: ('A' for Active; 'I' for Inactive)
REMARK    1  A    between atoms: C_2  and  C_3 
REMARK    2  A    between atoms: C_3  and  O_6 
REMARK    3  A    between atoms: C_3  and  C_4 
REMARK    4  A    between atoms: C_7  and  O_6 
REMARK    5  A    between atoms: C_9  and  C_10 
REMARK    6  A    between atoms: N_15  and  C_14 
REMARK    7  A    between atoms: N_20  and  C_19 
REMARK       I    between atoms: C_22  and  N_20 
ROOT
ATOM      1  C   LIG d   1       4.000  85.086 113.077  0.00  0.00     0.161 C 
ATOM      2  C   LIG d   1       4.633  86.304 113.378  0.00  0.00     0.016 C 
ATOM      3  C   LIG d   1       4.136  87.562 112.967  0.00  0.00     0.038 C 
ATOM      4  C   LIG d   1       2.883  87.699 112.351  0.00  0.00     0.028 C 
ATOM      5  C   LIG d   1       2.449  86.457 111.579  0.00  0.00    -0.047 C 
ATOM      6  C   LIG d   1       2.575  85.223 112.502  0.00  0.00     0.091 C 
ENDROOT
BRANCH   1   7
ATOM      7  O   LIG d   1       3.991  84.239 114.243  0.00  0.00    -0.368 OA
BRANCH   7   8
ATOM      8  C   LIG d   1       4.004  84.916 115.523  0.00  0.00     0.119 C 
BRANCH   8   9
ATOM      9  C   LIG d   1       4.837  84.056 116.493  0.00  0.00     0.028 C 
ATOM     10  C   LIG d   1       6.149  84.743 116.908  0.00  0.00     0.006 C 
ENDBRANCH   8   9
BRANCH   8  11
ATOM     11  C   LIG d   1       2.602  84.977 116.136  0.00  0.00     0.028 C 
ATOM     12  C   LIG d   1       2.003  86.392 116.116  0.00  0.00     0.006 C 
ENDBRANCH   8  11
ENDBRANCH   7   8
ENDBRANCH   1   7
BRANCH   6  13
ATOM     13  N   LIG d   1       2.249  83.955 111.800  0.00  0.00    -0.311 N 
ATOM     14  C   LIG d   1       1.045  83.388 111.830  0.00  0.00     0.210 C 
ATOM     15  C   LIG d   1       0.929  82.072 111.055  0.00  0.00     0.109 C 
ATOM     16  O   LIG d   1       0.052  83.866 112.400  0.00  0.00    -0.276 OA
ATOM     17  H   LIG d   1       2.988  83.514 111.287  0.00  0.00     0.149 HD
ENDBRANCH   6  13
BRANCH   5  18
ATOM     18  N   LIG d   1       1.070  86.686 111.106  0.00  0.00     0.381 N 
ATOM     19  H   LIG d   1       0.419  86.303 111.761  0.00  0.00    -0.090 HD
ATOM     20  H   LIG d   1       0.947  86.216 110.226  0.00  0.00    -0.090 HD
ATOM     21  H   LIG d   1       0.906  87.662 110.995  0.00  0.00    -0.090 HD
ENDBRANCH   5  18
BRANCH   3  22
ATOM     22  C   LIG d   1       4.915  88.697 113.135  0.00  0.00     0.382 C 
ATOM     23  O   LIG d   1       4.375  89.788 113.439  0.00  0.00    -0.241 OA
ATOM     24  O   LIG d   1       6.145  88.653 112.944  0.00  0.00    -0.241 OA
ENDBRANCH   3  22
TORSDOF 7
ENDMDL
MODEL 5
REMARK VINA RESULT:      -5.3      1.745      2.476
REMARK  7 active torsions:
REMARK  status: ('A' for Active; 'I' for Inactive)
REMARK    1  A    between atoms: C_2  and  C_3 
REMARK    2  A    between atoms: C_3  and  O_6 
REMARK    3  A    between atoms: C_3  and  C_4 
REMARK    4  A    between atoms: C_7  and  O_6 
REMARK    5  A    between atoms: C_9  and  C_10 
REMARK    6  A    between atoms: N_15  and  C_14 
REMARK    7  A    between atoms: N_20  and  C_19 
REMARK       I    between atoms: C_22  and  N_20 
ROOT
ATOM      1  C   LIG d   1      -5.798  76.100 118.304  0.00  0.00     0.161 C 
ATOM      2  C   LIG d   1      -6.673  77.196 118.221  0.00  0.00     0.016 C 
ATOM      3  C   LIG d   1      -6.357  78.394 117.540  0.00  0.00     0.038 C 
ATOM      4  C   LIG d   1      -5.197  78.520 116.761  0.00  0.00     0.028 C 
ATOM      5  C   LIG d   1      -4.054  77.626 117.229  0.00  0.00    -0.047 C 
ATOM      6  C   LIG d   1      -4.574  76.177 117.368  0.00  0.00     0.091 C 
ENDROOT
BRANCH   1   7
ATOM      7  O   LIG d   1      -6.526  74.876 118.078  0.00  0.00    -0.368 OA
BRANCH   7   8
ATOM      8  C   LIG d   1      -7.277  74.801 116.842  0.00  0.00     0.119 C 
BRANCH   8   9
ATOM      9  C   LIG d   1      -8.706  74.344 117.196  0.00  0.00     0.028 C 
ATOM     10  C   LIG d   1      -9.713  75.506 117.188  0.00  0.00     0.006 C 
ENDBRANCH   8   9
BRANCH   8  11
ATOM     11  C   LIG d   1      -6.721  73.714 115.917  0.00  0.00     0.028 C 
ATOM     12  C   LIG d   1      -7.383  72.345 116.142  0.00  0.00     0.006 C 
ENDBRANCH   8  11
ENDBRANCH   7   8
ENDBRANCH   1   7
BRANCH   6  13
ATOM     13  N   LIG d   1      -3.541  75.252 117.902  0.00  0.00    -0.311 N 
ATOM     14  C   LIG d   1      -2.764  74.495 117.129  0.00  0.00     0.210 C 
ATOM     15  C   LIG d   1      -1.778  73.598 117.883  0.00  0.00     0.109 C 
ATOM     16  O   LIG d   1      -2.777  74.505 115.889  0.00  0.00    -0.276 OA
ATOM     17  H   LIG d   1      -3.442  75.205 118.897  0.00  0.00     0.149 HD
ENDBRANCH   6  13
BRANCH   5  18
ATOM     18  N   LIG d   1      -2.958  77.755 116.250  0.00  0.00     0.381 N 
ATOM     19  H   LIG d   1      -2.197  77.160 116.512  0.00  0.00    -0.090 HD
ATOM     20  H   LIG d   1      -2.630  78.705 116.252  0.00  0.00    -0.090 HD
ATOM     21  H   LIG d   1      -3.282  77.510 115.341  0.00  0.00    -0.090 HD
ENDBRANCH   5  18
BRANCH   3  22
ATOM     22  C   LIG d   1      -7.189  79.496 117.666  0.00  0.00     0.382 C 
ATOM     23  O   LIG d   1      -8.350  79.357 118.119  0.00  0.00    -0.241 OA
ATOM     24  O   LIG d   1      -6.808  80.621 117.291  0.00  0.00    -0.241 OA
ENDBRANCH   3  22
TORSDOF 7
ENDMDL
MODEL 6
REMARK VINA RESULT:      -5.2      2.397      4.223
REMARK  7 active torsions:
REMARK  status: ('A' for Active; 'I' for Inactive)
REMARK    1  A    between atoms: C_2  and  C_3 
REMARK    2  A    between atoms: C_3  and  O_6 
REMARK    3  A    between atoms: C_3  and  C_4 
REMARK    4  A    between atoms: C_7  and  O_6 
REMARK    5  A    between atoms: C_9  and  C_10 
REMARK    6  A    between atoms: N_15  and  C_14 
REMARK    7  A    between atoms: N_20  and  C_19 
REMARK       I    between atoms: C_22  and  N_20 
ROOT
ATOM      1  C   LIG d   1      -6.406  76.379 117.010  0.00  0.00     0.161 C 
ATOM      2  C   LIG d   1      -6.473  77.754 117.291  0.00  0.00     0.016 C 
ATOM      3  C   LIG d   1      -7.674  78.424 117.619  0.00  0.00     0.038 C 
ATOM      4  C   LIG d   1      -8.873  77.731 117.838  0.00  0.00     0.028 C 
ATOM      5  C   LIG d   1      -8.961  76.415 117.074  0.00  0.00    -0.047 C 
ATOM      6  C   LIG d   1      -7.685  75.587 117.353  0.00  0.00     0.091 C 
ENDROOT
BRANCH   1   7
ATOM      7  O   LIG d   1      -5.265  75.800 117.673  0.00  0.00    -0.368 OA
BRANCH   7   8
ATOM      8  C   LIG d   1      -4.191  75.347 116.813  0.00  0.00     0.119 C 
BRANCH   8   9
ATOM      9  C   LIG d   1      -3.531  74.134 117.497  0.00  0.00     0.028 C 
ATOM     10  C   LIG d   1      -2.062  73.951 117.078  0.00  0.00     0.006 C 
ENDBRANCH   8   9
BRANCH   8  11
ATOM     11  C   LIG d   1      -3.085  76.400 116.701  0.00  0.00     0.028 C 
ATOM     12  C   LIG d   1      -3.152  77.198 115.389  0.00  0.00     0.006 C 
ENDBRANCH   8  11
ENDBRANCH   7   8
ENDBRANCH   1   7
BRANCH   6  13
ATOM     13  N   LIG d   1      -7.651  74.320 116.577  0.00  0.00    -0.311 N 
ATOM     14  C   LIG d   1      -7.323  73.143 117.108  0.00  0.00     0.210 C 
ATOM     15  C   LIG d   1      -7.330  71.966 116.128  0.00  0.00     0.109 C 
ATOM     16  O   LIG d   1      -7.057  72.957 118.305  0.00  0.00    -0.276 OA
ATOM     17  H   LIG d   1      -7.883  74.374 115.604  0.00  0.00     0.149 HD
ENDBRANCH   6  13
BRANCH   5  18
ATOM     18  N   LIG d   1     -10.197  75.733 117.500  0.00  0.00     0.381 N 
ATOM     19  H   LIG d   1     -10.599  76.215 118.279  0.00  0.00    -0.090 HD
ATOM     20  H   LIG d   1      -9.969  74.798 117.791  0.00  0.00    -0.090 HD
ATOM     21  H   LIG d   1     -10.848  75.704 116.746  0.00  0.00    -0.090 HD
ENDBRANCH   5  18
BRANCH   3  22
ATOM     22  C   LIG d   1      -7.690  79.809 117.692  0.00  0.00     0.382 C 
ATOM     23  O   LIG d   1      -8.711  80.402 118.118  0.00  0.00    -0.241 OA
ATOM     24  O   LIG d   1      -6.714  80.474 117.297  0.00  0.00    -0.241 OA
ENDBRANCH   3  22
TORSDOF 7
ENDMDL
MODEL 7
REMARK VINA RESULT:      -5.1      2.000      4.312
REMARK  7 active torsions:
REMARK  status: ('A' for Active; 'I' for Inactive)
REMARK    1  A    between atoms: C_2  and  C_3 
REMARK    2  A    between atoms: C_3  and  O_6 
REMARK    3  A    between atoms: C_3  and  C_4 
REMARK    4  A    between atoms: C_7  and  O_6 
REMARK    5  A    between atoms: C_9  and  C_10 
REMARK    6  A    between atoms: N_15  and  C_14 
REMARK    7  A    between atoms: N_20  and  C_19 
REMARK       I    between atoms: C_22  and  N_20 
ROOT
ATOM      1  C   LIG d   1      -6.589  75.533 115.968  0.00  0.00     0.161 C 
ATOM      2  C   LIG d   1      -7.264  74.312 116.132  0.00  0.00     0.016 C 
ATOM      3  C   LIG d   1      -6.721  73.211 116.834  0.00  0.00     0.038 C 
ATOM      4  C   LIG d   1      -5.522  73.310 117.555  0.00  0.00     0.028 C 
ATOM      5  C   LIG d   1      -4.567  74.361 117.000  0.00  0.00    -0.047 C 
ATOM      6  C   LIG d   1      -5.328  75.697 116.841  0.00  0.00     0.091 C 
ENDROOT
BRANCH   1   7
ATOM      7  O   LIG d   1      -7.500  76.628 116.192  0.00  0.00    -0.368 OA
BRANCH   7   8
ATOM      8  C   LIG d   1      -7.927  76.831 117.561  0.00  0.00     0.119 C 
BRANCH   8   9
ATOM      9  C   LIG d   1      -9.464  76.950 117.553  0.00  0.00     0.028 C 
ATOM     10  C   LIG d   1     -10.153  75.625 117.185  0.00  0.00     0.006 C 
ENDBRANCH   8   9
BRANCH   8  11
ATOM     11  C   LIG d   1      -7.420  78.167 118.111  0.00  0.00     0.028 C 
ATOM     12  C   LIG d   1      -8.484  79.275 118.062  0.00  0.00     0.006 C 
ENDBRANCH   8  11
ENDBRANCH   7   8
ENDBRANCH   1   7
BRANCH   6  13
ATOM     13  N   LIG d   1      -4.489  76.758 116.224  0.00  0.00    -0.311 N 
ATOM     14  C   LIG d   1      -3.831  77.675 116.931  0.00  0.00     0.210 C 
ATOM     15  C   LIG d   1      -3.041  78.689 116.097  0.00  0.00     0.109 C 
ATOM     16  O   LIG d   1      -3.800  77.726 118.170  0.00  0.00    -0.276 OA
ATOM     17  H   LIG d   1      -4.432  76.771 115.225  0.00  0.00     0.149 HD
ENDBRANCH   6  13
BRANCH   5  18
ATOM     18  N   LIG d   1      -3.421  74.455 117.924  0.00  0.00     0.381 N 
ATOM     19  H   LIG d   1      -2.824  75.209 117.649  0.00  0.00    -0.090 HD
ATOM     20  H   LIG d   1      -2.893  73.601 117.874  0.00  0.00    -0.090 HD
ATOM     21  H   LIG d   1      -3.745  74.600 118.855  0.00  0.00    -0.090 HD
ENDBRANCH   5  18
BRANCH   3  22
ATOM     22  C   LIG d   1      -7.362  71.982 116.787  0.00  0.00     0.382 C 
ATOM     23  O   LIG d   1      -7.575  71.428 115.682  0.00  0.00    -0.241 OA
ATOM     24  O   LIG d   1      -7.770  71.442 117.833  0.00  0.00    -0.241 OA
ENDBRANCH   3  22
TORSDOF 7
ENDMDL
MODEL 8
REMARK VINA RESULT:      -5.1     13.356     16.083
REMARK  7 active torsions:
REMARK  status: ('A' for Active; 'I' for Inactive)
REMARK    1  A    between atoms: C_2  and  C_3 
REMARK    2  A    between atoms: C_3  and  O_6 
REMARK    3  A    between atoms: C_3  and  C_4 
REMARK    4  A    between atoms: C_7  and  O_6 
REMARK    5  A    between atoms: C_9  and  C_10 
REMARK    6  A    between atoms: N_15  and  C_14 
REMARK    7  A    between atoms: N_20  and  C_19 
REMARK       I    between atoms: C_22  and  N_20 
ROOT
ATOM      1  C   LIG d   1       3.011  87.621 114.882  0.00  0.00     0.161 C 
ATOM      2  C   LIG d   1       3.055  86.625 113.892  0.00  0.00     0.016 C 
ATOM      3  C   LIG d   1       3.984  86.627 112.827  0.00  0.00     0.038 C 
ATOM      4  C   LIG d   1       5.038  87.550 112.764  0.00  0.00     0.028 C 
ATOM      5  C   LIG d   1       4.729  88.871 113.462  0.00  0.00    -0.047 C 
ATOM      6  C   LIG d   1       4.224  88.576 114.893  0.00  0.00     0.091 C 
ENDROOT
BRANCH   1   7
ATOM      7  O   LIG d   1       2.840  87.014 116.178  0.00  0.00    -0.368 OA
BRANCH   7   8
ATOM      8  C   LIG d   1       3.209  85.617 116.282  0.00  0.00     0.119 C 
BRANCH   8   9
ATOM      9  C   LIG d   1       2.146  84.921 117.153  0.00  0.00     0.028 C 
ATOM     10  C   LIG d   1       2.303  83.391 117.160  0.00  0.00     0.006 C 
ENDBRANCH   8   9
BRANCH   8  11
ATOM     11  C   LIG d   1       4.530  85.445 117.039  0.00  0.00     0.028 C 
ATOM     12  C   LIG d   1       5.711  85.120 116.110  0.00  0.00     0.006 C 
ENDBRANCH   8  11
ENDBRANCH   7   8
ENDBRANCH   1   7
BRANCH   6  13
ATOM     13  N   LIG d   1       3.819  89.809 115.616  0.00  0.00    -0.311 N 
ATOM     14  C   LIG d   1       4.630  90.481 116.431  0.00  0.00     0.210 C 
ATOM     15  C   LIG d   1       4.007  91.714 117.092  0.00  0.00     0.109 C 
ATOM     16  O   LIG d   1       5.817  90.191 116.644  0.00  0.00    -0.276 OA
ATOM     17  H   LIG d   1       2.882  90.133 115.477  0.00  0.00     0.149 HD
ENDBRANCH   6  13
BRANCH   5  18
ATOM     18  N   LIG d   1       5.959  89.685 113.440  0.00  0.00     0.381 N 
ATOM     19  H   LIG d   1       6.487  89.523 114.274  0.00  0.00    -0.090 HD
ATOM     20  H   LIG d   1       5.705  90.657 113.411  0.00  0.00    -0.090 HD
ATOM     21  H   LIG d   1       6.507  89.454 112.641  0.00  0.00    -0.090 HD
ENDBRANCH   5  18
BRANCH   3  22
ATOM     22  C   LIG d   1       3.840  85.720 111.788  0.00  0.00     0.382 C 
ATOM     23  O   LIG d   1       4.298  84.558 111.902  0.00  0.00    -0.241 OA
ATOM     24  O   LIG d   1       3.298  86.064 110.720  0.00  0.00    -0.241 OA
ENDBRANCH   3  22
TORSDOF 7
ENDMDL
MODEL 9
REMARK VINA RESULT:      -5.0     18.160     20.399
REMARK  7 active torsions:
REMARK  status: ('A' for Active; 'I' for Inactive)
REMARK    1  A    between atoms: C_2  and  C_3 
REMARK    2  A    between atoms: C_3  and  O_6 
REMARK    3  A    between atoms: C_3  and  C_4 
REMARK    4  A    between atoms: C_7  and  O_6 
REMARK    5  A    between atoms: C_9  and  C_10 
REMARK    6  A    between atoms: N_15  and  C_14 
REMARK    7  A    between atoms: N_20  and  C_19 
REMARK       I    between atoms: C_22  and  N_20 
ROOT
ATOM      1  C   LIG d   1     -24.682  83.861 114.197  0.00  0.00     0.161 C 
ATOM      2  C   LIG d   1     -25.718  83.063 113.684  0.00  0.00     0.016 C 
ATOM      3  C   LIG d   1     -26.473  83.410 112.540  0.00  0.00     0.038 C 
ATOM      4  C   LIG d   1     -26.141  84.512 111.738  0.00  0.00     0.028 C 
ATOM      5  C   LIG d   1     -25.425  85.622 112.501  0.00  0.00    -0.047 C 
ATOM      6  C   LIG d   1     -24.233  85.012 113.272  0.00  0.00     0.091 C 
ENDROOT
BRANCH   1   7
ATOM      7  O   LIG d   1     -23.557  83.034 114.551  0.00  0.00    -0.368 OA
BRANCH   7   8
ATOM      8  C   LIG d   1     -23.468  82.639 115.942  0.00  0.00     0.119 C 
BRANCH   8   9
ATOM      9  C   LIG d   1     -22.339  83.467 116.587  0.00  0.00     0.028 C 
ATOM     10  C   LIG d   1     -22.876  84.628 117.440  0.00  0.00     0.006 C 
ENDBRANCH   8   9
BRANCH   8  11
ATOM     11  C   LIG d   1     -23.029  81.178 116.080  0.00  0.00     0.028 C 
ATOM     12  C   LIG d   1     -24.121  80.185 115.655  0.00  0.00     0.006 C 
ENDBRANCH   8  11
ENDBRANCH   7   8
ENDBRANCH   1   7
BRANCH   6  13
ATOM     13  N   LIG d   1     -23.528  86.015 114.112  0.00  0.00    -0.311 N 
ATOM     14  C   LIG d   1     -22.252  86.354 113.935  0.00  0.00     0.210 C 
ATOM     15  C   LIG d   1     -21.716  87.393 114.923  0.00  0.00     0.109 C 
ATOM     16  O   LIG d   1     -21.523  85.915 113.032  0.00  0.00    -0.276 OA
ATOM     17  H   LIG d   1     -24.054  86.444 114.849  0.00  0.00     0.149 HD
ENDBRANCH   6  13
BRANCH   5  18
ATOM     18  N   LIG d   1     -25.017  86.645 111.520  0.00  0.00     0.381 N 
ATOM     19  H   LIG d   1     -25.478  87.509 111.720  0.00  0.00    -0.090 HD
ATOM     20  H   LIG d   1     -25.294  86.344 110.602  0.00  0.00    -0.090 HD
ATOM     21  H   LIG d   1     -24.029  86.772 111.551  0.00  0.00    -0.090 HD
ENDBRANCH   5  18
BRANCH   3  22
ATOM     22  C   LIG d   1     -27.599  82.671 112.210  0.00  0.00     0.382 C 
ATOM     23  O   LIG d   1     -27.617  81.432 112.409  0.00  0.00    -0.241 OA
ATOM     24  O   LIG d   1     -28.581  83.220 111.676  0.00  0.00    -0.241 OA
ENDBRANCH   3  22
TORSDOF 7
ENDMDL
