MODEL 1
REMARK VINA RESULT:      -6.1      0.000      0.000
REMARK  7 active torsions:
REMARK  status: ('A' for Active; 'I' for Inactive)
REMARK    1  A    between atoms: C_2  and  C_3 
REMARK    2  A    between atoms: C_3  and  O_6 
REMARK    3  A    between atoms: C_3  and  C_4 
REMARK    4  A    between atoms: C_7  and  O_6 
REMARK    5  A    between atoms: C_9  and  C_10 
REMARK    6  A    between atoms: N_15  and  C_14 
REMARK    7  A    between atoms: N_20  and  C_19 
REMARK       I    between atoms: C_22  and  N_20 
ROOT
ATOM      1  C   LIG d   1       0.021  83.382 112.085  0.00  0.00     0.161 C 
ATOM      2  C   LIG d   1      -1.145  82.741 112.537  0.00  0.00     0.016 C 
ATOM      3  C   LIG d   1      -1.427  81.377 112.293  0.00  0.00     0.038 C 
ATOM      4  C   LIG d   1      -0.487  80.519 111.704  0.00  0.00     0.028 C 
ATOM      5  C   LIG d   1       0.493  81.236 110.781  0.00  0.00    -0.047 C 
ATOM      6  C   LIG d   1       1.109  82.435 111.538  0.00  0.00     0.091 C 
ENDROOT
BRANCH   1   7
ATOM      7  O   LIG d   1       0.560  84.212 113.132  0.00  0.00    -0.368 OA
BRANCH   7   8
ATOM      8  C   LIG d   1       0.128  85.596 113.135  0.00  0.00     0.119 C 
BRANCH   8   9
ATOM      9  C   LIG d   1       1.324  86.454 112.680  0.00  0.00     0.028 C 
ATOM     10  C   LIG d   1       1.208  86.890 111.210  0.00  0.00     0.006 C 
ENDBRANCH   8   9
BRANCH   8  11
ATOM     11  C   LIG d   1      -0.199  86.075 114.552  0.00  0.00     0.028 C 
ATOM     12  C   LIG d   1       0.915  86.942 115.160  0.00  0.00     0.006 C 
ENDBRANCH   8  11
ENDBRANCH   7   8
ENDBRANCH   1   7
BRANCH   6  13
ATOM     13  N   LIG d   1       2.016  83.241 110.679  0.00  0.00    -0.311 N 
ATOM     14  C   LIG d   1       3.194  83.707 111.092  0.00  0.00     0.210 C 
ATOM     15  C   LIG d   1       3.962  84.532 110.055  0.00  0.00     0.109 C 
ATOM     16  O   LIG d   1       3.689  83.488 112.208  0.00  0.00    -0.276 OA
ATOM     17  H   LIG d   1       1.707  83.439 109.748  0.00  0.00     0.149 HD
ENDBRANCH   6  13
BRANCH   5  18
ATOM     18  N   LIG d   1       1.499  80.249 110.346  0.00  0.00     0.381 N 
ATOM     19  H   LIG d   1       2.379  80.703 110.201  0.00  0.00    -0.090 HD
ATOM     20  H   LIG d   1       1.204  79.847 109.474  0.00  0.00    -0.090 HD
ATOM     21  H   LIG d   1       1.595  79.534 111.034  0.00  0.00    -0.090 HD
ENDBRANCH   5  18
BRANCH   3  22
ATOM     22  C   LIG d   1      -2.680  80.869 112.602  0.00  0.00     0.382 C 
ATOM     23  O   LIG d   1      -2.785  79.722 113.101  0.00  0.00    -0.241 OA
ATOM     24  O   LIG d   1      -3.708  81.524 112.349  0.00  0.00    -0.241 OA
ENDBRANCH   3  22
TORSDOF 7
ENDMDL
MODEL 2
REMARK VINA RESULT:      -5.7      2.810      6.307
REMARK  7 active torsions:
REMARK  status: ('A' for Active; 'I' for Inactive)
REMARK    1  A    between atoms: C_2  and  C_3 
REMARK    2  A    between atoms: C_3  and  O_6 
REMARK    3  A    between atoms: C_3  and  C_4 
REMARK    4  A    between atoms: C_7  and  O_6 
REMARK    5  A    between atoms: C_9  and  C_10 
REMARK    6  A    between atoms: N_15  and  C_14 
REMARK    7  A    between atoms: N_20  and  C_19 
REMARK       I    between atoms: C_22  and  N_20 
ROOT
ATOM      1  C   LIG d   1       1.794  86.382 113.754  0.00  0.00     0.161 C 
ATOM      2  C   LIG d   1       2.631  87.511 113.743  0.00  0.00     0.016 C 
ATOM      3  C   LIG d   1       3.566  87.777 112.716  0.00  0.00     0.038 C 
ATOM      4  C   LIG d   1       3.621  87.005 111.546  0.00  0.00     0.028 C 
ATOM      5  C   LIG d   1       3.147  85.570 111.744  0.00  0.00    -0.047 C 
ATOM      6  C   LIG d   1       1.762  85.589 112.431  0.00  0.00     0.091 C 
ENDROOT
BRANCH   1   7
ATOM      7  O   LIG d   1       0.460  86.767 114.139  0.00  0.00    -0.368 OA
BRANCH   7   8
ATOM      8  C   LIG d   1      -0.039  86.191 115.372  0.00  0.00     0.119 C 
BRANCH   8   9
ATOM      9  C   LIG d   1      -0.239  87.344 116.374  0.00  0.00     0.028 C 
ATOM     10  C   LIG d   1      -1.679  87.409 116.913  0.00  0.00     0.006 C 
ENDBRANCH   8   9
BRANCH   8  11
ATOM     11  C   LIG d   1       1.001  85.270 116.017  0.00  0.00     0.028 C 
ATOM     12  C   LIG d   1       1.423  85.737 117.419  0.00  0.00     0.006 C 
ENDBRANCH   8  11
ENDBRANCH   7   8
ENDBRANCH   1   7
BRANCH   6  13
ATOM     13  N   LIG d   1       1.263  84.223 112.737  0.00  0.00    -0.311 N 
ATOM     14  C   LIG d   1       0.050  83.792 112.395  0.00  0.00     0.210 C 
ATOM     15  C   LIG d   1      -0.272  82.357 112.825  0.00  0.00     0.109 C 
ATOM     16  O   LIG d   1      -0.778  84.450 111.747  0.00  0.00    -0.276 OA
ATOM     17  H   LIG d   1       1.881  83.612 113.233  0.00  0.00     0.149 HD
ENDBRANCH   6  13
BRANCH   5  18
ATOM     18  N   LIG d   1       3.126  84.921 110.419  0.00  0.00     0.381 N 
ATOM     19  H   LIG d   1       3.897  85.246 109.871  0.00  0.00    -0.090 HD
ATOM     20  H   LIG d   1       2.275  85.171 109.947  0.00  0.00    -0.090 HD
ATOM     21  H   LIG d   1       3.178  83.931 110.524  0.00  0.00    -0.090 HD
ENDBRANCH   5  18
BRANCH   3  22
ATOM     22  C   LIG d   1       4.486  88.802 112.874  0.00  0.00     0.382 C 
ATOM     23  O   LIG d   1       4.156  89.854 113.473  0.00  0.00    -0.241 OA
ATOM     24  O   LIG d   1       5.627  88.707 112.385  0.00  0.00    -0.241 OA
ENDBRANCH   3  22
TORSDOF 7
ENDMDL
MODEL 3
REMARK VINA RESULT:      -5.5      2.951      4.754
REMARK  7 active torsions:
REMARK  status: ('A' for Active; 'I' for Inactive)
REMARK    1  A    between atoms: C_2  and  C_3 
REMARK    2  A    between atoms: C_3  and  O_6 
REMARK    3  A    between atoms: C_3  and  C_4 
REMARK    4  A    between atoms: C_7  and  O_6 
REMARK    5  A    between atoms: C_9  and  C_10 
REMARK    6  A    between atoms: N_15  and  C_14 
REMARK    7  A    between atoms: N_20  and  C_19 
REMARK       I    between atoms: C_22  and  N_20 
ROOT
ATOM      1  C   LIG d   1       2.220  84.768 113.732  0.00  0.00     0.161 C 
ATOM      2  C   LIG d   1       1.459  83.861 112.977  0.00  0.00     0.016 C 
ATOM      3  C   LIG d   1       0.047  83.894 112.913  0.00  0.00     0.038 C 
ATOM      4  C   LIG d   1      -0.697  84.937 113.484  0.00  0.00     0.028 C 
ATOM      5  C   LIG d   1      -0.007  85.590 114.677  0.00  0.00    -0.047 C 
ATOM      6  C   LIG d   1       1.433  85.980 114.272  0.00  0.00     0.091 C 
ENDROOT
BRANCH   1   7
ATOM      7  O   LIG d   1       3.357  85.211 112.964  0.00  0.00    -0.368 OA
BRANCH   7   8
ATOM      8  C   LIG d   1       3.136  86.352 112.099  0.00  0.00     0.119 C 
BRANCH   8   9
ATOM      9  C   LIG d   1       2.983  85.820 110.661  0.00  0.00     0.028 C 
ATOM     10  C   LIG d   1       1.608  86.150 110.056  0.00  0.00     0.006 C 
ENDBRANCH   8   9
BRANCH   8  11
ATOM     11  C   LIG d   1       4.362  87.269 112.064  0.00  0.00     0.028 C 
ATOM     12  C   LIG d   1       4.135  88.595 112.807  0.00  0.00     0.006 C 
ENDBRANCH   8  11
ENDBRANCH   7   8
ENDBRANCH   1   7
BRANCH   6  13
ATOM     13  N   LIG d   1       2.206  86.550 115.406  0.00  0.00    -0.311 N 
ATOM     14  C   LIG d   1       2.204  87.844 115.719  0.00  0.00     0.210 C 
ATOM     15  C   LIG d   1       3.086  88.223 116.913  0.00  0.00     0.109 C 
ATOM     16  O   LIG d   1       1.530  88.710 115.141  0.00  0.00    -0.276 OA
ATOM     17  H   LIG d   1       2.757  85.913 115.948  0.00  0.00     0.149 HD
ENDBRANCH   6  13
BRANCH   5  18
ATOM     18  N   LIG d   1      -0.825  86.747 115.087  0.00  0.00     0.381 N 
ATOM     19  H   LIG d   1      -0.255  87.410 115.573  0.00  0.00    -0.090 HD
ATOM     20  H   LIG d   1      -1.545  86.430 115.713  0.00  0.00    -0.090 HD
ATOM     21  H   LIG d   1      -1.236  87.175 114.287  0.00  0.00    -0.090 HD
ENDBRANCH   5  18
BRANCH   3  22
ATOM     22  C   LIG d   1      -0.638  82.852 112.306  0.00  0.00     0.382 C 
ATOM     23  O   LIG d   1      -0.935  81.828 112.966  0.00  0.00    -0.241 OA
ATOM     24  O   LIG d   1      -0.924  82.906 111.094  0.00  0.00    -0.241 OA
ENDBRANCH   3  22
TORSDOF 7
ENDMDL
MODEL 4
REMARK VINA RESULT:      -5.3      2.819      6.231
REMARK  7 active torsions:
REMARK  status: ('A' for Active; 'I' for Inactive)
REMARK    1  A    between atoms: C_2  and  C_3 
REMARK    2  A    between atoms: C_3  and  O_6 
REMARK    3  A    between atoms: C_3  and  C_4 
REMARK    4  A    between atoms: C_7  and  O_6 
REMARK    5  A    between atoms: C_9  and  C_10 
REMARK    6  A    between atoms: N_15  and  C_14 
REMARK    7  A    between atoms: N_20  and  C_19 
REMARK       I    between atoms: C_22  and  N_20 
ROOT
ATOM      1  C   LIG d   1       2.941  85.357 113.334  0.00  0.00     0.161 C 
ATOM      2  C   LIG d   1       3.638  86.567 113.484  0.00  0.00     0.016 C 
ATOM      3  C   LIG d   1       3.502  87.659 112.596  0.00  0.00     0.038 C 
ATOM      4  C   LIG d   1       2.538  87.669 111.577  0.00  0.00     0.028 C 
ATOM      5  C   LIG d   1       2.167  86.277 111.079  0.00  0.00    -0.047 C 
ATOM      6  C   LIG d   1       1.803  85.391 112.292  0.00  0.00     0.091 C 
ENDROOT
BRANCH   1   7
ATOM      7  O   LIG d   1       2.437  84.922 114.612  0.00  0.00    -0.368 OA
BRANCH   7   8
ATOM      8  C   LIG d   1       1.777  85.932 115.415  0.00  0.00     0.119 C 
BRANCH   8   9
ATOM      9  C   LIG d   1       2.386  85.871 116.829  0.00  0.00     0.028 C 
ATOM     10  C   LIG d   1       3.288  84.640 117.027  0.00  0.00     0.006 C 
ENDBRANCH   8   9
BRANCH   8  11
ATOM     11  C   LIG d   1       0.290  85.613 115.600  0.00  0.00     0.028 C 
ATOM     12  C   LIG d   1      -0.533  86.838 116.028  0.00  0.00     0.006 C 
ENDBRANCH   8  11
ENDBRANCH   7   8
ENDBRANCH   1   7
BRANCH   6  13
ATOM     13  N   LIG d   1       1.508  83.987 111.902  0.00  0.00    -0.311 N 
ATOM     14  C   LIG d   1       0.277  83.532 111.678  0.00  0.00     0.210 C 
ATOM     15  C   LIG d   1       0.194  82.048 111.305  0.00  0.00     0.109 C 
ATOM     16  O   LIG d   1      -0.752  84.223 111.721  0.00  0.00    -0.276 OA
ATOM     17  H   LIG d   1       2.288  83.365 111.813  0.00  0.00     0.149 HD
ENDBRANCH   6  13
BRANCH   5  18
ATOM     18  N   LIG d   1       1.057  86.427 110.119  0.00  0.00     0.381 N 
ATOM     19  H   LIG d   1       1.403  86.799 109.257  0.00  0.00    -0.090 HD
ATOM     20  H   LIG d   1       0.387  87.075 110.496  0.00  0.00    -0.090 HD
ATOM     21  H   LIG d   1       0.623  85.545 109.958  0.00  0.00    -0.090 HD
ENDBRANCH   5  18
BRANCH   3  22
ATOM     22  C   LIG d   1       4.363  88.740 112.699  0.00  0.00     0.382 C 
ATOM     23  O   LIG d   1       5.575  88.607 112.401  0.00  0.00    -0.241 OA
ATOM     24  O   LIG d   1       3.954  89.835 113.129  0.00  0.00    -0.241 OA
ENDBRANCH   3  22
TORSDOF 7
ENDMDL
MODEL 5
REMARK VINA RESULT:      -5.2      2.673      5.667
REMARK  7 active torsions:
REMARK  status: ('A' for Active; 'I' for Inactive)
REMARK    1  A    between atoms: C_2  and  C_3 
REMARK    2  A    between atoms: C_3  and  O_6 
REMARK    3  A    between atoms: C_3  and  C_4 
REMARK    4  A    between atoms: C_7  and  O_6 
REMARK    5  A    between atoms: C_9  and  C_10 
REMARK    6  A    between atoms: N_15  and  C_14 
REMARK    7  A    between atoms: N_20  and  C_19 
REMARK       I    between atoms: C_22  and  N_20 
ROOT
ATOM      1  C   LIG d   1       2.727  84.071 112.321  0.00  0.00     0.161 C 
ATOM      2  C   LIG d   1       3.189  85.390 112.460  0.00  0.00     0.016 C 
ATOM      3  C   LIG d   1       2.560  86.503 111.856  0.00  0.00     0.038 C 
ATOM      4  C   LIG d   1       1.330  86.389 111.191  0.00  0.00     0.028 C 
ATOM      5  C   LIG d   1       1.089  85.005 110.596  0.00  0.00    -0.047 C 
ATOM      6  C   LIG d   1       1.324  83.940 111.691  0.00  0.00     0.091 C 
ENDROOT
BRANCH   1   7
ATOM      7  O   LIG d   1       2.768  83.401 113.596  0.00  0.00    -0.368 OA
BRANCH   7   8
ATOM      8  C   LIG d   1       1.629  83.616 114.466  0.00  0.00     0.119 C 
BRANCH   8   9
ATOM      9  C   LIG d   1       2.169  84.108 115.823  0.00  0.00     0.028 C 
ATOM     10  C   LIG d   1       3.705  84.186 115.850  0.00  0.00     0.006 C 
ENDBRANCH   8   9
BRANCH   8  11
ATOM     11  C   LIG d   1       0.904  82.302 114.770  0.00  0.00     0.028 C 
ATOM     12  C   LIG d   1       1.791  81.067 114.544  0.00  0.00     0.006 C 
ENDBRANCH   8  11
ENDBRANCH   7   8
ENDBRANCH   1   7
BRANCH   6  13
ATOM     13  N   LIG d   1       1.192  82.554 111.172  0.00  0.00    -0.311 N 
ATOM     14  C   LIG d   1       0.042  81.882 111.161  0.00  0.00     0.210 C 
ATOM     15  C   LIG d   1       0.130  80.459 110.600  0.00  0.00     0.109 C 
ATOM     16  O   LIG d   1      -1.049  82.340 111.533  0.00  0.00    -0.276 OA
ATOM     17  H   LIG d   1       2.022  82.117 110.821  0.00  0.00     0.149 HD
ENDBRANCH   6  13
BRANCH   5  18
ATOM     18  N   LIG d   1      -0.283  84.986 110.055  0.00  0.00     0.381 N 
ATOM     19  H   LIG d   1      -0.737  85.855 110.253  0.00  0.00    -0.090 HD
ATOM     20  H   LIG d   1      -0.799  84.250 110.505  0.00  0.00    -0.090 HD
ATOM     21  H   LIG d   1      -0.259  84.831 109.071  0.00  0.00    -0.090 HD
ENDBRANCH   5  18
BRANCH   3  22
ATOM     22  C   LIG d   1       3.183  87.741 111.880  0.00  0.00     0.382 C 
ATOM     23  O   LIG d   1       2.517  88.773 112.136  0.00  0.00    -0.241 OA
ATOM     24  O   LIG d   1       4.394  87.845 111.606  0.00  0.00    -0.241 OA
ENDBRANCH   3  22
TORSDOF 7
ENDMDL
MODEL 6
REMARK VINA RESULT:      -5.1     23.404     26.239
REMARK  7 active torsions:
REMARK  status: ('A' for Active; 'I' for Inactive)
REMARK    1  A    between atoms: C_2  and  C_3 
REMARK    2  A    between atoms: C_3  and  O_6 
REMARK    3  A    between atoms: C_3  and  C_4 
REMARK    4  A    between atoms: C_7  and  O_6 
REMARK    5  A    between atoms: C_9  and  C_10 
REMARK    6  A    between atoms: N_15  and  C_14 
REMARK    7  A    between atoms: N_20  and  C_19 
REMARK       I    between atoms: C_22  and  N_20 
ROOT
ATOM      1  C   LIG d   1     -25.501  84.847 113.500  0.00  0.00     0.161 C 
ATOM      2  C   LIG d   1     -24.435  85.761 113.460  0.00  0.00     0.016 C 
ATOM      3  C   LIG d   1     -23.088  85.397 113.690  0.00  0.00     0.038 C 
ATOM      4  C   LIG d   1     -22.696  84.057 113.826  0.00  0.00     0.028 C 
ATOM      5  C   LIG d   1     -23.797  83.156 114.375  0.00  0.00    -0.047 C 
ATOM      6  C   LIG d   1     -25.079  83.363 113.537  0.00  0.00     0.091 C 
ENDROOT
BRANCH   1   7
ATOM      7  O   LIG d   1     -26.391  85.087 112.392  0.00  0.00    -0.368 OA
BRANCH   7   8
ATOM      8  C   LIG d   1     -27.047  86.379 112.370  0.00  0.00     0.119 C 
BRANCH   8   9
ATOM      9  C   LIG d   1     -28.531  86.139 112.034  0.00  0.00     0.028 C 
ATOM     10  C   LIG d   1     -28.863  84.646 111.875  0.00  0.00     0.006 C 
ENDBRANCH   8   9
BRANCH   8  11
ATOM     11  C   LIG d   1     -26.511  87.256 111.234  0.00  0.00     0.028 C 
ATOM     12  C   LIG d   1     -26.713  88.757 111.495  0.00  0.00     0.006 C 
ENDBRANCH   8  11
ENDBRANCH   7   8
ENDBRANCH   1   7
BRANCH   6  13
ATOM     13  N   LIG d   1     -26.230  82.582 114.059  0.00  0.00    -0.311 N 
ATOM     14  C   LIG d   1     -26.937  81.732 113.315  0.00  0.00     0.210 C 
ATOM     15  C   LIG d   1     -28.095  81.044 114.045  0.00  0.00     0.109 C 
ATOM     16  O   LIG d   1     -26.695  81.460 112.130  0.00  0.00    -0.276 OA
ATOM     17  H   LIG d   1     -26.476  82.718 115.020  0.00  0.00     0.149 HD
ENDBRANCH   6  13
BRANCH   5  18
ATOM     18  N   LIG d   1     -23.298  81.768 114.336  0.00  0.00     0.381 N 
ATOM     19  H   LIG d   1     -23.211  81.467 113.386  0.00  0.00    -0.090 HD
ATOM     20  H   LIG d   1     -23.962  81.171 114.796  0.00  0.00    -0.090 HD
ATOM     21  H   LIG d   1     -22.415  81.710 114.793  0.00  0.00    -0.090 HD
ENDBRANCH   5  18
BRANCH   3  22
ATOM     22  C   LIG d   1     -22.123  86.383 113.825  0.00  0.00     0.382 C 
ATOM     23  O   LIG d   1     -20.993  86.231 113.300  0.00  0.00    -0.241 OA
ATOM     24  O   LIG d   1     -22.352  87.403 114.502  0.00  0.00    -0.241 OA
ENDBRANCH   3  22
TORSDOF 7
ENDMDL
MODEL 7
REMARK VINA RESULT:      -5.0      2.791      4.028
REMARK  7 active torsions:
REMARK  status: ('A' for Active; 'I' for Inactive)
REMARK    1  A    between atoms: C_2  and  C_3 
REMARK    2  A    between atoms: C_3  and  O_6 
REMARK    3  A    between atoms: C_3  and  C_4 
REMARK    4  A    between atoms: C_7  and  O_6 
REMARK    5  A    between atoms: C_9  and  C_10 
REMARK    6  A    between atoms: N_15  and  C_14 
REMARK    7  A    between atoms: N_20  and  C_19 
REMARK       I    between atoms: C_22  and  N_20 
ROOT
ATOM      1  C   LIG d   1       1.941  84.614 113.445  0.00  0.00     0.161 C 
ATOM      2  C   LIG d   1       1.052  83.576 113.117  0.00  0.00     0.016 C 
ATOM      3  C   LIG d   1       0.370  83.498 111.882  0.00  0.00     0.038 C 
ATOM      4  C   LIG d   1       0.647  84.377 110.824  0.00  0.00     0.028 C 
ATOM      5  C   LIG d   1       1.162  85.736 111.286  0.00  0.00    -0.047 C 
ATOM      6  C   LIG d   1       2.341  85.521 112.262  0.00  0.00     0.091 C 
ENDROOT
BRANCH   1   7
ATOM      7  O   LIG d   1       3.116  84.069 114.078  0.00  0.00    -0.368 OA
BRANCH   7   8
ATOM      8  C   LIG d   1       3.284  84.377 115.483  0.00  0.00     0.119 C 
BRANCH   8   9
ATOM      9  C   LIG d   1       2.029  85.144 115.942  0.00  0.00     0.028 C 
ATOM     10  C   LIG d   1       1.200  84.353 116.967  0.00  0.00     0.006 C 
ENDBRANCH   8   9
BRANCH   8  11
ATOM     11  C   LIG d   1       4.453  85.342 115.706  0.00  0.00     0.028 C 
ATOM     12  C   LIG d   1       4.011  86.684 116.311  0.00  0.00     0.006 C 
ENDBRANCH   8  11
ENDBRANCH   7   8
ENDBRANCH   1   7
BRANCH   6  13
ATOM     13  N   LIG d   1       2.850  86.798 112.827  0.00  0.00    -0.311 N 
ATOM     14  C   LIG d   1       3.846  87.495 112.283  0.00  0.00     0.210 C 
ATOM     15  C   LIG d   1       4.228  88.773 113.036  0.00  0.00     0.109 C 
ATOM     16  O   LIG d   1       4.428  87.192 111.230  0.00  0.00    -0.276 OA
ATOM     17  H   LIG d   1       2.413  87.133 113.664  0.00  0.00     0.149 HD
ENDBRANCH   6  13
BRANCH   5  18
ATOM     18  N   LIG d   1       1.541  86.501 110.083  0.00  0.00     0.381 N 
ATOM     19  H   LIG d   1       1.239  86.014 109.263  0.00  0.00    -0.090 HD
ATOM     20  H   LIG d   1       2.542  86.583 110.051  0.00  0.00    -0.090 HD
ATOM     21  H   LIG d   1       1.126  87.407 110.110  0.00  0.00    -0.090 HD
ENDBRANCH   5  18
BRANCH   3  22
ATOM     22  C   LIG d   1      -0.632  82.555 111.709  0.00  0.00     0.382 C 
ATOM     23  O   LIG d   1      -0.536  81.698 110.797  0.00  0.00    -0.241 OA
ATOM     24  O   LIG d   1      -1.652  82.578 112.424  0.00  0.00    -0.241 OA
ENDBRANCH   3  22
TORSDOF 7
ENDMDL
MODEL 8
REMARK VINA RESULT:      -4.9      2.870      5.583
REMARK  7 active torsions:
REMARK  status: ('A' for Active; 'I' for Inactive)
REMARK    1  A    between atoms: C_2  and  C_3 
REMARK    2  A    between atoms: C_3  and  O_6 
REMARK    3  A    between atoms: C_3  and  C_4 
REMARK    4  A    between atoms: C_7  and  O_6 
REMARK    5  A    between atoms: C_9  and  C_10 
REMARK    6  A    between atoms: N_15  and  C_14 
REMARK    7  A    between atoms: N_20  and  C_19 
REMARK       I    between atoms: C_22  and  N_20 
ROOT
ATOM      1  C   LIG d   1       0.955  82.893 113.550  0.00  0.00     0.161 C 
ATOM      2  C   LIG d   1       1.547  82.485 114.757  0.00  0.00     0.016 C 
ATOM      3  C   LIG d   1       2.040  83.389 115.726  0.00  0.00     0.038 C 
ATOM      4  C   LIG d   1       1.837  84.773 115.620  0.00  0.00     0.028 C 
ATOM      5  C   LIG d   1       1.694  85.256 114.181  0.00  0.00    -0.047 C 
ATOM      6  C   LIG d   1       0.625  84.398 113.468  0.00  0.00     0.091 C 
ENDROOT
BRANCH   1   7
ATOM      7  O   LIG d   1      -0.225  82.106 113.294  0.00  0.00    -0.368 OA
BRANCH   7   8
ATOM      8  C   LIG d   1      -0.008  80.814 112.676  0.00  0.00     0.119 C 
BRANCH   8   9
ATOM      9  C   LIG d   1       1.065  80.996 111.586  0.00  0.00     0.028 C 
ATOM     10  C   LIG d   1       0.468  81.458 110.246  0.00  0.00     0.006 C 
ENDBRANCH   8   9
BRANCH   8  11
ATOM     11  C   LIG d   1      -1.260  80.332 111.937  0.00  0.00     0.028 C 
ATOM     12  C   LIG d   1      -2.550  80.980 112.465  0.00  0.00     0.006 C 
ENDBRANCH   8  11
ENDBRANCH   7   8
ENDBRANCH   1   7
BRANCH   6  13
ATOM     13  N   LIG d   1       0.482  84.750 112.030  0.00  0.00    -0.311 N 
ATOM     14  C   LIG d   1      -0.422  85.614 111.573  0.00  0.00     0.210 C 
ATOM     15  C   LIG d   1      -0.412  85.817 110.055  0.00  0.00     0.109 C 
ATOM     16  O   LIG d   1      -1.210  86.255 112.284  0.00  0.00    -0.276 OA
ATOM     17  H   LIG d   1       1.103  84.299 111.387  0.00  0.00     0.149 HD
ENDBRANCH   6  13
BRANCH   5  18
ATOM     18  N   LIG d   1       1.351  86.690 114.224  0.00  0.00     0.381 N 
ATOM     19  H   LIG d   1       1.691  87.145 113.401  0.00  0.00    -0.090 HD
ATOM     20  H   LIG d   1       1.797  87.107 115.022  0.00  0.00    -0.090 HD
ATOM     21  H   LIG d   1       0.363  86.802 114.291  0.00  0.00    -0.090 HD
ENDBRANCH   5  18
BRANCH   3  22
ATOM     22  C   LIG d   1       2.781  82.911 116.796  0.00  0.00     0.382 C 
ATOM     23  O   LIG d   1       3.946  82.484 116.612  0.00  0.00    -0.241 OA
ATOM     24  O   LIG d   1       2.283  82.861 117.937  0.00  0.00    -0.241 OA
ENDBRANCH   3  22
TORSDOF 7
ENDMDL
MODEL 9
REMARK VINA RESULT:      -4.9      5.244      7.021
REMARK  7 active torsions:
REMARK  status: ('A' for Active; 'I' for Inactive)
REMARK    1  A    between atoms: C_2  and  C_3 
REMARK    2  A    between atoms: C_3  and  O_6 
REMARK    3  A    between atoms: C_3  and  C_4 
REMARK    4  A    between atoms: C_7  and  O_6 
REMARK    5  A    between atoms: C_9  and  C_10 
REMARK    6  A    between atoms: N_15  and  C_14 
REMARK    7  A    between atoms: N_20  and  C_19 
REMARK       I    between atoms: C_22  and  N_20 
ROOT
ATOM      1  C   LIG d   1       2.819  87.699 114.396  0.00  0.00     0.161 C 
ATOM      2  C   LIG d   1       2.471  86.885 113.304  0.00  0.00     0.016 C 
ATOM      3  C   LIG d   1       3.195  86.862 112.090  0.00  0.00     0.038 C 
ATOM      4  C   LIG d   1       4.411  87.544 111.938  0.00  0.00     0.028 C 
ATOM      5  C   LIG d   1       4.533  88.772 112.834  0.00  0.00    -0.047 C 
ATOM      6  C   LIG d   1       4.206  88.366 114.289  0.00  0.00     0.091 C 
ENDROOT
BRANCH   1   7
ATOM      7  O   LIG d   1       2.718  86.944 115.619  0.00  0.00    -0.368 OA
BRANCH   7   8
ATOM      8  C   LIG d   1       1.669  87.348 116.533  0.00  0.00     0.119 C 
BRANCH   8   9
ATOM      9  C   LIG d   1       0.572  86.267 116.486  0.00  0.00     0.028 C 
ATOM     10  C   LIG d   1      -0.763  86.810 115.947  0.00  0.00     0.006 C 
ENDBRANCH   8   9
BRANCH   8  11
ATOM     11  C   LIG d   1       0.989  88.638 116.066  0.00  0.00     0.028 C 
ATOM     12  C   LIG d   1       1.112  89.781 117.086  0.00  0.00     0.006 C 
ENDBRANCH   8  11
ENDBRANCH   7   8
ENDBRANCH   1   7
BRANCH   6  13
ATOM     13  N   LIG d   1       4.220  89.526 115.218  0.00  0.00    -0.311 N 
ATOM     14  C   LIG d   1       5.081  89.647 116.228  0.00  0.00     0.210 C 
ATOM     15  C   LIG d   1       4.909  90.911 117.076  0.00  0.00     0.109 C 
ATOM     16  O   LIG d   1       5.990  88.843 116.482  0.00  0.00    -0.276 OA
ATOM     17  H   LIG d   1       3.536  90.241 115.066  0.00  0.00     0.149 HD
ENDBRANCH   6  13
BRANCH   5  18
ATOM     18  N   LIG d   1       5.900  89.305 112.676  0.00  0.00     0.381 N 
ATOM     19  H   LIG d   1       6.547  88.735 113.184  0.00  0.00    -0.090 HD
ATOM     20  H   LIG d   1       5.932  90.234 113.056  0.00  0.00    -0.090 HD
ATOM     21  H   LIG d   1       6.149  89.324 111.711  0.00  0.00    -0.090 HD
ENDBRANCH   5  18
BRANCH   3  22
ATOM     22  C   LIG d   1       2.680  86.182 110.997  0.00  0.00     0.382 C 
ATOM     23  O   LIG d   1       2.790  84.934 110.926  0.00  0.00    -0.241 OA
ATOM     24  O   LIG d   1       2.147  86.805 110.059  0.00  0.00    -0.241 OA
ENDBRANCH   3  22
TORSDOF 7
ENDMDL
