MODEL 1
REMARK VINA RESULT:      -5.8      0.000      0.000
REMARK  7 active torsions:
REMARK  status: ('A' for Active; 'I' for Inactive)
REMARK    1  A    between atoms: C_2  and  C_3 
REMARK    2  A    between atoms: C_3  and  O_6 
REMARK    3  A    between atoms: C_3  and  C_4 
REMARK    4  A    between atoms: C_7  and  O_6 
REMARK    5  A    between atoms: C_9  and  C_10 
REMARK    6  A    between atoms: N_15  and  C_14 
REMARK    7  A    between atoms: N_20  and  C_19 
REMARK       I    between atoms: C_22  and  N_20 
ROOT
ATOM      1  C   LIG d   1       3.643  85.078 112.026  0.00  0.00     0.161 C 
ATOM      2  C   LIG d   1       4.322  86.223 112.475  0.00  0.00     0.016 C 
ATOM      3  C   LIG d   1       3.800  87.532 112.359  0.00  0.00     0.038 C 
ATOM      4  C   LIG d   1       2.489  87.772 111.920  0.00  0.00     0.028 C 
ATOM      5  C   LIG d   1       1.956  86.691 110.985  0.00  0.00    -0.047 C 
ATOM      6  C   LIG d   1       2.166  85.309 111.646  0.00  0.00     0.091 C 
ENDROOT
BRANCH   1   7
ATOM      7  O   LIG d   1       3.750  84.030 113.010  0.00  0.00    -0.368 OA
BRANCH   7   8
ATOM      8  C   LIG d   1       4.627  82.927 112.675  0.00  0.00     0.119 C 
BRANCH   8   9
ATOM      9  C   LIG d   1       4.971  83.048 111.177  0.00  0.00     0.028 C 
ATOM     10  C   LIG d   1       4.599  81.783 110.386  0.00  0.00     0.006 C 
ENDBRANCH   8   9
BRANCH   8  11
ATOM     11  C   LIG d   1       3.911  81.581 112.819  0.00  0.00     0.028 C 
ATOM     12  C   LIG d   1       3.109  81.471 114.125  0.00  0.00     0.006 C 
ENDBRANCH   8  11
ENDBRANCH   7   8
ENDBRANCH   1   7
BRANCH   6  13
ATOM     13  N   LIG d   1       1.749  84.189 110.762  0.00  0.00    -0.311 N 
ATOM     14  C   LIG d   1       0.974  83.185 111.168  0.00  0.00     0.210 C 
ATOM     15  C   LIG d   1       0.680  82.124 110.103  0.00  0.00     0.109 C 
ATOM     16  O   LIG d   1       0.475  83.088 112.299  0.00  0.00    -0.276 OA
ATOM     17  H   LIG d   1       2.082  84.204 109.818  0.00  0.00     0.149 HD
ENDBRANCH   6  13
BRANCH   5  18
ATOM     18  N   LIG d   1       0.538  86.994 110.716  0.00  0.00     0.381 N 
ATOM     19  H   LIG d   1      -0.043  86.292 111.130  0.00  0.00    -0.090 HD
ATOM     20  H   LIG d   1       0.386  86.982 109.723  0.00  0.00    -0.090 HD
ATOM     21  H   LIG d   1       0.305  87.889 111.085  0.00  0.00    -0.090 HD
ENDBRANCH   5  18
BRANCH   3  22
ATOM     22  C   LIG d   1       4.607  88.622 112.647  0.00  0.00     0.382 C 
ATOM     23  O   LIG d   1       4.089  89.716 112.979  0.00  0.00    -0.241 OA
ATOM     24  O   LIG d   1       5.845  88.538 112.536  0.00  0.00    -0.241 OA
ENDBRANCH   3  22
TORSDOF 7
ENDMDL
MODEL 2
REMARK VINA RESULT:      -5.4      2.131      3.333
REMARK  7 active torsions:
REMARK  status: ('A' for Active; 'I' for Inactive)
REMARK    1  A    between atoms: C_2  and  C_3 
REMARK    2  A    between atoms: C_3  and  O_6 
REMARK    3  A    between atoms: C_3  and  C_4 
REMARK    4  A    between atoms: C_7  and  O_6 
REMARK    5  A    between atoms: C_9  and  C_10 
REMARK    6  A    between atoms: N_15  and  C_14 
REMARK    7  A    between atoms: N_20  and  C_19 
REMARK       I    between atoms: C_22  and  N_20 
ROOT
ATOM      1  C   LIG d   1       3.415  85.723 112.415  0.00  0.00     0.161 C 
ATOM      2  C   LIG d   1       3.655  87.105 112.494  0.00  0.00     0.016 C 
ATOM      3  C   LIG d   1       3.787  87.804 113.716  0.00  0.00     0.038 C 
ATOM      4  C   LIG d   1       3.839  87.137 114.949  0.00  0.00     0.028 C 
ATOM      5  C   LIG d   1       3.097  85.804 114.949  0.00  0.00    -0.047 C 
ATOM      6  C   LIG d   1       3.580  84.961 113.747  0.00  0.00     0.091 C 
ENDROOT
BRANCH   1   7
ATOM      7  O   LIG d   1       4.252  85.140 111.397  0.00  0.00    -0.368 OA
BRANCH   7   8
ATOM      8  C   LIG d   1       3.577  84.696 110.194  0.00  0.00     0.119 C 
BRANCH   8   9
ATOM      9  C   LIG d   1       2.083  85.039 110.349  0.00  0.00     0.028 C 
ATOM     10  C   LIG d   1       1.171  83.836 110.057  0.00  0.00     0.006 C 
ENDBRANCH   8   9
BRANCH   8  11
ATOM     11  C   LIG d   1       3.630  83.171 110.056  0.00  0.00     0.028 C 
ATOM     12  C   LIG d   1       4.985  82.582 110.480  0.00  0.00     0.006 C 
ENDBRANCH   8  11
ENDBRANCH   7   8
ENDBRANCH   1   7
BRANCH   6  13
ATOM     13  N   LIG d   1       2.843  83.676 113.624  0.00  0.00    -0.311 N 
ATOM     14  C   LIG d   1       3.420  82.484 113.766  0.00  0.00     0.210 C 
ATOM     15  C   LIG d   1       2.484  81.286 113.579  0.00  0.00     0.109 C 
ATOM     16  O   LIG d   1       4.612  82.306 114.061  0.00  0.00    -0.276 OA
ATOM     17  H   LIG d   1       1.865  83.729 113.416  0.00  0.00     0.149 HD
ENDBRANCH   6  13
BRANCH   5  18
ATOM     18  N   LIG d   1       3.348  85.154 116.249  0.00  0.00     0.381 N 
ATOM     19  H   LIG d   1       2.750  85.549 116.947  0.00  0.00    -0.090 HD
ATOM     20  H   LIG d   1       4.301  85.324 116.519  0.00  0.00    -0.090 HD
ATOM     21  H   LIG d   1       3.185  84.174 116.177  0.00  0.00    -0.090 HD
ENDBRANCH   5  18
BRANCH   3  22
ATOM     22  C   LIG d   1       3.829  89.190 113.715  0.00  0.00     0.382 C 
ATOM     23  O   LIG d   1       3.227  89.836 114.606  0.00  0.00    -0.241 OA
ATOM     24  O   LIG d   1       4.423  89.803 112.808  0.00  0.00    -0.241 OA
ENDBRANCH   3  22
TORSDOF 7
ENDMDL
MODEL 3
REMARK VINA RESULT:      -5.1      2.646      3.544
REMARK  7 active torsions:
REMARK  status: ('A' for Active; 'I' for Inactive)
REMARK    1  A    between atoms: C_2  and  C_3 
REMARK    2  A    between atoms: C_3  and  O_6 
REMARK    3  A    between atoms: C_3  and  C_4 
REMARK    4  A    between atoms: C_7  and  O_6 
REMARK    5  A    between atoms: C_9  and  C_10 
REMARK    6  A    between atoms: N_15  and  C_14 
REMARK    7  A    between atoms: N_20  and  C_19 
REMARK       I    between atoms: C_22  and  N_20 
ROOT
ATOM      1  C   LIG d   1       2.537  85.504 113.591  0.00  0.00     0.161 C 
ATOM      2  C   LIG d   1       3.366  86.635 113.673  0.00  0.00     0.016 C 
ATOM      3  C   LIG d   1       3.408  87.643 112.682  0.00  0.00     0.038 C 
ATOM      4  C   LIG d   1       2.506  87.664 111.608  0.00  0.00     0.028 C 
ATOM      5  C   LIG d   1       1.996  86.281 111.218  0.00  0.00    -0.047 C 
ATOM      6  C   LIG d   1       1.466  85.567 112.482  0.00  0.00     0.091 C 
ENDROOT
BRANCH   1   7
ATOM      7  O   LIG d   1       1.919  85.258 114.870  0.00  0.00    -0.368 OA
BRANCH   7   8
ATOM      8  C   LIG d   1       2.609  85.795 116.025  0.00  0.00     0.119 C 
BRANCH   8   9
ATOM      9  C   LIG d   1       3.183  84.605 116.817  0.00  0.00     0.028 C 
ATOM     10  C   LIG d   1       4.720  84.616 116.863  0.00  0.00     0.006 C 
ENDBRANCH   8   9
BRANCH   8  11
ATOM     11  C   LIG d   1       1.636  86.489 116.983  0.00  0.00     0.028 C 
ATOM     12  C   LIG d   1       2.163  87.838 117.495  0.00  0.00     0.006 C 
ENDBRANCH   8  11
ENDBRANCH   7   8
ENDBRANCH   1   7
BRANCH   6  13
ATOM     13  N   LIG d   1       1.025  84.175 112.203  0.00  0.00    -0.311 N 
ATOM     14  C   LIG d   1      -0.226  83.852 111.883  0.00  0.00     0.210 C 
ATOM     15  C   LIG d   1      -0.471  82.357 111.656  0.00  0.00     0.109 C 
ATOM     16  O   LIG d   1      -1.150  84.666 111.733  0.00  0.00    -0.276 OA
ATOM     17  H   LIG d   1       1.718  83.455 112.272  0.00  0.00     0.149 HD
ENDBRANCH   6  13
BRANCH   5  18
ATOM     18  N   LIG d   1       0.963  86.463 110.180  0.00  0.00     0.381 N 
ATOM     19  H   LIG d   1       0.325  87.181 110.461  0.00  0.00    -0.090 HD
ATOM     20  H   LIG d   1       0.449  85.606 110.079  0.00  0.00    -0.090 HD
ATOM     21  H   LIG d   1       1.389  86.708 109.314  0.00  0.00    -0.090 HD
ENDBRANCH   5  18
BRANCH   3  22
ATOM     22  C   LIG d   1       4.387  88.623 112.740  0.00  0.00     0.382 C 
ATOM     23  O   LIG d   1       5.589  88.321 112.543  0.00  0.00    -0.241 OA
ATOM     24  O   LIG d   1       4.089  89.797 113.029  0.00  0.00    -0.241 OA
ENDBRANCH   3  22
TORSDOF 7
ENDMDL
MODEL 4
REMARK VINA RESULT:      -5.0     25.143     28.391
REMARK  7 active torsions:
REMARK  status: ('A' for Active; 'I' for Inactive)
REMARK    1  A    between atoms: C_2  and  C_3 
REMARK    2  A    between atoms: C_3  and  O_6 
REMARK    3  A    between atoms: C_3  and  C_4 
REMARK    4  A    between atoms: C_7  and  O_6 
REMARK    5  A    between atoms: C_9  and  C_10 
REMARK    6  A    between atoms: N_15  and  C_14 
REMARK    7  A    between atoms: N_20  and  C_19 
REMARK       I    between atoms: C_22  and  N_20 
ROOT
ATOM      1  C   LIG d   1     -16.918  65.188 114.030  0.00  0.00     0.161 C 
ATOM      2  C   LIG d   1     -16.397  66.063 113.062  0.00  0.00     0.016 C 
ATOM      3  C   LIG d   1     -15.353  66.979 113.323  0.00  0.00     0.038 C 
ATOM      4  C   LIG d   1     -14.651  66.977 114.538  0.00  0.00     0.028 C 
ATOM      5  C   LIG d   1     -15.474  66.459 115.712  0.00  0.00    -0.047 C 
ATOM      6  C   LIG d   1     -16.091  65.094 115.329  0.00  0.00     0.091 C 
ENDROOT
BRANCH   1   7
ATOM      7  O   LIG d   1     -17.101  63.878 113.456  0.00  0.00    -0.368 OA
BRANCH   7   8
ATOM      8  C   LIG d   1     -18.471  63.423 113.331  0.00  0.00     0.119 C 
BRANCH   8   9
ATOM      9  C   LIG d   1     -19.388  64.607 113.696  0.00  0.00     0.028 C 
ATOM     10  C   LIG d   1     -20.330  64.281 114.867  0.00  0.00     0.006 C 
ENDBRANCH   8   9
BRANCH   8  11
ATOM     11  C   LIG d   1     -18.792  62.332 114.357  0.00  0.00     0.028 C 
ATOM     12  C   LIG d   1     -17.605  61.390 114.615  0.00  0.00     0.006 C 
ENDBRANCH   8  11
ENDBRANCH   7   8
ENDBRANCH   1   7
BRANCH   6  13
ATOM     13  N   LIG d   1     -16.980  64.555 116.391  0.00  0.00    -0.311 N 
ATOM     14  C   LIG d   1     -16.575  63.687 117.315  0.00  0.00     0.210 C 
ATOM     15  C   LIG d   1     -17.657  63.244 118.305  0.00  0.00     0.109 C 
ATOM     16  O   LIG d   1     -15.414  63.266 117.430  0.00  0.00    -0.276 OA
ATOM     17  H   LIG d   1     -17.931  64.868 116.391  0.00  0.00     0.149 HD
ENDBRANCH   6  13
BRANCH   5  18
ATOM     18  N   LIG d   1     -14.580  66.381 116.883  0.00  0.00     0.381 N 
ATOM     19  H   LIG d   1     -14.891  67.019 117.589  0.00  0.00    -0.090 HD
ATOM     20  H   LIG d   1     -13.653  66.648 116.602  0.00  0.00    -0.090 HD
ATOM     21  H   LIG d   1     -14.572  65.453 117.244  0.00  0.00    -0.090 HD
ENDBRANCH   5  18
BRANCH   3  22
ATOM     22  C   LIG d   1     -15.027  67.938 112.376  0.00  0.00     0.382 C 
ATOM     23  O   LIG d   1     -14.745  69.106 112.737  0.00  0.00    -0.241 OA
ATOM     24  O   LIG d   1     -15.056  67.662 111.161  0.00  0.00    -0.241 OA
ENDBRANCH   3  22
TORSDOF 7
ENDMDL
MODEL 5
REMARK VINA RESULT:      -5.0      1.740      2.245
REMARK  7 active torsions:
REMARK  status: ('A' for Active; 'I' for Inactive)
REMARK    1  A    between atoms: C_2  and  C_3 
REMARK    2  A    between atoms: C_3  and  O_6 
REMARK    3  A    between atoms: C_3  and  C_4 
REMARK    4  A    between atoms: C_7  and  O_6 
REMARK    5  A    between atoms: C_9  and  C_10 
REMARK    6  A    between atoms: N_15  and  C_14 
REMARK    7  A    between atoms: N_20  and  C_19 
REMARK       I    between atoms: C_22  and  N_20 
ROOT
ATOM      1  C   LIG d   1       3.482  85.387 113.257  0.00  0.00     0.161 C 
ATOM      2  C   LIG d   1       3.763  86.698 113.678  0.00  0.00     0.016 C 
ATOM      3  C   LIG d   1       3.355  87.848 112.965  0.00  0.00     0.038 C 
ATOM      4  C   LIG d   1       2.502  87.768 111.854  0.00  0.00     0.028 C 
ATOM      5  C   LIG d   1       2.608  86.446 111.102  0.00  0.00    -0.047 C 
ATOM      6  C   LIG d   1       2.456  85.283 112.109  0.00  0.00     0.091 C 
ENDROOT
BRANCH   1   7
ATOM      7  O   LIG d   1       3.055  84.594 114.383  0.00  0.00    -0.368 OA
BRANCH   7   8
ATOM      8  C   LIG d   1       4.042  83.688 114.934  0.00  0.00     0.119 C 
BRANCH   8   9
ATOM      9  C   LIG d   1       3.435  82.272 114.910  0.00  0.00     0.028 C 
ATOM     10  C   LIG d   1       4.225  81.310 114.006  0.00  0.00     0.006 C 
ENDBRANCH   8   9
BRANCH   8  11
ATOM     11  C   LIG d   1       4.311  83.988 116.412  0.00  0.00     0.028 C 
ATOM     12  C   LIG d   1       5.399  85.054 116.615  0.00  0.00     0.006 C 
ENDBRANCH   8  11
ENDBRANCH   7   8
ENDBRANCH   1   7
BRANCH   6  13
ATOM     13  N   LIG d   1       2.632  83.953 111.469  0.00  0.00    -0.311 N 
ATOM     14  C   LIG d   1       1.787  82.938 111.644  0.00  0.00     0.210 C 
ATOM     15  C   LIG d   1       2.165  81.648 110.908  0.00  0.00     0.109 C 
ATOM     16  O   LIG d   1       0.744  82.993 112.312  0.00  0.00    -0.276 OA
ATOM     17  H   LIG d   1       3.436  83.831 110.885  0.00  0.00     0.149 HD
ENDBRANCH   6  13
BRANCH   5  18
ATOM     18  N   LIG d   1       1.569  86.444 110.055  0.00  0.00     0.381 N 
ATOM     19  H   LIG d   1       1.661  87.261 109.485  0.00  0.00    -0.090 HD
ATOM     20  H   LIG d   1       0.665  86.466 110.494  0.00  0.00    -0.090 HD
ATOM     21  H   LIG d   1       1.653  85.626 109.493  0.00  0.00    -0.090 HD
ENDBRANCH   5  18
BRANCH   3  22
ATOM     22  C   LIG d   1       3.835  89.094 113.338  0.00  0.00     0.382 C 
ATOM     23  O   LIG d   1       3.360  89.674 114.344  0.00  0.00    -0.241 OA
ATOM     24  O   LIG d   1       4.707  89.666 112.656  0.00  0.00    -0.241 OA
ENDBRANCH   3  22
TORSDOF 7
ENDMDL
MODEL 6
REMARK VINA RESULT:      -5.0     26.220     28.493
REMARK  7 active torsions:
REMARK  status: ('A' for Active; 'I' for Inactive)
REMARK    1  A    between atoms: C_2  and  C_3 
REMARK    2  A    between atoms: C_3  and  O_6 
REMARK    3  A    between atoms: C_3  and  C_4 
REMARK    4  A    between atoms: C_7  and  O_6 
REMARK    5  A    between atoms: C_9  and  C_10 
REMARK    6  A    between atoms: N_15  and  C_14 
REMARK    7  A    between atoms: N_20  and  C_19 
REMARK       I    between atoms: C_22  and  N_20 
ROOT
ATOM      1  C   LIG d   1     -25.429  85.962 114.047  0.00  0.00     0.161 C 
ATOM      2  C   LIG d   1     -24.297  86.789 114.130  0.00  0.00     0.016 C 
ATOM      3  C   LIG d   1     -22.982  86.335 113.878  0.00  0.00     0.038 C 
ATOM      4  C   LIG d   1     -22.724  85.050 113.376  0.00  0.00     0.028 C 
ATOM      5  C   LIG d   1     -23.787  84.026 113.760  0.00  0.00    -0.047 C 
ATOM      6  C   LIG d   1     -25.180  84.587 113.393  0.00  0.00     0.091 C 
ENDROOT
BRANCH   1   7
ATOM      7  O   LIG d   1     -26.492  86.656 113.365  0.00  0.00    -0.368 OA
BRANCH   7   8
ATOM      8  C   LIG d   1     -26.088  87.549 112.298  0.00  0.00     0.119 C 
BRANCH   8   9
ATOM      9  C   LIG d   1     -26.745  88.917 112.567  0.00  0.00     0.028 C 
ATOM     10  C   LIG d   1     -26.858  89.774 111.295  0.00  0.00     0.006 C 
ENDBRANCH   8   9
BRANCH   8  11
ATOM     11  C   LIG d   1     -26.644  87.091 110.947  0.00  0.00     0.028 C 
ATOM     12  C   LIG d   1     -27.812  86.102 111.087  0.00  0.00     0.006 C 
ENDBRANCH   8  11
ENDBRANCH   7   8
ENDBRANCH   1   7
BRANCH   6  13
ATOM     13  N   LIG d   1     -26.283  83.683 113.812  0.00  0.00    -0.311 N 
ATOM     14  C   LIG d   1     -26.760  82.705 113.044  0.00  0.00     0.210 C 
ATOM     15  C   LIG d   1     -27.912  81.903 113.660  0.00  0.00     0.109 C 
ATOM     16  O   LIG d   1     -26.318  82.404 111.925  0.00  0.00    -0.276 OA
ATOM     17  H   LIG d   1     -26.679  83.836 114.719  0.00  0.00     0.149 HD
ENDBRANCH   6  13
BRANCH   5  18
ATOM     18  N   LIG d   1     -23.467  82.768 113.058  0.00  0.00     0.381 N 
ATOM     19  H   LIG d   1     -23.139  82.969 112.134  0.00  0.00    -0.090 HD
ATOM     20  H   LIG d   1     -24.303  82.216 112.982  0.00  0.00    -0.090 HD
ATOM     21  H   LIG d   1     -22.772  82.263 113.562  0.00  0.00    -0.090 HD
ENDBRANCH   5  18
BRANCH   3  22
ATOM     22  C   LIG d   1     -21.903  87.157 114.167  0.00  0.00     0.382 C 
ATOM     23  O   LIG d   1     -20.952  87.252 113.355  0.00  0.00    -0.241 OA
ATOM     24  O   LIG d   1     -21.849  87.771 115.250  0.00  0.00    -0.241 OA
ENDBRANCH   3  22
TORSDOF 7
ENDMDL
MODEL 7
REMARK VINA RESULT:      -4.9     25.898     28.523
REMARK  7 active torsions:
REMARK  status: ('A' for Active; 'I' for Inactive)
REMARK    1  A    between atoms: C_2  and  C_3 
REMARK    2  A    between atoms: C_3  and  O_6 
REMARK    3  A    between atoms: C_3  and  C_4 
REMARK    4  A    between atoms: C_7  and  O_6 
REMARK    5  A    between atoms: C_9  and  C_10 
REMARK    6  A    between atoms: N_15  and  C_14 
REMARK    7  A    between atoms: N_20  and  C_19 
REMARK       I    between atoms: C_22  and  N_20 
ROOT
ATOM      1  C   LIG d   1     -24.163  85.875 112.761  0.00  0.00     0.161 C 
ATOM      2  C   LIG d   1     -24.725  84.629 112.434  0.00  0.00     0.016 C 
ATOM      3  C   LIG d   1     -25.051  83.646 113.396  0.00  0.00     0.038 C 
ATOM      4  C   LIG d   1     -24.976  83.902 114.773  0.00  0.00     0.028 C 
ATOM      5  C   LIG d   1     -23.940  84.960 115.136  0.00  0.00    -0.047 C 
ATOM      6  C   LIG d   1     -24.178  86.215 114.266  0.00  0.00     0.091 C 
ENDROOT
BRANCH   1   7
ATOM      7  O   LIG d   1     -24.812  86.917 112.005  0.00  0.00    -0.368 OA
BRANCH   7   8
ATOM      8  C   LIG d   1     -26.205  87.160 112.320  0.00  0.00     0.119 C 
BRANCH   8   9
ATOM      9  C   LIG d   1     -27.019  86.922 111.033  0.00  0.00     0.028 C 
ATOM     10  C   LIG d   1     -28.102  85.845 111.215  0.00  0.00     0.006 C 
ENDBRANCH   8   9
BRANCH   8  11
ATOM     11  C   LIG d   1     -26.445  88.628 112.686  0.00  0.00     0.028 C 
ATOM     12  C   LIG d   1     -26.896  89.475 111.485  0.00  0.00     0.006 C 
ENDBRANCH   8  11
ENDBRANCH   7   8
ENDBRANCH   1   7
BRANCH   6  13
ATOM     13  N   LIG d   1     -23.155  87.269 114.498  0.00  0.00    -0.311 N 
ATOM     14  C   LIG d   1     -21.879  87.144 114.137  0.00  0.00     0.210 C 
ATOM     15  C   LIG d   1     -20.988  88.340 114.488  0.00  0.00     0.109 C 
ATOM     16  O   LIG d   1     -21.408  86.171 113.530  0.00  0.00    -0.276 OA
ATOM     17  H   LIG d   1     -23.459  88.105 114.957  0.00  0.00     0.149 HD
ENDBRANCH   6  13
BRANCH   5  18
ATOM     18  N   LIG d   1     -24.064  85.228 116.582  0.00  0.00     0.381 N 
ATOM     19  H   LIG d   1     -23.155  85.282 116.995  0.00  0.00    -0.090 HD
ATOM     20  H   LIG d   1     -24.561  84.467 117.012  0.00  0.00    -0.090 HD
ATOM     21  H   LIG d   1     -24.556  86.081 116.730  0.00  0.00    -0.090 HD
ENDBRANCH   5  18
BRANCH   3  22
ATOM     22  C   LIG d   1     -25.419  82.375 112.982  0.00  0.00     0.382 C 
ATOM     23  O   LIG d   1     -24.923  81.365 113.538  0.00  0.00    -0.241 OA
ATOM     24  O   LIG d   1     -26.208  82.224 112.029  0.00  0.00    -0.241 OA
ENDBRANCH   3  22
TORSDOF 7
ENDMDL
MODEL 8
REMARK VINA RESULT:      -4.8      2.695      4.019
REMARK  7 active torsions:
REMARK  status: ('A' for Active; 'I' for Inactive)
REMARK    1  A    between atoms: C_2  and  C_3 
REMARK    2  A    between atoms: C_3  and  O_6 
REMARK    3  A    between atoms: C_3  and  C_4 
REMARK    4  A    between atoms: C_7  and  O_6 
REMARK    5  A    between atoms: C_9  and  C_10 
REMARK    6  A    between atoms: N_15  and  C_14 
REMARK    7  A    between atoms: N_20  and  C_19 
REMARK       I    between atoms: C_22  and  N_20 
ROOT
ATOM      1  C   LIG d   1       3.163  85.567 114.072  0.00  0.00     0.161 C 
ATOM      2  C   LIG d   1       3.658  86.879 113.983  0.00  0.00     0.016 C 
ATOM      3  C   LIG d   1       4.059  87.478 112.767  0.00  0.00     0.038 C 
ATOM      4  C   LIG d   1       3.849  86.855 111.528  0.00  0.00     0.028 C 
ATOM      5  C   LIG d   1       3.820  85.332 111.613  0.00  0.00    -0.047 C 
ATOM      6  C   LIG d   1       2.823  84.911 112.717  0.00  0.00     0.091 C 
ENDROOT
BRANCH   1   7
ATOM      7  O   LIG d   1       2.017  85.535 114.945  0.00  0.00    -0.368 OA
BRANCH   7   8
ATOM      8  C   LIG d   1       2.136  86.284 116.180  0.00  0.00     0.119 C 
BRANCH   8   9
ATOM      9  C   LIG d   1       1.833  85.316 117.340  0.00  0.00     0.028 C 
ATOM     10  C   LIG d   1       2.563  83.970 117.187  0.00  0.00     0.006 C 
ENDBRANCH   8   9
BRANCH   8  11
ATOM     11  C   LIG d   1       1.067  87.376 116.274  0.00  0.00     0.028 C 
ATOM     12  C   LIG d   1       1.582  88.657 116.949  0.00  0.00     0.006 C 
ENDBRANCH   8  11
ENDBRANCH   7   8
ENDBRANCH   1   7
BRANCH   6  13
ATOM     13  N   LIG d   1       2.796  83.439 112.924  0.00  0.00    -0.311 N 
ATOM     14  C   LIG d   1       1.924  82.630 112.324  0.00  0.00     0.210 C 
ATOM     15  C   LIG d   1       2.057  81.149 112.693  0.00  0.00     0.109 C 
ATOM     16  O   LIG d   1       1.075  82.995 111.498  0.00  0.00    -0.276 OA
ATOM     17  H   LIG d   1       3.471  83.055 113.556  0.00  0.00     0.149 HD
ENDBRANCH   6  13
BRANCH   5  18
ATOM     18  N   LIG d   1       3.457  84.818 110.279  0.00  0.00     0.381 N 
ATOM     19  H   LIG d   1       2.878  84.007 110.375  0.00  0.00    -0.090 HD
ATOM     20  H   LIG d   1       4.296  84.551 109.795  0.00  0.00    -0.090 HD
ATOM     21  H   LIG d   1       2.975  85.520 109.763  0.00  0.00    -0.090 HD
ENDBRANCH   5  18
BRANCH   3  22
ATOM     22  C   LIG d   1       4.714  88.700 112.786  0.00  0.00     0.382 C 
ATOM     23  O   LIG d   1       5.940  88.759 112.525  0.00  0.00    -0.241 OA
ATOM     24  O   LIG d   1       4.104  89.739 113.105  0.00  0.00    -0.241 OA
ENDBRANCH   3  22
TORSDOF 7
ENDMDL
MODEL 9
REMARK VINA RESULT:      -4.7     25.557     29.078
REMARK  7 active torsions:
REMARK  status: ('A' for Active; 'I' for Inactive)
REMARK    1  A    between atoms: C_2  and  C_3 
REMARK    2  A    between atoms: C_3  and  O_6 
REMARK    3  A    between atoms: C_3  and  C_4 
REMARK    4  A    between atoms: C_7  and  O_6 
REMARK    5  A    between atoms: C_9  and  C_10 
REMARK    6  A    between atoms: N_15  and  C_14 
REMARK    7  A    between atoms: N_20  and  C_19 
REMARK       I    between atoms: C_22  and  N_20 
ROOT
ATOM      1  C   LIG d   1     -16.294  64.287 113.828  0.00  0.00     0.161 C 
ATOM      2  C   LIG d   1     -16.633  63.211 114.664  0.00  0.00     0.016 C 
ATOM      3  C   LIG d   1     -16.393  63.202 116.057  0.00  0.00     0.038 C 
ATOM      4  C   LIG d   1     -15.931  64.338 116.737  0.00  0.00     0.028 C 
ATOM      5  C   LIG d   1     -15.102  65.273 115.862  0.00  0.00    -0.047 C 
ATOM      6  C   LIG d   1     -15.891  65.580 114.569  0.00  0.00     0.091 C 
ENDROOT
BRANCH   1   7
ATOM      7  O   LIG d   1     -17.373  64.552 112.910  0.00  0.00    -0.368 OA
BRANCH   7   8
ATOM      8  C   LIG d   1     -18.680  64.067 113.305  0.00  0.00     0.119 C 
BRANCH   8   9
ATOM      9  C   LIG d   1     -19.370  63.515 112.043  0.00  0.00     0.028 C 
ATOM     10  C   LIG d   1     -20.335  62.360 112.359  0.00  0.00     0.006 C 
ENDBRANCH   8   9
BRANCH   8  11
ATOM     11  C   LIG d   1     -19.575  65.211 113.790  0.00  0.00     0.028 C 
ATOM     12  C   LIG d   1     -19.867  65.141 115.297  0.00  0.00     0.006 C 
ENDBRANCH   8  11
ENDBRANCH   7   8
ENDBRANCH   1   7
BRANCH   6  13
ATOM     13  N   LIG d   1     -15.117  66.420 113.618  0.00  0.00    -0.311 N 
ATOM     14  C   LIG d   1     -14.967  67.736 113.758  0.00  0.00     0.210 C 
ATOM     15  C   LIG d   1     -14.148  68.414 112.655  0.00  0.00     0.109 C 
ATOM     16  O   LIG d   1     -15.408  68.402 114.707  0.00  0.00    -0.276 OA
ATOM     17  H   LIG d   1     -14.699  65.956 112.836  0.00  0.00     0.149 HD
ENDBRANCH   6  13
BRANCH   5  18
ATOM     18  N   LIG d   1     -14.803  66.479 116.657  0.00  0.00     0.381 N 
ATOM     19  H   LIG d   1     -15.571  67.119 116.604  0.00  0.00    -0.090 HD
ATOM     20  H   LIG d   1     -13.991  66.929 116.272  0.00  0.00    -0.090 HD
ATOM     21  H   LIG d   1     -14.635  66.229 117.606  0.00  0.00    -0.090 HD
ENDBRANCH   5  18
BRANCH   3  22
ATOM     22  C   LIG d   1     -16.578  62.032 116.779  0.00  0.00     0.382 C 
ATOM     23  O   LIG d   1     -17.574  61.304 116.549  0.00  0.00    -0.241 OA
ATOM     24  O   LIG d   1     -15.785  61.718 117.687  0.00  0.00    -0.241 OA
ENDBRANCH   3  22
TORSDOF 7
ENDMDL
