MODEL 1
REMARK VINA RESULT:      -5.7      0.000      0.000
REMARK  7 active torsions:
REMARK  status: ('A' for Active; 'I' for Inactive)
REMARK    1  A    between atoms: C_2  and  C_3 
REMARK    2  A    between atoms: C_3  and  O_6 
REMARK    3  A    between atoms: C_3  and  C_4 
REMARK    4  A    between atoms: C_7  and  O_6 
REMARK    5  A    between atoms: C_9  and  C_10 
REMARK    6  A    between atoms: N_15  and  C_14 
REMARK    7  A    between atoms: N_20  and  C_19 
REMARK       I    between atoms: C_22  and  N_20 
ROOT
ATOM      1  C   LIG d   1       2.555  85.803 111.282  0.00  0.00     0.161 C 
ATOM      2  C   LIG d   1       3.596  86.738 111.405  0.00  0.00     0.016 C 
ATOM      3  C   LIG d   1       3.976  87.322 112.636  0.00  0.00     0.038 C 
ATOM      4  C   LIG d   1       3.437  86.892 113.858  0.00  0.00     0.028 C 
ATOM      5  C   LIG d   1       2.032  86.314 113.730  0.00  0.00    -0.047 C 
ATOM      6  C   LIG d   1       2.030  85.239 112.619  0.00  0.00     0.091 C 
ENDROOT
BRANCH   1   7
ATOM      7  O   LIG d   1       2.965  84.729 110.412  0.00  0.00    -0.368 OA
BRANCH   7   8
ATOM      8  C   LIG d   1       3.118  83.429 111.033  0.00  0.00     0.119 C 
BRANCH   8   9
ATOM      9  C   LIG d   1       4.624  83.103 111.059  0.00  0.00     0.028 C 
ATOM     10  C   LIG d   1       5.103  82.652 112.449  0.00  0.00     0.006 C 
ENDBRANCH   8   9
BRANCH   8  11
ATOM     11  C   LIG d   1       2.479  82.326 110.183  0.00  0.00     0.028 C 
ATOM     12  C   LIG d   1       2.056  81.104 111.012  0.00  0.00     0.006 C 
ENDBRANCH   8  11
ENDBRANCH   7   8
ENDBRANCH   1   7
BRANCH   6  13
ATOM     13  N   LIG d   1       0.675  84.682 112.371  0.00  0.00    -0.311 N 
ATOM     14  C   LIG d   1       0.191  83.619 113.011  0.00  0.00     0.210 C 
ATOM     15  C   LIG d   1      -1.220  83.198 112.590  0.00  0.00     0.109 C 
ATOM     16  O   LIG d   1       0.784  83.004 113.910  0.00  0.00    -0.276 OA
ATOM     17  H   LIG d   1       0.114  85.139 111.679  0.00  0.00     0.149 HD
ENDBRANCH   6  13
BRANCH   5  18
ATOM     18  N   LIG d   1       1.648  85.781 115.051  0.00  0.00     0.381 N 
ATOM     19  H   LIG d   1       1.120  84.938 114.935  0.00  0.00    -0.090 HD
ATOM     20  H   LIG d   1       1.067  86.455 115.517  0.00  0.00    -0.090 HD
ATOM     21  H   LIG d   1       2.462  85.600 115.595  0.00  0.00    -0.090 HD
ENDBRANCH   5  18
BRANCH   3  22
ATOM     22  C   LIG d   1       4.878  88.375 112.648  0.00  0.00     0.382 C 
ATOM     23  O   LIG d   1       4.461  89.556 112.725  0.00  0.00    -0.241 OA
ATOM     24  O   LIG d   1       6.100  88.162 112.537  0.00  0.00    -0.241 OA
ENDBRANCH   3  22
TORSDOF 7
ENDMDL
MODEL 2
REMARK VINA RESULT:      -5.6      1.800      2.279
REMARK  7 active torsions:
REMARK  status: ('A' for Active; 'I' for Inactive)
REMARK    1  A    between atoms: C_2  and  C_3 
REMARK    2  A    between atoms: C_3  and  O_6 
REMARK    3  A    between atoms: C_3  and  C_4 
REMARK    4  A    between atoms: C_7  and  O_6 
REMARK    5  A    between atoms: C_9  and  C_10 
REMARK    6  A    between atoms: N_15  and  C_14 
REMARK    7  A    between atoms: N_20  and  C_19 
REMARK       I    between atoms: C_22  and  N_20 
ROOT
ATOM      1  C   LIG d   1       3.706  84.907 112.389  0.00  0.00     0.161 C 
ATOM      2  C   LIG d   1       4.432  86.068 112.703  0.00  0.00     0.016 C 
ATOM      3  C   LIG d   1       3.980  87.373 112.402  0.00  0.00     0.038 C 
ATOM      4  C   LIG d   1       2.693  87.615 111.898  0.00  0.00     0.028 C 
ATOM      5  C   LIG d   1       2.126  86.446 111.099  0.00  0.00    -0.047 C 
ATOM      6  C   LIG d   1       2.251  85.155 111.941  0.00  0.00     0.091 C 
ENDROOT
BRANCH   1   7
ATOM      7  O   LIG d   1       3.738  83.994 113.504  0.00  0.00    -0.368 OA
BRANCH   7   8
ATOM      8  C   LIG d   1       4.554  82.809 113.336  0.00  0.00     0.119 C 
BRANCH   8   9
ATOM      9  C   LIG d   1       5.046  82.790 111.875  0.00  0.00     0.028 C 
ATOM     10  C   LIG d   1       4.639  81.504 111.136  0.00  0.00     0.006 C 
ENDBRANCH   8   9
BRANCH   8  11
ATOM     11  C   LIG d   1       3.725  81.533 113.501  0.00  0.00     0.028 C 
ATOM     12  C   LIG d   1       2.626  81.670 114.567  0.00  0.00     0.006 C 
ENDBRANCH   8  11
ENDBRANCH   7   8
ENDBRANCH   1   7
BRANCH   6  13
ATOM     13  N   LIG d   1       1.796  83.950 111.200  0.00  0.00    -0.311 N 
ATOM     14  C   LIG d   1       0.826  83.146 111.633  0.00  0.00     0.210 C 
ATOM     15  C   LIG d   1       0.527  81.948 110.726  0.00  0.00     0.109 C 
ATOM     16  O   LIG d   1       0.164  83.329 112.665  0.00  0.00    -0.276 OA
ATOM     17  H   LIG d   1       2.258  83.744 110.336  0.00  0.00     0.149 HD
ENDBRANCH   6  13
BRANCH   5  18
ATOM     18  N   LIG d   1       0.732  86.778 110.753  0.00  0.00     0.381 N 
ATOM     19  H   LIG d   1       0.457  86.276 109.932  0.00  0.00    -0.090 HD
ATOM     20  H   LIG d   1       0.671  87.762 110.555  0.00  0.00    -0.090 HD
ATOM     21  H   LIG d   1       0.128  86.547 111.511  0.00  0.00    -0.090 HD
ENDBRANCH   5  18
BRANCH   3  22
ATOM     22  C   LIG d   1       4.836  88.451 112.567  0.00  0.00     0.382 C 
ATOM     23  O   LIG d   1       4.368  89.606 112.714  0.00  0.00    -0.241 OA
ATOM     24  O   LIG d   1       6.071  88.290 112.527  0.00  0.00    -0.241 OA
ENDBRANCH   3  22
TORSDOF 7
ENDMDL
MODEL 3
REMARK VINA RESULT:      -5.6      2.996      6.922
REMARK  7 active torsions:
REMARK  status: ('A' for Active; 'I' for Inactive)
REMARK    1  A    between atoms: C_2  and  C_3 
REMARK    2  A    between atoms: C_3  and  O_6 
REMARK    3  A    between atoms: C_3  and  C_4 
REMARK    4  A    between atoms: C_7  and  O_6 
REMARK    5  A    between atoms: C_9  and  C_10 
REMARK    6  A    between atoms: N_15  and  C_14 
REMARK    7  A    between atoms: N_20  and  C_19 
REMARK       I    between atoms: C_22  and  N_20 
ROOT
ATOM      1  C   LIG d   1      -0.009  83.007 112.141  0.00  0.00     0.161 C 
ATOM      2  C   LIG d   1      -1.227  82.473 112.593  0.00  0.00     0.016 C 
ATOM      3  C   LIG d   1      -1.608  81.126 112.394  0.00  0.00     0.038 C 
ATOM      4  C   LIG d   1      -0.724  80.177 111.860  0.00  0.00     0.028 C 
ATOM      5  C   LIG d   1       0.325  80.781 110.931  0.00  0.00    -0.047 C 
ATOM      6  C   LIG d   1       1.015  81.960 111.654  0.00  0.00     0.091 C 
ENDROOT
BRANCH   1   7
ATOM      7  O   LIG d   1       0.572  83.836 113.167  0.00  0.00    -0.368 OA
BRANCH   7   8
ATOM      8  C   LIG d   1       0.282  85.253 113.081  0.00  0.00     0.119 C 
BRANCH   8   9
ATOM      9  C   LIG d   1       0.282  85.636 111.589  0.00  0.00     0.028 C 
ATOM     10  C   LIG d   1      -0.988  86.400 111.179  0.00  0.00     0.006 C 
ENDBRANCH   8   9
BRANCH   8  11
ATOM     11  C   LIG d   1       1.398  86.089 113.715  0.00  0.00     0.028 C 
ATOM     12  C   LIG d   1       2.802  85.602 113.326  0.00  0.00     0.006 C 
ENDBRANCH   8  11
ENDBRANCH   7   8
ENDBRANCH   1   7
BRANCH   6  13
ATOM     13  N   LIG d   1       1.996  82.661 110.785  0.00  0.00    -0.311 N 
ATOM     14  C   LIG d   1       3.292  82.762 111.076  0.00  0.00     0.210 C 
ATOM     15  C   LIG d   1       4.125  83.543 110.055  0.00  0.00     0.109 C 
ATOM     16  O   LIG d   1       3.837  82.251 112.066  0.00  0.00    -0.276 OA
ATOM     17  H   LIG d   1       1.646  83.078 109.945  0.00  0.00     0.149 HD
ENDBRANCH   6  13
BRANCH   5  18
ATOM     18  N   LIG d   1       1.261  79.705 110.556  0.00  0.00     0.381 N 
ATOM     19  H   LIG d   1       2.160  80.094 110.352  0.00  0.00    -0.090 HD
ATOM     20  H   LIG d   1       0.919  79.250 109.728  0.00  0.00    -0.090 HD
ATOM     21  H   LIG d   1       1.337  79.045 111.299  0.00  0.00    -0.090 HD
ENDBRANCH   5  18
BRANCH   3  22
ATOM     22  C   LIG d   1      -2.900  80.725 112.696  0.00  0.00     0.382 C 
ATOM     23  O   LIG d   1      -3.149  79.513 112.900  0.00  0.00    -0.241 OA
ATOM     24  O   LIG d   1      -3.829  81.555 112.724  0.00  0.00    -0.241 OA
ENDBRANCH   3  22
TORSDOF 7
ENDMDL
MODEL 4
REMARK VINA RESULT:      -5.6      7.598     10.197
REMARK  7 active torsions:
REMARK  status: ('A' for Active; 'I' for Inactive)
REMARK    1  A    between atoms: C_2  and  C_3 
REMARK    2  A    between atoms: C_3  and  O_6 
REMARK    3  A    between atoms: C_3  and  C_4 
REMARK    4  A    between atoms: C_7  and  O_6 
REMARK    5  A    between atoms: C_9  and  C_10 
REMARK    6  A    between atoms: N_15  and  C_14 
REMARK    7  A    between atoms: N_20  and  C_19 
REMARK       I    between atoms: C_22  and  N_20 
ROOT
ATOM      1  C   LIG d   1      -2.890  77.729 115.014  0.00  0.00     0.161 C 
ATOM      2  C   LIG d   1      -1.548  78.108 115.190  0.00  0.00     0.016 C 
ATOM      3  C   LIG d   1      -0.597  77.311 115.867  0.00  0.00     0.038 C 
ATOM      4  C   LIG d   1      -0.888  76.003 116.285  0.00  0.00     0.028 C 
ATOM      5  C   LIG d   1      -2.367  75.776 116.577  0.00  0.00    -0.047 C 
ATOM      6  C   LIG d   1      -3.197  76.258 115.366  0.00  0.00     0.091 C 
ENDROOT
BRANCH   1   7
ATOM      7  O   LIG d   1      -3.307  78.019 113.666  0.00  0.00    -0.368 OA
BRANCH   7   8
ATOM      8  C   LIG d   1      -2.335  78.694 112.829  0.00  0.00     0.119 C 
BRANCH   8   9
ATOM      9  C   LIG d   1      -2.737  80.180 112.758  0.00  0.00     0.028 C 
ATOM     10  C   LIG d   1      -1.528  81.105 112.538  0.00  0.00     0.006 C 
ENDBRANCH   8   9
BRANCH   8  11
ATOM     11  C   LIG d   1      -2.395  78.188 111.385  0.00  0.00     0.028 C 
ATOM     12  C   LIG d   1      -1.021  77.763 110.844  0.00  0.00     0.006 C 
ENDBRANCH   8  11
ENDBRANCH   7   8
ENDBRANCH   1   7
BRANCH   6  13
ATOM     13  N   LIG d   1      -4.661  76.149 115.602  0.00  0.00    -0.311 N 
ATOM     14  C   LIG d   1      -5.506  75.604 114.729  0.00  0.00     0.210 C 
ATOM     15  C   LIG d   1      -6.975  75.610 115.162  0.00  0.00     0.109 C 
ATOM     16  O   LIG d   1      -5.174  75.087 113.652  0.00  0.00    -0.276 OA
ATOM     17  H   LIG d   1      -5.012  76.515 116.466  0.00  0.00     0.149 HD
ENDBRANCH   6  13
BRANCH   5  18
ATOM     18  N   LIG d   1      -2.548  74.341 116.868  0.00  0.00     0.381 N 
ATOM     19  H   LIG d   1      -1.724  73.977 117.302  0.00  0.00    -0.090 HD
ATOM     20  H   LIG d   1      -2.693  73.850 116.003  0.00  0.00    -0.090 HD
ATOM     21  H   LIG d   1      -3.333  74.211 117.467  0.00  0.00    -0.090 HD
ENDBRANCH   5  18
BRANCH   3  22
ATOM     22  C   LIG d   1       0.651  77.836 116.167  0.00  0.00     0.382 C 
ATOM     23  O   LIG d   1       1.550  77.092 116.628  0.00  0.00    -0.241 OA
ATOM     24  O   LIG d   1       0.875  79.053 116.025  0.00  0.00    -0.241 OA
ENDBRANCH   3  22
TORSDOF 7
ENDMDL
MODEL 5
REMARK VINA RESULT:      -5.5      2.066      5.056
REMARK  7 active torsions:
REMARK  status: ('A' for Active; 'I' for Inactive)
REMARK    1  A    between atoms: C_2  and  C_3 
REMARK    2  A    between atoms: C_3  and  O_6 
REMARK    3  A    between atoms: C_3  and  C_4 
REMARK    4  A    between atoms: C_7  and  O_6 
REMARK    5  A    between atoms: C_9  and  C_10 
REMARK    6  A    between atoms: N_15  and  C_14 
REMARK    7  A    between atoms: N_20  and  C_19 
REMARK       I    between atoms: C_22  and  N_20 
ROOT
ATOM      1  C   LIG d   1       2.422  84.815 113.597  0.00  0.00     0.161 C 
ATOM      2  C   LIG d   1       1.274  84.089 113.236  0.00  0.00     0.016 C 
ATOM      3  C   LIG d   1       0.388  84.493 112.211  0.00  0.00     0.038 C 
ATOM      4  C   LIG d   1       0.673  85.580 111.370  0.00  0.00     0.028 C 
ATOM      5  C   LIG d   1       1.560  86.635 112.023  0.00  0.00    -0.047 C 
ATOM      6  C   LIG d   1       2.808  85.943 112.617  0.00  0.00     0.091 C 
ENDROOT
BRANCH   1   7
ATOM      7  O   LIG d   1       3.531  83.914 113.786  0.00  0.00    -0.368 OA
BRANCH   7   8
ATOM      8  C   LIG d   1       3.561  82.750 112.924  0.00  0.00     0.119 C 
BRANCH   8   9
ATOM      9  C   LIG d   1       3.996  81.548 113.784  0.00  0.00     0.028 C 
ATOM     10  C   LIG d   1       3.288  81.516 115.149  0.00  0.00     0.006 C 
ENDBRANCH   8   9
BRANCH   8  11
ATOM     11  C   LIG d   1       4.636  82.886 111.842  0.00  0.00     0.028 C 
ATOM     12  C   LIG d   1       4.059  83.283 110.474  0.00  0.00     0.006 C 
ENDBRANCH   8  11
ENDBRANCH   7   8
ENDBRANCH   1   7
BRANCH   6  13
ATOM     13  N   LIG d   1       3.688  86.892 113.348  0.00  0.00    -0.311 N 
ATOM     14  C   LIG d   1       4.754  87.474 112.800  0.00  0.00     0.210 C 
ATOM     15  C   LIG d   1       5.535  88.403 113.734  0.00  0.00     0.109 C 
ATOM     16  O   LIG d   1       5.108  87.333 111.620  0.00  0.00    -0.276 OA
ATOM     17  H   LIG d   1       3.456  87.087 114.302  0.00  0.00     0.149 HD
ENDBRANCH   6  13
BRANCH   5  18
ATOM     18  N   LIG d   1       1.890  87.638 110.993  0.00  0.00     0.381 N 
ATOM     19  H   LIG d   1       2.785  88.040 111.187  0.00  0.00    -0.090 HD
ATOM     20  H   LIG d   1       1.203  88.371 111.022  0.00  0.00    -0.090 HD
ATOM     21  H   LIG d   1       1.896  87.213 110.092  0.00  0.00    -0.090 HD
ENDBRANCH   5  18
BRANCH   3  22
ATOM     22  C   LIG d   1      -0.819  83.831 112.045  0.00  0.00     0.382 C 
ATOM     23  O   LIG d   1      -1.170  83.444 110.905  0.00  0.00    -0.241 OA
ATOM     24  O   LIG d   1      -1.581  83.654 113.015  0.00  0.00    -0.241 OA
ENDBRANCH   3  22
TORSDOF 7
ENDMDL
MODEL 6
REMARK VINA RESULT:      -5.4     25.176     28.377
REMARK  7 active torsions:
REMARK  status: ('A' for Active; 'I' for Inactive)
REMARK    1  A    between atoms: C_2  and  C_3 
REMARK    2  A    between atoms: C_3  and  O_6 
REMARK    3  A    between atoms: C_3  and  C_4 
REMARK    4  A    between atoms: C_7  and  O_6 
REMARK    5  A    between atoms: C_9  and  C_10 
REMARK    6  A    between atoms: N_15  and  C_14 
REMARK    7  A    between atoms: N_20  and  C_19 
REMARK       I    between atoms: C_22  and  N_20 
ROOT
ATOM      1  C   LIG d   1     -25.679  85.469 114.017  0.00  0.00     0.161 C 
ATOM      2  C   LIG d   1     -24.549  86.297 114.122  0.00  0.00     0.016 C 
ATOM      3  C   LIG d   1     -23.237  85.866 113.817  0.00  0.00     0.038 C 
ATOM      4  C   LIG d   1     -22.984  84.614 113.238  0.00  0.00     0.028 C 
ATOM      5  C   LIG d   1     -24.033  83.563 113.585  0.00  0.00    -0.047 C 
ATOM      6  C   LIG d   1     -25.436  84.135 113.281  0.00  0.00     0.091 C 
ENDROOT
BRANCH   1   7
ATOM      7  O   LIG d   1     -26.760  86.194 113.397  0.00  0.00    -0.368 OA
BRANCH   7   8
ATOM      8  C   LIG d   1     -26.937  85.981 111.975  0.00  0.00     0.119 C 
BRANCH   8   9
ATOM      9  C   LIG d   1     -26.332  87.196 111.246  0.00  0.00     0.028 C 
ATOM     10  C   LIG d   1     -26.785  88.532 111.856  0.00  0.00     0.006 C 
ENDBRANCH   8   9
BRANCH   8  11
ATOM     11  C   LIG d   1     -28.421  85.976 111.594  0.00  0.00     0.028 C 
ATOM     12  C   LIG d   1     -28.815  84.754 110.750  0.00  0.00     0.006 C 
ENDBRANCH   8  11
ENDBRANCH   7   8
ENDBRANCH   1   7
BRANCH   6  13
ATOM     13  N   LIG d   1     -26.525  83.202 113.671  0.00  0.00    -0.311 N 
ATOM     14  C   LIG d   1     -27.056  82.306 112.840  0.00  0.00     0.210 C 
ATOM     15  C   LIG d   1     -28.181  81.456 113.439  0.00  0.00     0.109 C 
ATOM     16  O   LIG d   1     -26.680  82.113 111.674  0.00  0.00    -0.276 OA
ATOM     17  H   LIG d   1     -26.869  83.269 114.609  0.00  0.00     0.149 HD
ENDBRANCH   6  13
BRANCH   5  18
ATOM     18  N   LIG d   1     -23.722  82.349 112.807  0.00  0.00     0.381 N 
ATOM     19  H   LIG d   1     -24.520  81.746 112.786  0.00  0.00    -0.090 HD
ATOM     20  H   LIG d   1     -22.968  81.859 113.256  0.00  0.00    -0.090 HD
ATOM     21  H   LIG d   1     -23.460  82.597 111.878  0.00  0.00    -0.090 HD
ENDBRANCH   5  18
BRANCH   3  22
ATOM     22  C   LIG d   1     -22.157  86.678 114.129  0.00  0.00     0.382 C 
ATOM     23  O   LIG d   1     -22.300  87.628 114.936  0.00  0.00    -0.241 OA
ATOM     24  O   LIG d   1     -21.053  86.500 113.580  0.00  0.00    -0.241 OA
ENDBRANCH   3  22
TORSDOF 7
ENDMDL
MODEL 7
REMARK VINA RESULT:      -5.2      8.279     11.521
REMARK  7 active torsions:
REMARK  status: ('A' for Active; 'I' for Inactive)
REMARK    1  A    between atoms: C_2  and  C_3 
REMARK    2  A    between atoms: C_3  and  O_6 
REMARK    3  A    between atoms: C_3  and  C_4 
REMARK    4  A    between atoms: C_7  and  O_6 
REMARK    5  A    between atoms: C_9  and  C_10 
REMARK    6  A    between atoms: N_15  and  C_14 
REMARK    7  A    between atoms: N_20  and  C_19 
REMARK       I    between atoms: C_22  and  N_20 
ROOT
ATOM      1  C   LIG d   1      -2.443  76.956 114.578  0.00  0.00     0.161 C 
ATOM      2  C   LIG d   1      -3.793  76.733 114.257  0.00  0.00     0.016 C 
ATOM      3  C   LIG d   1      -4.610  75.800 114.937  0.00  0.00     0.038 C 
ATOM      4  C   LIG d   1      -4.173  75.132 116.090  0.00  0.00     0.028 C 
ATOM      5  C   LIG d   1      -2.660  74.950 116.146  0.00  0.00    -0.047 C 
ATOM      6  C   LIG d   1      -1.980  76.317 115.904  0.00  0.00     0.091 C 
ENDROOT
BRANCH   1   7
ATOM      7  O   LIG d   1      -2.169  78.371 114.581  0.00  0.00    -0.368 OA
BRANCH   7   8
ATOM      8  C   LIG d   1      -1.707  78.933 113.329  0.00  0.00     0.119 C 
BRANCH   8   9
ATOM      9  C   LIG d   1      -2.895  79.677 112.689  0.00  0.00     0.028 C 
ATOM     10  C   LIG d   1      -2.817  81.198 112.899  0.00  0.00     0.006 C 
ENDBRANCH   8   9
BRANCH   8  11
ATOM     11  C   LIG d   1      -1.330  77.834 112.330  0.00  0.00     0.028 C 
ATOM     12  C   LIG d   1      -1.972  78.040 110.949  0.00  0.00     0.006 C 
ENDBRANCH   8  11
ENDBRANCH   7   8
ENDBRANCH   1   7
BRANCH   6  13
ATOM     13  N   LIG d   1      -0.498  76.213 115.860  0.00  0.00    -0.311 N 
ATOM     14  C   LIG d   1       0.283  76.408 116.921  0.00  0.00     0.210 C 
ATOM     15  C   LIG d   1       1.785  76.272 116.653  0.00  0.00     0.109 C 
ATOM     16  O   LIG d   1      -0.128  76.649 118.066  0.00  0.00    -0.276 OA
ATOM     17  H   LIG d   1      -0.083  75.990 114.977  0.00  0.00     0.149 HD
ENDBRANCH   6  13
BRANCH   5  18
ATOM     18  N   LIG d   1      -2.330  74.365 117.460  0.00  0.00     0.381 N 
ATOM     19  H   LIG d   1      -1.555  73.739 117.367  0.00  0.00    -0.090 HD
ATOM     20  H   LIG d   1      -3.121  73.840 117.790  0.00  0.00    -0.090 HD
ATOM     21  H   LIG d   1      -2.108  75.087 118.109  0.00  0.00    -0.090 HD
ENDBRANCH   5  18
BRANCH   3  22
ATOM     22  C   LIG d   1      -5.869  75.499 114.439  0.00  0.00     0.382 C 
ATOM     23  O   LIG d   1      -6.381  76.222 113.549  0.00  0.00    -0.241 OA
ATOM     24  O   LIG d   1      -6.518  74.541 114.899  0.00  0.00    -0.241 OA
ENDBRANCH   3  22
TORSDOF 7
ENDMDL
MODEL 8
REMARK VINA RESULT:      -5.1      9.395     12.320
REMARK  7 active torsions:
REMARK  status: ('A' for Active; 'I' for Inactive)
REMARK    1  A    between atoms: C_2  and  C_3 
REMARK    2  A    between atoms: C_3  and  O_6 
REMARK    3  A    between atoms: C_3  and  C_4 
REMARK    4  A    between atoms: C_7  and  O_6 
REMARK    5  A    between atoms: C_9  and  C_10 
REMARK    6  A    between atoms: N_15  and  C_14 
REMARK    7  A    between atoms: N_20  and  C_19 
REMARK       I    between atoms: C_22  and  N_20 
ROOT
ATOM      1  C   LIG d   1      -3.753  76.139 114.542  0.00  0.00     0.161 C 
ATOM      2  C   LIG d   1      -4.657  76.570 113.557  0.00  0.00     0.016 C 
ATOM      3  C   LIG d   1      -6.020  76.194 113.535  0.00  0.00     0.038 C 
ATOM      4  C   LIG d   1      -6.609  75.478 114.588  0.00  0.00     0.028 C 
ATOM      5  C   LIG d   1      -5.624  74.596 115.347  0.00  0.00    -0.047 C 
ATOM      6  C   LIG d   1      -4.402  75.449 115.760  0.00  0.00     0.091 C 
ENDROOT
BRANCH   1   7
ATOM      7  O   LIG d   1      -2.934  77.245 114.971  0.00  0.00    -0.368 OA
BRANCH   7   8
ATOM      8  C   LIG d   1      -1.703  77.450 114.234  0.00  0.00     0.119 C 
BRANCH   8   9
ATOM      9  C   LIG d   1      -0.550  77.473 115.256  0.00  0.00     0.028 C 
ATOM     10  C   LIG d   1       0.267  76.170 115.248  0.00  0.00     0.006 C 
ENDBRANCH   8   9
BRANCH   8  11
ATOM     11  C   LIG d   1      -1.678  78.827 113.564  0.00  0.00     0.028 C 
ATOM     12  C   LIG d   1      -1.988  78.763 112.060  0.00  0.00     0.006 C 
ENDBRANCH   8  11
ENDBRANCH   7   8
ENDBRANCH   1   7
BRANCH   6  13
ATOM     13  N   LIG d   1      -3.351  74.643 116.434  0.00  0.00    -0.311 N 
ATOM     14  C   LIG d   1      -2.649  75.081 117.478  0.00  0.00     0.210 C 
ATOM     15  C   LIG d   1      -1.600  74.100 118.009  0.00  0.00     0.109 C 
ATOM     16  O   LIG d   1      -2.817  76.177 118.034  0.00  0.00    -0.276 OA
ATOM     17  H   LIG d   1      -3.171  73.729 116.067  0.00  0.00     0.149 HD
ENDBRANCH   6  13
BRANCH   5  18
ATOM     18  N   LIG d   1      -6.340  74.017 116.499  0.00  0.00     0.381 N 
ATOM     19  H   LIG d   1      -6.559  74.736 117.159  0.00  0.00    -0.090 HD
ATOM     20  H   LIG d   1      -5.743  73.346 116.949  0.00  0.00    -0.090 HD
ATOM     21  H   LIG d   1      -7.178  73.573 116.191  0.00  0.00    -0.090 HD
ENDBRANCH   5  18
BRANCH   3  22
ATOM     22  C   LIG d   1      -6.799  76.500 112.429  0.00  0.00     0.382 C 
ATOM     23  O   LIG d   1      -6.253  76.755 111.329  0.00  0.00    -0.241 OA
ATOM     24  O   LIG d   1      -8.039  76.569 112.530  0.00  0.00    -0.241 OA
ENDBRANCH   3  22
TORSDOF 7
ENDMDL
MODEL 9
REMARK VINA RESULT:      -5.1      2.325      2.925
REMARK  7 active torsions:
REMARK  status: ('A' for Active; 'I' for Inactive)
REMARK    1  A    between atoms: C_2  and  C_3 
REMARK    2  A    between atoms: C_3  and  O_6 
REMARK    3  A    between atoms: C_3  and  C_4 
REMARK    4  A    between atoms: C_7  and  O_6 
REMARK    5  A    between atoms: C_9  and  C_10 
REMARK    6  A    between atoms: N_15  and  C_14 
REMARK    7  A    between atoms: N_20  and  C_19 
REMARK       I    between atoms: C_22  and  N_20 
ROOT
ATOM      1  C   LIG d   1       3.698  85.416 113.276  0.00  0.00     0.161 C 
ATOM      2  C   LIG d   1       4.024  86.766 113.068  0.00  0.00     0.016 C 
ATOM      3  C   LIG d   1       4.445  87.633 114.103  0.00  0.00     0.038 C 
ATOM      4  C   LIG d   1       4.715  87.166 115.398  0.00  0.00     0.028 C 
ATOM      5  C   LIG d   1       3.917  85.921 115.771  0.00  0.00    -0.047 C 
ATOM      6  C   LIG d   1       4.093  84.861 114.661  0.00  0.00     0.091 C 
ENDROOT
BRANCH   1   7
ATOM      7  O   LIG d   1       4.273  84.608 112.230  0.00  0.00    -0.368 OA
BRANCH   7   8
ATOM      8  C   LIG d   1       3.333  83.918 111.369  0.00  0.00     0.119 C 
BRANCH   8   9
ATOM      9  C   LIG d   1       3.974  82.576 110.966  0.00  0.00     0.028 C 
ATOM     10  C   LIG d   1       4.999  82.081 112.001  0.00  0.00     0.006 C 
ENDBRANCH   8   9
BRANCH   8  11
ATOM     11  C   LIG d   1       3.122  84.676 110.055  0.00  0.00     0.028 C 
ATOM     12  C   LIG d   1       1.838  85.522 110.055  0.00  0.00     0.006 C 
ENDBRANCH   8  11
ENDBRANCH   7   8
ENDBRANCH   1   7
BRANCH   6  13
ATOM     13  N   LIG d   1       3.278  83.642 114.906  0.00  0.00    -0.311 N 
ATOM     14  C   LIG d   1       3.746  82.560 115.526  0.00  0.00     0.210 C 
ATOM     15  C   LIG d   1       2.745  81.407 115.657  0.00  0.00     0.109 C 
ATOM     16  O   LIG d   1       4.884  82.457 116.007  0.00  0.00    -0.276 OA
ATOM     17  H   LIG d   1       2.333  83.652 114.577  0.00  0.00     0.149 HD
ENDBRANCH   6  13
BRANCH   5  18
ATOM     18  N   LIG d   1       4.397  85.464 117.089  0.00  0.00     0.381 N 
ATOM     19  H   LIG d   1       4.867  86.213 117.557  0.00  0.00    -0.090 HD
ATOM     20  H   LIG d   1       5.053  84.715 116.954  0.00  0.00    -0.090 HD
ATOM     21  H   LIG d   1       3.629  85.148 117.640  0.00  0.00    -0.090 HD
ENDBRANCH   5  18
BRANCH   3  22
ATOM     22  C   LIG d   1       4.561  88.993 113.855  0.00  0.00     0.382 C 
ATOM     23  O   LIG d   1       4.701  89.794 114.811  0.00  0.00    -0.241 OA
ATOM     24  O   LIG d   1       4.485  89.432 112.692  0.00  0.00    -0.241 OA
ENDBRANCH   3  22
TORSDOF 7
ENDMDL
