MODEL 1
REMARK VINA RESULT:      -5.6      0.000      0.000
REMARK  7 active torsions:
REMARK  status: ('A' for Active; 'I' for Inactive)
REMARK    1  A    between atoms: C_2  and  C_3 
REMARK    2  A    between atoms: C_3  and  O_6 
REMARK    3  A    between atoms: C_3  and  C_4 
REMARK    4  A    between atoms: C_7  and  O_6 
REMARK    5  A    between atoms: C_9  and  C_10 
REMARK    6  A    between atoms: N_15  and  C_14 
REMARK    7  A    between atoms: N_20  and  C_19 
REMARK       I    between atoms: C_22  and  N_20 
ROOT
ATOM      1  C   LIG d   1      -0.226  83.769 112.522  0.00  0.00     0.161 C 
ATOM      2  C   LIG d   1      -1.352  82.991 112.840  0.00  0.00     0.016 C 
ATOM      3  C   LIG d   1      -1.449  81.609 112.558  0.00  0.00     0.038 C 
ATOM      4  C   LIG d   1      -0.357  80.874 112.072  0.00  0.00     0.028 C 
ATOM      5  C   LIG d   1       0.629  81.714 111.267  0.00  0.00    -0.047 C 
ATOM      6  C   LIG d   1       1.017  82.961 112.093  0.00  0.00     0.091 C 
ENDROOT
BRANCH   1   7
ATOM      7  O   LIG d   1       0.097  84.636 113.628  0.00  0.00    -0.368 OA
BRANCH   7   8
ATOM      8  C   LIG d   1      -0.435  84.248 114.918  0.00  0.00     0.119 C 
BRANCH   8   9
ATOM      9  C   LIG d   1      -1.027  85.512 115.573  0.00  0.00     0.028 C 
ATOM     10  C   LIG d   1      -0.484  85.746 116.993  0.00  0.00     0.006 C 
ENDBRANCH   8   9
BRANCH   8  11
ATOM     11  C   LIG d   1       0.677  83.785 115.863  0.00  0.00     0.028 C 
ATOM     12  C   LIG d   1       0.957  82.277 115.759  0.00  0.00     0.006 C 
ENDBRANCH   8  11
ENDBRANCH   7   8
ENDBRANCH   1   7
BRANCH   6  13
ATOM     13  N   LIG d   1       1.914  83.880 111.345  0.00  0.00    -0.311 N 
ATOM     14  C   LIG d   1       2.959  84.495 111.896  0.00  0.00     0.210 C 
ATOM     15  C   LIG d   1       3.739  85.415 110.953  0.00  0.00     0.109 C 
ATOM     16  O   LIG d   1       3.332  84.341 113.069  0.00  0.00    -0.276 OA
ATOM     17  H   LIG d   1       1.702  84.037 110.379  0.00  0.00     0.149 HD
ENDBRANCH   6  13
BRANCH   5  18
ATOM     18  N   LIG d   1       1.782  80.855 110.940  0.00  0.00     0.381 N 
ATOM     19  H   LIG d   1       2.521  81.411 110.557  0.00  0.00    -0.090 HD
ATOM     20  H   LIG d   1       1.502  80.183 110.248  0.00  0.00    -0.090 HD
ATOM     21  H   LIG d   1       2.101  80.385 111.759  0.00  0.00    -0.090 HD
ENDBRANCH   5  18
BRANCH   3  22
ATOM     22  C   LIG d   1      -2.661  80.957 112.725  0.00  0.00     0.382 C 
ATOM     23  O   LIG d   1      -3.720  81.485 112.308  0.00  0.00    -0.241 OA
ATOM     24  O   LIG d   1      -2.714  79.868 113.327  0.00  0.00    -0.241 OA
ENDBRANCH   3  22
TORSDOF 7
ENDMDL
MODEL 2
REMARK VINA RESULT:      -5.6      3.379      6.853
REMARK  7 active torsions:
REMARK  status: ('A' for Active; 'I' for Inactive)
REMARK    1  A    between atoms: C_2  and  C_3 
REMARK    2  A    between atoms: C_3  and  O_6 
REMARK    3  A    between atoms: C_3  and  C_4 
REMARK    4  A    between atoms: C_7  and  O_6 
REMARK    5  A    between atoms: C_9  and  C_10 
REMARK    6  A    between atoms: N_15  and  C_14 
REMARK    7  A    between atoms: N_20  and  C_19 
REMARK       I    between atoms: C_22  and  N_20 
ROOT
ATOM      1  C   LIG d   1       2.212  86.412 112.218  0.00  0.00     0.161 C 
ATOM      2  C   LIG d   1       3.106  87.490 112.110  0.00  0.00     0.016 C 
ATOM      3  C   LIG d   1       3.844  88.002 113.202  0.00  0.00     0.038 C 
ATOM      4  C   LIG d   1       3.850  87.369 114.454  0.00  0.00     0.028 C 
ATOM      5  C   LIG d   1       2.576  86.583 114.742  0.00  0.00    -0.047 C 
ATOM      6  C   LIG d   1       2.289  85.639 113.551  0.00  0.00     0.091 C 
ENDROOT
BRANCH   1   7
ATOM      7  O   LIG d   1       2.393  85.513 111.106  0.00  0.00    -0.368 OA
BRANCH   7   8
ATOM      8  C   LIG d   1       1.373  85.557 110.078  0.00  0.00     0.119 C 
BRANCH   8   9
ATOM      9  C   LIG d   1       0.382  86.675 110.457  0.00  0.00     0.028 C 
ATOM     10  C   LIG d   1      -1.071  86.174 110.522  0.00  0.00     0.006 C 
ENDBRANCH   8   9
BRANCH   8  11
ATOM     11  C   LIG d   1       0.544  84.270 110.060  0.00  0.00     0.028 C 
ATOM     12  C   LIG d   1       1.413  83.002 110.058  0.00  0.00     0.006 C 
ENDBRANCH   8  11
ENDBRANCH   7   8
ENDBRANCH   1   7
BRANCH   6  13
ATOM     13  N   LIG d   1       1.014  84.893 113.713  0.00  0.00    -0.311 N 
ATOM     14  C   LIG d   1       0.937  83.564 113.712  0.00  0.00     0.210 C 
ATOM     15  C   LIG d   1      -0.478  82.998 113.874  0.00  0.00     0.109 C 
ATOM     16  O   LIG d   1       1.909  82.799 113.625  0.00  0.00    -0.276 OA
ATOM     17  H   LIG d   1       0.179  85.436 113.821  0.00  0.00     0.149 HD
ENDBRANCH   6  13
BRANCH   5  18
ATOM     18  N   LIG d   1       2.773  85.864 116.015  0.00  0.00     0.381 N 
ATOM     19  H   LIG d   1       2.957  86.519 116.748  0.00  0.00    -0.090 HD
ATOM     20  H   LIG d   1       3.570  85.258 115.926  0.00  0.00    -0.090 HD
ATOM     21  H   LIG d   1       1.962  85.328 116.233  0.00  0.00    -0.090 HD
ENDBRANCH   5  18
BRANCH   3  22
ATOM     22  C   LIG d   1       4.555  89.183 113.057  0.00  0.00     0.382 C 
ATOM     23  O   LIG d   1       3.981  90.286 113.226  0.00  0.00    -0.241 OA
ATOM     24  O   LIG d   1       5.753  89.162 112.717  0.00  0.00    -0.241 OA
ENDBRANCH   3  22
TORSDOF 7
ENDMDL
MODEL 3
REMARK VINA RESULT:      -5.4      2.762      4.772
REMARK  7 active torsions:
REMARK  status: ('A' for Active; 'I' for Inactive)
REMARK    1  A    between atoms: C_2  and  C_3 
REMARK    2  A    between atoms: C_3  and  O_6 
REMARK    3  A    between atoms: C_3  and  C_4 
REMARK    4  A    between atoms: C_7  and  O_6 
REMARK    5  A    between atoms: C_9  and  C_10 
REMARK    6  A    between atoms: N_15  and  C_14 
REMARK    7  A    between atoms: N_20  and  C_19 
REMARK       I    between atoms: C_22  and  N_20 
ROOT
ATOM      1  C   LIG d   1       2.015  84.174 113.518  0.00  0.00     0.161 C 
ATOM      2  C   LIG d   1       1.057  83.520 112.726  0.00  0.00     0.016 C 
ATOM      3  C   LIG d   1      -0.335  83.737 112.851  0.00  0.00     0.038 C 
ATOM      4  C   LIG d   1      -0.857  84.742 113.679  0.00  0.00     0.028 C 
ATOM      5  C   LIG d   1       0.041  85.078 114.865  0.00  0.00    -0.047 C 
ATOM      6  C   LIG d   1       1.471  85.355 114.349  0.00  0.00     0.091 C 
ENDROOT
BRANCH   1   7
ATOM      7  O   LIG d   1       3.116  84.607 112.694  0.00  0.00    -0.368 OA
BRANCH   7   8
ATOM      8  C   LIG d   1       3.022  85.949 112.157  0.00  0.00     0.119 C 
BRANCH   8   9
ATOM      9  C   LIG d   1       2.487  85.834 110.716  0.00  0.00     0.028 C 
ATOM     10  C   LIG d   1       1.176  86.612 110.512  0.00  0.00     0.006 C 
ENDBRANCH   8   9
BRANCH   8  11
ATOM     11  C   LIG d   1       4.404  86.596 112.026  0.00  0.00     0.028 C 
ATOM     12  C   LIG d   1       4.492  87.959 112.729  0.00  0.00     0.006 C 
ENDBRANCH   8  11
ENDBRANCH   7   8
ENDBRANCH   1   7
BRANCH   6  13
ATOM     13  N   LIG d   1       2.433  85.610 115.453  0.00  0.00    -0.311 N 
ATOM     14  C   LIG d   1       2.740  86.829 115.891  0.00  0.00     0.210 C 
ATOM     15  C   LIG d   1       3.770  86.869 117.024  0.00  0.00     0.109 C 
ATOM     16  O   LIG d   1       2.234  87.880 115.470  0.00  0.00    -0.276 OA
ATOM     17  H   LIG d   1       2.867  84.811 115.872  0.00  0.00     0.149 HD
ENDBRANCH   6  13
BRANCH   5  18
ATOM     18  N   LIG d   1      -0.556  86.232 115.563  0.00  0.00     0.381 N 
ATOM     19  H   LIG d   1       0.120  86.964 115.647  0.00  0.00    -0.090 HD
ATOM     20  H   LIG d   1      -0.828  85.947 116.488  0.00  0.00    -0.090 HD
ATOM     21  H   LIG d   1      -1.352  86.560 115.061  0.00  0.00    -0.090 HD
ENDBRANCH   5  18
BRANCH   3  22
ATOM     22  C   LIG d   1      -1.222  82.915 112.173  0.00  0.00     0.382 C 
ATOM     23  O   LIG d   1      -1.088  82.733 110.938  0.00  0.00    -0.241 OA
ATOM     24  O   LIG d   1      -2.180  82.390 112.770  0.00  0.00    -0.241 OA
ENDBRANCH   3  22
TORSDOF 7
ENDMDL
MODEL 4
REMARK VINA RESULT:      -5.1      1.935      4.988
REMARK  7 active torsions:
REMARK  status: ('A' for Active; 'I' for Inactive)
REMARK    1  A    between atoms: C_2  and  C_3 
REMARK    2  A    between atoms: C_3  and  O_6 
REMARK    3  A    between atoms: C_3  and  C_4 
REMARK    4  A    between atoms: C_7  and  O_6 
REMARK    5  A    between atoms: C_9  and  C_10 
REMARK    6  A    between atoms: N_15  and  C_14 
REMARK    7  A    between atoms: N_20  and  C_19 
REMARK       I    between atoms: C_22  and  N_20 
ROOT
ATOM      1  C   LIG d   1       1.145  83.815 113.691  0.00  0.00     0.161 C 
ATOM      2  C   LIG d   1       1.841  84.993 113.372  0.00  0.00     0.016 C 
ATOM      3  C   LIG d   1       1.753  85.632 112.114  0.00  0.00     0.038 C 
ATOM      4  C   LIG d   1       0.840  85.216 111.133  0.00  0.00     0.028 C 
ATOM      5  C   LIG d   1       0.486  83.735 111.224  0.00  0.00    -0.047 C 
ATOM      6  C   LIG d   1       0.059  83.409 112.673  0.00  0.00     0.091 C 
ENDROOT
BRANCH   1   7
ATOM      7  O   LIG d   1       0.577  83.925 115.012  0.00  0.00    -0.368 OA
BRANCH   7   8
ATOM      8  C   LIG d   1       0.375  85.271 115.508  0.00  0.00     0.119 C 
BRANCH   8   9
ATOM      9  C   LIG d   1       0.875  85.308 116.965  0.00  0.00     0.028 C 
ATOM     10  C   LIG d   1       1.298  83.920 117.475  0.00  0.00     0.006 C 
ENDBRANCH   8   9
BRANCH   8  11
ATOM     11  C   LIG d   1      -1.115  85.619 115.582  0.00  0.00     0.028 C 
ATOM     12  C   LIG d   1      -1.501  86.310 116.900  0.00  0.00     0.006 C 
ENDBRANCH   8  11
ENDBRANCH   7   8
ENDBRANCH   1   7
BRANCH   6  13
ATOM     13  N   LIG d   1      -0.223  81.963 112.869  0.00  0.00    -0.311 N 
ATOM     14  C   LIG d   1      -1.422  81.417 112.675  0.00  0.00     0.210 C 
ATOM     15  C   LIG d   1      -1.501  79.913 112.953  0.00  0.00     0.109 C 
ATOM     16  O   LIG d   1      -2.421  82.030 112.268  0.00  0.00    -0.276 OA
ATOM     17  H   LIG d   1       0.539  81.386 113.168  0.00  0.00     0.149 HD
ENDBRANCH   6  13
BRANCH   5  18
ATOM     18  N   LIG d   1      -0.575  83.469 110.234  0.00  0.00     0.381 N 
ATOM     19  H   LIG d   1      -1.457  83.386 110.698  0.00  0.00    -0.090 HD
ATOM     20  H   LIG d   1      -0.377  82.599 109.772  0.00  0.00    -0.090 HD
ATOM     21  H   LIG d   1      -0.611  84.207 109.566  0.00  0.00    -0.090 HD
ENDBRANCH   5  18
BRANCH   3  22
ATOM     22  C   LIG d   1       2.614  86.676 111.812  0.00  0.00     0.382 C 
ATOM     23  O   LIG d   1       2.151  87.795 111.482  0.00  0.00    -0.241 OA
ATOM     24  O   LIG d   1       3.847  86.501 111.821  0.00  0.00    -0.241 OA
ENDBRANCH   3  22
TORSDOF 7
ENDMDL
MODEL 5
REMARK VINA RESULT:      -4.8      2.888      6.211
REMARK  7 active torsions:
REMARK  status: ('A' for Active; 'I' for Inactive)
REMARK    1  A    between atoms: C_2  and  C_3 
REMARK    2  A    between atoms: C_3  and  O_6 
REMARK    3  A    between atoms: C_3  and  C_4 
REMARK    4  A    between atoms: C_7  and  O_6 
REMARK    5  A    between atoms: C_9  and  C_10 
REMARK    6  A    between atoms: N_15  and  C_14 
REMARK    7  A    between atoms: N_20  and  C_19 
REMARK       I    between atoms: C_22  and  N_20 
ROOT
ATOM      1  C   LIG d   1       2.194  86.379 114.544  0.00  0.00     0.161 C 
ATOM      2  C   LIG d   1       3.001  87.509 114.330  0.00  0.00     0.016 C 
ATOM      3  C   LIG d   1       3.436  87.923 113.049  0.00  0.00     0.038 C 
ATOM      4  C   LIG d   1       2.964  87.319 111.875  0.00  0.00     0.028 C 
ATOM      5  C   LIG d   1       2.550  85.863 112.067  0.00  0.00    -0.047 C 
ATOM      6  C   LIG d   1       1.579  85.772 113.266  0.00  0.00     0.091 C 
ENDROOT
BRANCH   1   7
ATOM      7  O   LIG d   1       1.160  86.692 115.498  0.00  0.00    -0.368 OA
BRANCH   7   8
ATOM      8  C   LIG d   1       1.266  86.042 116.789  0.00  0.00     0.119 C 
BRANCH   8   9
ATOM      9  C   LIG d   1      -0.043  85.264 117.024  0.00  0.00     0.028 C 
ATOM     10  C   LIG d   1      -1.249  85.923 116.333  0.00  0.00     0.006 C 
ENDBRANCH   8   9
BRANCH   8  11
ATOM     11  C   LIG d   1       1.339  87.067 117.924  0.00  0.00     0.028 C 
ATOM     12  C   LIG d   1       1.156  88.512 117.435  0.00  0.00     0.006 C 
ENDBRANCH   8  11
ENDBRANCH   7   8
ENDBRANCH   1   7
BRANCH   6  13
ATOM     13  N   LIG d   1       1.190  84.372 113.575  0.00  0.00    -0.311 N 
ATOM     14  C   LIG d   1      -0.056  83.915 113.466  0.00  0.00     0.210 C 
ATOM     15  C   LIG d   1      -0.243  82.445 113.854  0.00  0.00     0.109 C 
ATOM     16  O   LIG d   1      -1.019  84.580 113.054  0.00  0.00    -0.276 OA
ATOM     17  H   LIG d   1       1.915  83.755 113.887  0.00  0.00     0.149 HD
ENDBRANCH   6  13
BRANCH   5  18
ATOM     18  N   LIG d   1       1.951  85.400 110.801  0.00  0.00     0.381 N 
ATOM     19  H   LIG d   1       1.133  84.857 110.992  0.00  0.00    -0.090 HD
ATOM     20  H   LIG d   1       2.614  84.814 110.323  0.00  0.00    -0.090 HD
ATOM     21  H   LIG d   1       1.714  86.181 110.230  0.00  0.00    -0.090 HD
ENDBRANCH   5  18
BRANCH   3  22
ATOM     22  C   LIG d   1       4.384  88.929 112.938  0.00  0.00     0.382 C 
ATOM     23  O   LIG d   1       4.059  90.123 113.145  0.00  0.00    -0.241 OA
ATOM     24  O   LIG d   1       5.549  88.663 112.588  0.00  0.00    -0.241 OA
ENDBRANCH   3  22
TORSDOF 7
ENDMDL
MODEL 6
REMARK VINA RESULT:      -4.8      3.059      4.898
REMARK  7 active torsions:
REMARK  status: ('A' for Active; 'I' for Inactive)
REMARK    1  A    between atoms: C_2  and  C_3 
REMARK    2  A    between atoms: C_3  and  O_6 
REMARK    3  A    between atoms: C_3  and  C_4 
REMARK    4  A    between atoms: C_7  and  O_6 
REMARK    5  A    between atoms: C_9  and  C_10 
REMARK    6  A    between atoms: N_15  and  C_14 
REMARK    7  A    between atoms: N_20  and  C_19 
REMARK       I    between atoms: C_22  and  N_20 
ROOT
ATOM      1  C   LIG d   1       1.346  85.522 113.941  0.00  0.00     0.161 C 
ATOM      2  C   LIG d   1       1.988  84.753 114.927  0.00  0.00     0.016 C 
ATOM      3  C   LIG d   1       1.892  83.344 114.999  0.00  0.00     0.038 C 
ATOM      4  C   LIG d   1       1.267  82.591 113.995  0.00  0.00     0.028 C 
ATOM      5  C   LIG d   1       0.176  83.357 113.253  0.00  0.00    -0.047 C 
ATOM      6  C   LIG d   1       0.751  84.709 112.773  0.00  0.00     0.091 C 
ENDROOT
BRANCH   1   7
ATOM      7  O   LIG d   1       2.249  86.529 113.443  0.00  0.00    -0.368 OA
BRANCH   7   8
ATOM      8  C   LIG d   1       3.618  86.107 113.228  0.00  0.00     0.119 C 
BRANCH   8   9
ATOM      9  C   LIG d   1       4.536  87.196 113.817  0.00  0.00     0.028 C 
ATOM     10  C   LIG d   1       5.246  88.018 112.728  0.00  0.00     0.006 C 
ENDBRANCH   8   9
BRANCH   8  11
ATOM     11  C   LIG d   1       3.958  86.055 111.735  0.00  0.00     0.028 C 
ATOM     12  C   LIG d   1       3.983  84.623 111.179  0.00  0.00     0.006 C 
ENDBRANCH   8  11
ENDBRANCH   7   8
ENDBRANCH   1   7
BRANCH   6  13
ATOM     13  N   LIG d   1      -0.274  85.558 112.111  0.00  0.00    -0.311 N 
ATOM     14  C   LIG d   1      -0.152  86.019 110.867  0.00  0.00     0.210 C 
ATOM     15  C   LIG d   1      -1.315  86.892 110.385  0.00  0.00     0.109 C 
ATOM     16  O   LIG d   1       0.792  85.760 110.106  0.00  0.00    -0.276 OA
ATOM     17  H   LIG d   1      -1.088  85.790 112.645  0.00  0.00     0.149 HD
ENDBRANCH   6  13
BRANCH   5  18
ATOM     18  N   LIG d   1      -0.295  82.503 112.147  0.00  0.00     0.381 N 
ATOM     19  H   LIG d   1      -0.911  81.799 112.501  0.00  0.00    -0.090 HD
ATOM     20  H   LIG d   1       0.497  82.048 111.728  0.00  0.00    -0.090 HD
ATOM     21  H   LIG d   1      -0.768  83.057 111.466  0.00  0.00    -0.090 HD
ENDBRANCH   5  18
BRANCH   3  22
ATOM     22  C   LIG d   1       2.392  82.678 116.107  0.00  0.00     0.382 C 
ATOM     23  O   LIG d   1       1.724  82.636 117.168  0.00  0.00    -0.241 OA
ATOM     24  O   LIG d   1       3.523  82.156 116.074  0.00  0.00    -0.241 OA
ENDBRANCH   3  22
TORSDOF 7
ENDMDL
MODEL 7
REMARK VINA RESULT:      -4.6      3.053      6.133
REMARK  7 active torsions:
REMARK  status: ('A' for Active; 'I' for Inactive)
REMARK    1  A    between atoms: C_2  and  C_3 
REMARK    2  A    between atoms: C_3  and  O_6 
REMARK    3  A    between atoms: C_3  and  C_4 
REMARK    4  A    between atoms: C_7  and  O_6 
REMARK    5  A    between atoms: C_9  and  C_10 
REMARK    6  A    between atoms: N_15  and  C_14 
REMARK    7  A    between atoms: N_20  and  C_19 
REMARK       I    between atoms: C_22  and  N_20 
ROOT
ATOM      1  C   LIG d   1       1.402  85.050 113.828  0.00  0.00     0.161 C 
ATOM      2  C   LIG d   1       1.834  86.094 112.992  0.00  0.00     0.016 C 
ATOM      3  C   LIG d   1       3.111  86.692 113.092  0.00  0.00     0.038 C 
ATOM      4  C   LIG d   1       4.105  86.182 113.940  0.00  0.00     0.028 C 
ATOM      5  C   LIG d   1       3.546  85.453 115.158  0.00  0.00    -0.047 C 
ATOM      6  C   LIG d   1       2.512  84.406 114.685  0.00  0.00     0.091 C 
ENDROOT
BRANCH   1   7
ATOM      7  O   LIG d   1       0.727  84.045 113.046  0.00  0.00    -0.368 OA
BRANCH   7   8
ATOM      8  C   LIG d   1       1.577  83.149 112.289  0.00  0.00     0.119 C 
BRANCH   8   9
ATOM      9  C   LIG d   1       1.180  83.277 110.805  0.00  0.00     0.028 C 
ATOM     10  C   LIG d   1      -0.192  83.947 110.621  0.00  0.00     0.006 C 
ENDBRANCH   8   9
BRANCH   8  11
ATOM     11  C   LIG d   1       1.311  81.686 112.655  0.00  0.00     0.028 C 
ATOM     12  C   LIG d   1       0.040  81.505 113.500  0.00  0.00     0.006 C 
ENDBRANCH   8  11
ENDBRANCH   7   8
ENDBRANCH   1   7
BRANCH   6  13
ATOM     13  N   LIG d   1       1.855  83.706 115.819  0.00  0.00    -0.311 N 
ATOM     14  C   LIG d   1       2.278  82.541 116.305  0.00  0.00     0.210 C 
ATOM     15  C   LIG d   1       1.446  81.982 117.464  0.00  0.00     0.109 C 
ATOM     16  O   LIG d   1       3.283  81.932 115.908  0.00  0.00    -0.276 OA
ATOM     17  H   LIG d   1       1.051  84.145 116.222  0.00  0.00     0.149 HD
ENDBRANCH   6  13
BRANCH   5  18
ATOM     18  N   LIG d   1       4.685  84.855 115.880  0.00  0.00     0.381 N 
ATOM     19  H   LIG d   1       4.365  84.442 116.733  0.00  0.00    -0.090 HD
ATOM     20  H   LIG d   1       5.342  85.581 116.108  0.00  0.00    -0.090 HD
ATOM     21  H   LIG d   1       5.125  84.165 115.312  0.00  0.00    -0.090 HD
ENDBRANCH   5  18
BRANCH   3  22
ATOM     22  C   LIG d   1       3.391  87.839 112.365  0.00  0.00     0.382 C 
ATOM     23  O   LIG d   1       4.496  87.959 111.783  0.00  0.00    -0.241 OA
ATOM     24  O   LIG d   1       2.569  88.775 112.320  0.00  0.00    -0.241 OA
ENDBRANCH   3  22
TORSDOF 7
ENDMDL
MODEL 8
REMARK VINA RESULT:      -4.5     11.143     13.883
REMARK  7 active torsions:
REMARK  status: ('A' for Active; 'I' for Inactive)
REMARK    1  A    between atoms: C_2  and  C_3 
REMARK    2  A    between atoms: C_3  and  O_6 
REMARK    3  A    between atoms: C_3  and  C_4 
REMARK    4  A    between atoms: C_7  and  O_6 
REMARK    5  A    between atoms: C_9  and  C_10 
REMARK    6  A    between atoms: N_15  and  C_14 
REMARK    7  A    between atoms: N_20  and  C_19 
REMARK       I    between atoms: C_22  and  N_20 
ROOT
ATOM      1  C   LIG d   1      13.595  80.365 113.692  0.00  0.00     0.161 C 
ATOM      2  C   LIG d   1      14.393  80.117 112.563  0.00  0.00     0.016 C 
ATOM      3  C   LIG d   1      14.549  78.835 111.987  0.00  0.00     0.038 C 
ATOM      4  C   LIG d   1      13.792  77.733 112.413  0.00  0.00     0.028 C 
ATOM      5  C   LIG d   1      13.354  77.827 113.870  0.00  0.00    -0.047 C 
ATOM      6  C   LIG d   1      12.675  79.196 114.102  0.00  0.00     0.091 C 
ENDROOT
BRANCH   1   7
ATOM      7  O   LIG d   1      12.821  81.564 113.489  0.00  0.00    -0.368 OA
BRANCH   7   8
ATOM      8  C   LIG d   1      11.491  81.380 112.945  0.00  0.00     0.119 C 
BRANCH   8   9
ATOM      9  C   LIG d   1      11.512  81.887 111.490  0.00  0.00     0.028 C 
ATOM     10  C   LIG d   1      10.366  82.870 111.195  0.00  0.00     0.006 C 
ENDBRANCH   8   9
BRANCH   8  11
ATOM     11  C   LIG d   1      10.467  82.262 113.667  0.00  0.00     0.028 C 
ATOM     12  C   LIG d   1      11.022  82.882 114.960  0.00  0.00     0.006 C 
ENDBRANCH   8  11
ENDBRANCH   7   8
ENDBRANCH   1   7
BRANCH   6  13
ATOM     13  N   LIG d   1      12.290  79.405 115.523  0.00  0.00    -0.311 N 
ATOM     14  C   LIG d   1      11.062  79.185 115.990  0.00  0.00     0.210 C 
ATOM     15  C   LIG d   1      10.875  79.482 117.481  0.00  0.00     0.109 C 
ATOM     16  O   LIG d   1      10.119  78.742 115.318  0.00  0.00    -0.276 OA
ATOM     17  H   LIG d   1      13.003  79.733 116.145  0.00  0.00     0.149 HD
ENDBRANCH   6  13
BRANCH   5  18
ATOM     18  N   LIG d   1      12.460  76.685 114.141  0.00  0.00     0.381 N 
ATOM     19  H   LIG d   1      11.758  76.628 113.431  0.00  0.00    -0.090 HD
ATOM     20  H   LIG d   1      12.004  76.832 115.024  0.00  0.00    -0.090 HD
ATOM     21  H   LIG d   1      12.986  75.839 114.167  0.00  0.00    -0.090 HD
ENDBRANCH   5  18
BRANCH   3  22
ATOM     22  C   LIG d   1      15.501  78.637 110.998  0.00  0.00     0.382 C 
ATOM     23  O   LIG d   1      15.270  77.842 110.055  0.00  0.00    -0.241 OA
ATOM     24  O   LIG d   1      16.605  79.211 111.060  0.00  0.00    -0.241 OA
ENDBRANCH   3  22
TORSDOF 7
ENDMDL
MODEL 9
REMARK VINA RESULT:      -4.5      9.890     12.209
REMARK  7 active torsions:
REMARK  status: ('A' for Active; 'I' for Inactive)
REMARK    1  A    between atoms: C_2  and  C_3 
REMARK    2  A    between atoms: C_3  and  O_6 
REMARK    3  A    between atoms: C_3  and  C_4 
REMARK    4  A    between atoms: C_7  and  O_6 
REMARK    5  A    between atoms: C_9  and  C_10 
REMARK    6  A    between atoms: N_15  and  C_14 
REMARK    7  A    between atoms: N_20  and  C_19 
REMARK       I    between atoms: C_22  and  N_20 
ROOT
ATOM      1  C   LIG d   1      11.908  80.058 114.571  0.00  0.00     0.161 C 
ATOM      2  C   LIG d   1      11.080  80.996 115.209  0.00  0.00     0.016 C 
ATOM      3  C   LIG d   1      10.544  82.130 114.558  0.00  0.00     0.038 C 
ATOM      4  C   LIG d   1      10.678  82.324 113.175  0.00  0.00     0.028 C 
ATOM      5  C   LIG d   1      11.927  81.672 112.591  0.00  0.00    -0.047 C 
ATOM      6  C   LIG d   1      11.975  80.193 113.035  0.00  0.00     0.091 C 
ENDROOT
BRANCH   1   7
ATOM      7  O   LIG d   1      11.510  78.723 114.940  0.00  0.00    -0.368 OA
BRANCH   7   8
ATOM      8  C   LIG d   1      10.540  78.620 116.011  0.00  0.00     0.119 C 
BRANCH   8   9
ATOM      9  C   LIG d   1      11.113  77.653 117.064  0.00  0.00     0.028 C 
ATOM     10  C   LIG d   1      10.322  76.336 117.145  0.00  0.00     0.006 C 
ENDBRANCH   8   9
BRANCH   8  11
ATOM     11  C   LIG d   1       9.241  77.969 115.527  0.00  0.00     0.028 C 
ATOM     12  C   LIG d   1       8.027  78.905 115.637  0.00  0.00     0.006 C 
ENDBRANCH   8  11
ENDBRANCH   7   8
ENDBRANCH   1   7
BRANCH   6  13
ATOM     13  N   LIG d   1      13.209  79.503 112.576  0.00  0.00    -0.311 N 
ATOM     14  C   LIG d   1      13.291  78.834 111.427  0.00  0.00     0.210 C 
ATOM     15  C   LIG d   1      14.649  78.180 111.155  0.00  0.00     0.109 C 
ATOM     16  O   LIG d   1      12.377  78.747 110.593  0.00  0.00    -0.276 OA
ATOM     17  H   LIG d   1      14.008  79.549 113.178  0.00  0.00     0.149 HD
ENDBRANCH   6  13
BRANCH   5  18
ATOM     18  N   LIG d   1      11.869  81.834 111.125  0.00  0.00     0.381 N 
ATOM     19  H   LIG d   1      12.587  81.285 110.696  0.00  0.00    -0.090 HD
ATOM     20  H   LIG d   1      12.032  82.799 110.898  0.00  0.00    -0.090 HD
ATOM     21  H   LIG d   1      10.977  81.551 110.786  0.00  0.00    -0.090 HD
ENDBRANCH   5  18
BRANCH   3  22
ATOM     22  C   LIG d   1       9.898  83.107 115.300  0.00  0.00     0.382 C 
ATOM     23  O   LIG d   1      10.382  84.262 115.373  0.00  0.00    -0.241 OA
ATOM     24  O   LIG d   1       8.860  82.836 115.934  0.00  0.00    -0.241 OA
ENDBRANCH   3  22
TORSDOF 7
ENDMDL
