MODEL 1
REMARK VINA RESULT:      -5.5      0.000      0.000
REMARK  7 active torsions:
REMARK  status: ('A' for Active; 'I' for Inactive)
REMARK    1  A    between atoms: C_2  and  C_3 
REMARK    2  A    between atoms: C_3  and  O_6 
REMARK    3  A    between atoms: C_3  and  C_4 
REMARK    4  A    between atoms: C_7  and  O_6 
REMARK    5  A    between atoms: C_9  and  C_10 
REMARK    6  A    between atoms: N_15  and  C_14 
REMARK    7  A    between atoms: N_20  and  C_19 
REMARK       I    between atoms: C_22  and  N_20 
ROOT
ATOM      1  C   LIG d   1       1.206  84.830 113.910  0.00  0.00     0.161 C 
ATOM      2  C   LIG d   1       1.636  85.974 113.217  0.00  0.00     0.016 C 
ATOM      3  C   LIG d   1       2.896  86.581 113.423  0.00  0.00     0.038 C 
ATOM      4  C   LIG d   1       3.879  85.993 114.234  0.00  0.00     0.028 C 
ATOM      5  C   LIG d   1       3.305  85.114 115.340  0.00  0.00    -0.047 C 
ATOM      6  C   LIG d   1       2.307  84.111 114.717  0.00  0.00     0.091 C 
ENDROOT
BRANCH   1   7
ATOM      7  O   LIG d   1       0.575  83.913 112.995  0.00  0.00    -0.368 OA
BRANCH   7   8
ATOM      8  C   LIG d   1       0.897  84.087 111.594  0.00  0.00     0.119 C 
BRANCH   8   9
ATOM      9  C   LIG d   1      -0.421  83.996 110.801  0.00  0.00     0.028 C 
ATOM     10  C   LIG d   1      -0.877  85.362 110.261  0.00  0.00     0.006 C 
ENDBRANCH   8   9
BRANCH   8  11
ATOM     11  C   LIG d   1       1.764  82.937 111.074  0.00  0.00     0.028 C 
ATOM     12  C   LIG d   1       3.163  83.397 110.633  0.00  0.00     0.006 C 
ENDBRANCH   8  11
ENDBRANCH   7   8
ENDBRANCH   1   7
BRANCH   6  13
ATOM     13  N   LIG d   1       1.636  83.268 115.741  0.00  0.00    -0.311 N 
ATOM     14  C   LIG d   1       2.143  82.123 116.194  0.00  0.00     0.210 C 
ATOM     15  C   LIG d   1       1.280  81.401 117.234  0.00  0.00     0.109 C 
ATOM     16  O   LIG d   1       3.240  81.652 115.857  0.00  0.00    -0.276 OA
ATOM     17  H   LIG d   1       0.756  83.592 116.093  0.00  0.00     0.149 HD
ENDBRANCH   6  13
BRANCH   5  18
ATOM     18  N   LIG d   1       4.437  84.457 116.020  0.00  0.00     0.381 N 
ATOM     19  H   LIG d   1       4.974  83.935 115.356  0.00  0.00    -0.090 HD
ATOM     20  H   LIG d   1       4.077  83.817 116.706  0.00  0.00    -0.090 HD
ATOM     21  H   LIG d   1       5.013  85.140 116.461  0.00  0.00    -0.090 HD
ENDBRANCH   5  18
BRANCH   3  22
ATOM     22  C   LIG d   1       3.169  87.811 112.845  0.00  0.00     0.382 C 
ATOM     23  O   LIG d   1       2.250  88.463 112.295  0.00  0.00    -0.241 OA
ATOM     24  O   LIG d   1       4.332  88.258 112.829  0.00  0.00    -0.241 OA
ENDBRANCH   3  22
TORSDOF 7
ENDMDL
MODEL 2
REMARK VINA RESULT:      -5.4      2.447      4.822
REMARK  7 active torsions:
REMARK  status: ('A' for Active; 'I' for Inactive)
REMARK    1  A    between atoms: C_2  and  C_3 
REMARK    2  A    between atoms: C_3  and  O_6 
REMARK    3  A    between atoms: C_3  and  C_4 
REMARK    4  A    between atoms: C_7  and  O_6 
REMARK    5  A    between atoms: C_9  and  C_10 
REMARK    6  A    between atoms: N_15  and  C_14 
REMARK    7  A    between atoms: N_20  and  C_19 
REMARK       I    between atoms: C_22  and  N_20 
ROOT
ATOM      1  C   LIG d   1       1.709  83.934 113.316  0.00  0.00     0.161 C 
ATOM      2  C   LIG d   1       2.309  85.203 113.255  0.00  0.00     0.016 C 
ATOM      3  C   LIG d   1       2.031  86.147 112.240  0.00  0.00     0.038 C 
ATOM      4  C   LIG d   1       1.015  85.942 111.294  0.00  0.00     0.028 C 
ATOM      5  C   LIG d   1       0.737  84.469 111.014  0.00  0.00    -0.047 C 
ATOM      6  C   LIG d   1       0.516  83.735 112.357  0.00  0.00     0.091 C 
ENDROOT
BRANCH   1   7
ATOM      7  O   LIG d   1       1.315  83.644 114.672  0.00  0.00    -0.368 OA
BRANCH   7   8
ATOM      8  C   LIG d   1       2.076  84.306 115.712  0.00  0.00     0.119 C 
BRANCH   8   9
ATOM      9  C   LIG d   1       2.935  83.234 116.411  0.00  0.00     0.028 C 
ATOM     10  C   LIG d   1       2.118  82.375 117.392  0.00  0.00     0.006 C 
ENDBRANCH   8   9
BRANCH   8  11
ATOM     11  C   LIG d   1       1.158  84.865 116.803  0.00  0.00     0.028 C 
ATOM     12  C   LIG d   1       0.888  86.369 116.641  0.00  0.00     0.006 C 
ENDBRANCH   8  11
ENDBRANCH   7   8
ENDBRANCH   1   7
BRANCH   6  13
ATOM     13  N   LIG d   1       0.321  82.273 112.179  0.00  0.00    -0.311 N 
ATOM     14  C   LIG d   1      -0.874  81.707 112.020  0.00  0.00     0.210 C 
ATOM     15  C   LIG d   1      -0.853  80.182 111.873  0.00  0.00     0.109 C 
ATOM     16  O   LIG d   1      -1.947  82.326 111.955  0.00  0.00    -0.276 OA
ATOM     17  H   LIG d   1       1.141  81.699 112.187  0.00  0.00     0.149 HD
ENDBRANCH   6  13
BRANCH   5  18
ATOM     18  N   LIG d   1      -0.433  84.399 110.118  0.00  0.00     0.381 N 
ATOM     19  H   LIG d   1      -1.133  83.808 110.521  0.00  0.00    -0.090 HD
ATOM     20  H   LIG d   1      -0.148  83.998 109.242  0.00  0.00    -0.090 HD
ATOM     21  H   LIG d   1      -0.804  85.312 109.970  0.00  0.00    -0.090 HD
ENDBRANCH   5  18
BRANCH   3  22
ATOM     22  C   LIG d   1       2.802  87.295 112.140  0.00  0.00     0.382 C 
ATOM     23  O   LIG d   1       3.975  87.225 111.700  0.00  0.00    -0.241 OA
ATOM     24  O   LIG d   1       2.355  88.392 112.524  0.00  0.00    -0.241 OA
ENDBRANCH   3  22
TORSDOF 7
ENDMDL
MODEL 3
REMARK VINA RESULT:      -5.2     11.247     13.890
REMARK  7 active torsions:
REMARK  status: ('A' for Active; 'I' for Inactive)
REMARK    1  A    between atoms: C_2  and  C_3 
REMARK    2  A    between atoms: C_3  and  O_6 
REMARK    3  A    between atoms: C_3  and  C_4 
REMARK    4  A    between atoms: C_7  and  O_6 
REMARK    5  A    between atoms: C_9  and  C_10 
REMARK    6  A    between atoms: N_15  and  C_14 
REMARK    7  A    between atoms: N_20  and  C_19 
REMARK       I    between atoms: C_22  and  N_20 
ROOT
ATOM      1  C   LIG d   1      -6.564  75.453 116.226  0.00  0.00     0.161 C 
ATOM      2  C   LIG d   1      -5.667  76.162 115.409  0.00  0.00     0.016 C 
ATOM      3  C   LIG d   1      -4.887  75.553 114.399  0.00  0.00     0.038 C 
ATOM      4  C   LIG d   1      -5.065  74.211 114.033  0.00  0.00     0.028 C 
ATOM      5  C   LIG d   1      -5.596  73.339 115.166  0.00  0.00    -0.047 C 
ATOM      6  C   LIG d   1      -6.853  74.009 115.767  0.00  0.00     0.091 C 
ENDROOT
BRANCH   1   7
ATOM      7  O   LIG d   1      -7.794  76.193 116.357  0.00  0.00    -0.368 OA
BRANCH   7   8
ATOM      8  C   LIG d   1      -8.114  76.668 117.688  0.00  0.00     0.119 C 
BRANCH   8   9
ATOM      9  C   LIG d   1      -9.635  76.906 117.741  0.00  0.00     0.028 C 
ATOM     10  C   LIG d   1     -10.428  75.804 117.019  0.00  0.00     0.006 C 
ENDBRANCH   8   9
BRANCH   8  11
ATOM     11  C   LIG d   1      -7.479  78.035 117.959  0.00  0.00     0.028 C 
ATOM     12  C   LIG d   1      -8.520  79.131 118.236  0.00  0.00     0.006 C 
ENDBRANCH   8  11
ENDBRANCH   7   8
ENDBRANCH   1   7
BRANCH   6  13
ATOM     13  N   LIG d   1      -7.387  73.264 116.937  0.00  0.00    -0.311 N 
ATOM     14  C   LIG d   1      -8.345  72.343 116.844  0.00  0.00     0.210 C 
ATOM     15  C   LIG d   1      -8.764  71.710 118.175  0.00  0.00     0.109 C 
ATOM     16  O   LIG d   1      -8.866  71.968 115.783  0.00  0.00    -0.276 OA
ATOM     17  H   LIG d   1      -6.999  73.483 117.833  0.00  0.00     0.149 HD
ENDBRANCH   6  13
BRANCH   5  18
ATOM     18  N   LIG d   1      -5.864  72.000 114.609  0.00  0.00     0.381 N 
ATOM     19  H   LIG d   1      -5.657  71.301 115.295  0.00  0.00    -0.090 HD
ATOM     20  H   LIG d   1      -5.266  71.851 113.816  0.00  0.00    -0.090 HD
ATOM     21  H   LIG d   1      -6.819  71.931 114.332  0.00  0.00    -0.090 HD
ENDBRANCH   5  18
BRANCH   3  22
ATOM     22  C   LIG d   1      -3.888  76.281 113.770  0.00  0.00     0.382 C 
ATOM     23  O   LIG d   1      -2.692  75.915 113.863  0.00  0.00    -0.241 OA
ATOM     24  O   LIG d   1      -4.164  77.324 113.146  0.00  0.00    -0.241 OA
ENDBRANCH   3  22
TORSDOF 7
ENDMDL
MODEL 4
REMARK VINA RESULT:      -5.1     11.090     13.101
REMARK  7 active torsions:
REMARK  status: ('A' for Active; 'I' for Inactive)
REMARK    1  A    between atoms: C_2  and  C_3 
REMARK    2  A    between atoms: C_3  and  O_6 
REMARK    3  A    between atoms: C_3  and  C_4 
REMARK    4  A    between atoms: C_7  and  O_6 
REMARK    5  A    between atoms: C_9  and  C_10 
REMARK    6  A    between atoms: N_15  and  C_14 
REMARK    7  A    between atoms: N_20  and  C_19 
REMARK       I    between atoms: C_22  and  N_20 
ROOT
ATOM      1  C   LIG d   1      -5.710  75.058 117.673  0.00  0.00     0.161 C 
ATOM      2  C   LIG d   1      -7.084  75.343 117.612  0.00  0.00     0.016 C 
ATOM      3  C   LIG d   1      -7.603  76.653 117.498  0.00  0.00     0.038 C 
ATOM      4  C   LIG d   1      -6.773  77.764 117.286  0.00  0.00     0.028 C 
ATOM      5  C   LIG d   1      -5.366  77.584 117.846  0.00  0.00    -0.047 C 
ATOM      6  C   LIG d   1      -4.787  76.247 117.331  0.00  0.00     0.091 C 
ENDROOT
BRANCH   1   7
ATOM      7  O   LIG d   1      -5.407  73.930 116.830  0.00  0.00    -0.368 OA
BRANCH   7   8
ATOM      8  C   LIG d   1      -6.229  73.779 115.647  0.00  0.00     0.119 C 
BRANCH   8   9
ATOM      9  C   LIG d   1      -6.589  72.286 115.521  0.00  0.00     0.028 C 
ATOM     10  C   LIG d   1      -7.953  71.956 116.150  0.00  0.00     0.006 C 
ENDBRANCH   8   9
BRANCH   8  11
ATOM     11  C   LIG d   1      -5.443  74.115 114.376  0.00  0.00     0.028 C 
ATOM     12  C   LIG d   1      -5.669  75.559 113.900  0.00  0.00     0.006 C 
ENDBRANCH   8  11
ENDBRANCH   7   8
ENDBRANCH   1   7
BRANCH   6  13
ATOM     13  N   LIG d   1      -3.446  75.953 117.899  0.00  0.00    -0.311 N 
ATOM     14  C   LIG d   1      -2.411  75.548 117.165  0.00  0.00     0.210 C 
ATOM     15  C   LIG d   1      -1.125  75.282 117.952  0.00  0.00     0.109 C 
ATOM     16  O   LIG d   1      -2.428  75.415 115.932  0.00  0.00    -0.276 OA
ATOM     17  H   LIG d   1      -3.335  76.065 118.888  0.00  0.00     0.149 HD
ENDBRANCH   6  13
BRANCH   5  18
ATOM     18  N   LIG d   1      -4.570  78.756 117.435  0.00  0.00     0.381 N 
ATOM     19  H   LIG d   1      -5.068  79.596 117.648  0.00  0.00    -0.090 HD
ATOM     20  H   LIG d   1      -4.426  78.718 116.441  0.00  0.00    -0.090 HD
ATOM     21  H   LIG d   1      -3.691  78.753 117.905  0.00  0.00    -0.090 HD
ENDBRANCH   5  18
BRANCH   3  22
ATOM     22  C   LIG d   1      -8.966  76.867 117.638  0.00  0.00     0.382 C 
ATOM     23  O   LIG d   1      -9.771  75.922 117.455  0.00  0.00    -0.241 OA
ATOM     24  O   LIG d   1      -9.404  78.003 117.901  0.00  0.00    -0.241 OA
ENDBRANCH   3  22
TORSDOF 7
ENDMDL
MODEL 5
REMARK VINA RESULT:      -5.0     11.700     14.479
REMARK  7 active torsions:
REMARK  status: ('A' for Active; 'I' for Inactive)
REMARK    1  A    between atoms: C_2  and  C_3 
REMARK    2  A    between atoms: C_3  and  O_6 
REMARK    3  A    between atoms: C_3  and  C_4 
REMARK    4  A    between atoms: C_7  and  O_6 
REMARK    5  A    between atoms: C_9  and  C_10 
REMARK    6  A    between atoms: N_15  and  C_14 
REMARK    7  A    between atoms: N_20  and  C_19 
REMARK       I    between atoms: C_22  and  N_20 
ROOT
ATOM      1  C   LIG d   1      -6.621  74.345 117.488  0.00  0.00     0.161 C 
ATOM      2  C   LIG d   1      -5.702  75.272 116.969  0.00  0.00     0.016 C 
ATOM      3  C   LIG d   1      -5.015  75.086 115.747  0.00  0.00     0.038 C 
ATOM      4  C   LIG d   1      -5.315  74.024 114.882  0.00  0.00     0.028 C 
ATOM      5  C   LIG d   1      -5.870  72.797 115.599  0.00  0.00    -0.047 C 
ATOM      6  C   LIG d   1      -7.044  73.233 116.505  0.00  0.00     0.091 C 
ENDROOT
BRANCH   1   7
ATOM      7  O   LIG d   1      -7.781  75.036 117.992  0.00  0.00    -0.368 OA
BRANCH   7   8
ATOM      8  C   LIG d   1      -8.146  76.256 117.301  0.00  0.00     0.119 C 
BRANCH   8   9
ATOM      9  C   LIG d   1      -8.005  77.416 118.305  0.00  0.00     0.028 C 
ATOM     10  C   LIG d   1      -7.040  78.507 117.809  0.00  0.00     0.006 C 
ENDBRANCH   8   9
BRANCH   8  11
ATOM     11  C   LIG d   1      -9.624  76.246 116.898  0.00  0.00     0.028 C 
ATOM     12  C   LIG d   1     -10.207  74.827 116.806  0.00  0.00     0.006 C 
ENDBRANCH   8  11
ENDBRANCH   7   8
ENDBRANCH   1   7
BRANCH   6  13
ATOM     13  N   LIG d   1      -7.589  72.107 117.307  0.00  0.00    -0.311 N 
ATOM     14  C   LIG d   1      -8.683  71.427 116.966  0.00  0.00     0.210 C 
ATOM     15  C   LIG d   1      -9.084  70.318 117.943  0.00  0.00     0.109 C 
ATOM     16  O   LIG d   1      -9.340  71.617 115.932  0.00  0.00    -0.276 OA
ATOM     17  H   LIG d   1      -7.100  71.866 118.146  0.00  0.00     0.149 HD
ENDBRANCH   6  13
BRANCH   5  18
ATOM     18  N   LIG d   1      -6.267  71.820 114.568  0.00  0.00     0.381 N 
ATOM     19  H   LIG d   1      -6.297  72.265 113.672  0.00  0.00    -0.090 HD
ATOM     20  H   LIG d   1      -7.188  71.479 114.781  0.00  0.00    -0.090 HD
ATOM     21  H   LIG d   1      -5.621  71.062 114.548  0.00  0.00    -0.090 HD
ENDBRANCH   5  18
BRANCH   3  22
ATOM     22  C   LIG d   1      -3.987  75.949 115.399  0.00  0.00     0.382 C 
ATOM     23  O   LIG d   1      -4.250  77.062 114.882  0.00  0.00    -0.241 OA
ATOM     24  O   LIG d   1      -2.799  75.610 115.553  0.00  0.00    -0.241 OA
ENDBRANCH   3  22
TORSDOF 7
ENDMDL
MODEL 6
REMARK VINA RESULT:      -4.9      2.152      4.220
REMARK  7 active torsions:
REMARK  status: ('A' for Active; 'I' for Inactive)
REMARK    1  A    between atoms: C_2  and  C_3 
REMARK    2  A    between atoms: C_3  and  O_6 
REMARK    3  A    between atoms: C_3  and  C_4 
REMARK    4  A    between atoms: C_7  and  O_6 
REMARK    5  A    between atoms: C_9  and  C_10 
REMARK    6  A    between atoms: N_15  and  C_14 
REMARK    7  A    between atoms: N_20  and  C_19 
REMARK       I    between atoms: C_22  and  N_20 
ROOT
ATOM      1  C   LIG d   1       3.583  85.306 114.257  0.00  0.00     0.161 C 
ATOM      2  C   LIG d   1       4.094  86.593 114.492  0.00  0.00     0.016 C 
ATOM      3  C   LIG d   1       3.756  87.720 113.707  0.00  0.00     0.038 C 
ATOM      4  C   LIG d   1       2.760  87.664 112.720  0.00  0.00     0.028 C 
ATOM      5  C   LIG d   1       2.584  86.276 112.114  0.00  0.00    -0.047 C 
ATOM      6  C   LIG d   1       2.410  85.248 113.256  0.00  0.00     0.091 C 
ENDROOT
BRANCH   1   7
ATOM      7  O   LIG d   1       3.206  84.695 115.507  0.00  0.00    -0.368 OA
BRANCH   7   8
ATOM      8  C   LIG d   1       1.801  84.772 115.855  0.00  0.00     0.119 C 
BRANCH   8   9
ATOM      9  C   LIG d   1       1.632  85.945 116.841  0.00  0.00     0.028 C 
ATOM     10  C   LIG d   1       0.697  87.038 116.297  0.00  0.00     0.006 C 
ENDBRANCH   8   9
BRANCH   8  11
ATOM     11  C   LIG d   1       1.349  83.528 116.625  0.00  0.00     0.028 C 
ATOM     12  C   LIG d   1       2.051  82.246 116.150  0.00  0.00     0.006 C 
ENDBRANCH   8  11
ENDBRANCH   7   8
ENDBRANCH   1   7
BRANCH   6  13
ATOM     13  N   LIG d   1       2.317  83.853 112.753  0.00  0.00    -0.311 N 
ATOM     14  C   LIG d   1       1.161  83.216 112.568  0.00  0.00     0.210 C 
ATOM     15  C   LIG d   1       1.291  81.776 112.062  0.00  0.00     0.109 C 
ATOM     16  O   LIG d   1       0.041  83.718 112.744  0.00  0.00    -0.276 OA
ATOM     17  H   LIG d   1       3.177  83.381 112.555  0.00  0.00     0.149 HD
ENDBRANCH   6  13
BRANCH   5  18
ATOM     18  N   LIG d   1       1.425  86.330 111.204  0.00  0.00     0.381 N 
ATOM     19  H   LIG d   1       1.119  85.402 110.989  0.00  0.00    -0.090 HD
ATOM     20  H   LIG d   1       1.705  86.776 110.348  0.00  0.00    -0.090 HD
ATOM     21  H   LIG d   1       0.683  86.843 111.627  0.00  0.00    -0.090 HD
ENDBRANCH   5  18
BRANCH   3  22
ATOM     22  C   LIG d   1       4.446  88.910 113.879  0.00  0.00     0.382 C 
ATOM     23  O   LIG d   1       5.225  89.048 114.853  0.00  0.00    -0.241 OA
ATOM     24  O   LIG d   1       4.267  89.863 113.097  0.00  0.00    -0.241 OA
ENDBRANCH   3  22
TORSDOF 7
ENDMDL
MODEL 7
REMARK VINA RESULT:      -4.8      9.620     12.783
REMARK  7 active torsions:
REMARK  status: ('A' for Active; 'I' for Inactive)
REMARK    1  A    between atoms: C_2  and  C_3 
REMARK    2  A    between atoms: C_3  and  O_6 
REMARK    3  A    between atoms: C_3  and  C_4 
REMARK    4  A    between atoms: C_7  and  O_6 
REMARK    5  A    between atoms: C_9  and  C_10 
REMARK    6  A    between atoms: N_15  and  C_14 
REMARK    7  A    between atoms: N_20  and  C_19 
REMARK       I    between atoms: C_22  and  N_20 
ROOT
ATOM      1  C   LIG d   1      -4.916  75.602 115.467  0.00  0.00     0.161 C 
ATOM      2  C   LIG d   1      -5.413  74.345 115.084  0.00  0.00     0.016 C 
ATOM      3  C   LIG d   1      -6.517  73.721 115.709  0.00  0.00     0.038 C 
ATOM      4  C   LIG d   1      -7.299  74.385 116.667  0.00  0.00     0.028 C 
ATOM      5  C   LIG d   1      -6.532  75.452 117.441  0.00  0.00    -0.047 C 
ATOM      6  C   LIG d   1      -5.824  76.389 116.435  0.00  0.00     0.091 C 
ENDROOT
BRANCH   1   7
ATOM      7  O   LIG d   1      -4.629  76.391 114.296  0.00  0.00    -0.368 OA
BRANCH   7   8
ATOM      8  C   LIG d   1      -3.227  76.618 114.007  0.00  0.00     0.119 C 
BRANCH   8   9
ATOM      9  C   LIG d   1      -2.408  75.828 115.046  0.00  0.00     0.028 C 
ATOM     10  C   LIG d   1      -0.915  75.756 114.683  0.00  0.00     0.006 C 
ENDBRANCH   8   9
BRANCH   8  11
ATOM     11  C   LIG d   1      -2.845  78.086 114.220  0.00  0.00     0.028 C 
ATOM     12  C   LIG d   1      -2.390  78.776 112.925  0.00  0.00     0.006 C 
ENDBRANCH   8  11
ENDBRANCH   7   8
ENDBRANCH   1   7
BRANCH   6  13
ATOM     13  N   LIG d   1      -4.982  77.412 117.109  0.00  0.00    -0.311 N 
ATOM     14  C   LIG d   1      -5.394  78.654 117.354  0.00  0.00     0.210 C 
ATOM     15  C   LIG d   1      -4.362  79.554 118.040  0.00  0.00     0.109 C 
ATOM     16  O   LIG d   1      -6.528  79.087 117.096  0.00  0.00    -0.276 OA
ATOM     17  H   LIG d   1      -4.059  77.136 117.380  0.00  0.00     0.149 HD
ENDBRANCH   6  13
BRANCH   5  18
ATOM     18  N   LIG d   1      -7.498  76.157 118.305  0.00  0.00     0.381 N 
ATOM     19  H   LIG d   1      -7.338  75.911 119.262  0.00  0.00    -0.090 HD
ATOM     20  H   LIG d   1      -8.427  75.867 118.057  0.00  0.00    -0.090 HD
ATOM     21  H   LIG d   1      -7.406  77.141 118.187  0.00  0.00    -0.090 HD
ENDBRANCH   5  18
BRANCH   3  22
ATOM     22  C   LIG d   1      -6.826  72.404 115.406  0.00  0.00     0.382 C 
ATOM     23  O   LIG d   1      -6.136  71.776 114.567  0.00  0.00    -0.241 OA
ATOM     24  O   LIG d   1      -7.812  71.850 115.927  0.00  0.00    -0.241 OA
ENDBRANCH   3  22
TORSDOF 7
ENDMDL
MODEL 8
REMARK VINA RESULT:      -4.8     11.538     13.372
REMARK  7 active torsions:
REMARK  status: ('A' for Active; 'I' for Inactive)
REMARK    1  A    between atoms: C_2  and  C_3 
REMARK    2  A    between atoms: C_3  and  O_6 
REMARK    3  A    between atoms: C_3  and  C_4 
REMARK    4  A    between atoms: C_7  and  O_6 
REMARK    5  A    between atoms: C_9  and  C_10 
REMARK    6  A    between atoms: N_15  and  C_14 
REMARK    7  A    between atoms: N_20  and  C_19 
REMARK       I    between atoms: C_22  and  N_20 
ROOT
ATOM      1  C   LIG d   1      -6.506  76.105 117.036  0.00  0.00     0.161 C 
ATOM      2  C   LIG d   1      -6.185  77.434 117.358  0.00  0.00     0.016 C 
ATOM      3  C   LIG d   1      -7.146  78.393 117.753  0.00  0.00     0.038 C 
ATOM      4  C   LIG d   1      -8.482  78.045 118.001  0.00  0.00     0.028 C 
ATOM      5  C   LIG d   1      -8.950  76.832 117.204  0.00  0.00    -0.047 C 
ATOM      6  C   LIG d   1      -7.942  75.678 117.408  0.00  0.00     0.091 C 
ENDROOT
BRANCH   1   7
ATOM      7  O   LIG d   1      -5.547  75.211 117.636  0.00  0.00    -0.368 OA
BRANCH   7   8
ATOM      8  C   LIG d   1      -4.621  74.567 116.727  0.00  0.00     0.119 C 
BRANCH   8   9
ATOM      9  C   LIG d   1      -3.268  75.294 116.853  0.00  0.00     0.028 C 
ATOM     10  C   LIG d   1      -2.201  74.432 117.549  0.00  0.00     0.006 C 
ENDBRANCH   8   9
BRANCH   8  11
ATOM     11  C   LIG d   1      -5.048  74.757 115.269  0.00  0.00     0.028 C 
ATOM     12  C   LIG d   1      -4.002  75.511 114.434  0.00  0.00     0.006 C 
ENDBRANCH   8  11
ENDBRANCH   7   8
ENDBRANCH   1   7
BRANCH   6  13
ATOM     13  N   LIG d   1      -8.280  74.480 116.597  0.00  0.00    -0.311 N 
ATOM     14  C   LIG d   1      -8.371  73.252 117.105  0.00  0.00     0.210 C 
ATOM     15  C   LIG d   1      -8.711  72.156 116.090  0.00  0.00     0.109 C 
ATOM     16  O   LIG d   1      -8.234  72.971 118.305  0.00  0.00    -0.276 OA
ATOM     17  H   LIG d   1      -8.437  74.621 115.618  0.00  0.00     0.149 HD
ENDBRANCH   6  13
BRANCH   5  18
ATOM     18  N   LIG d   1     -10.312  76.497 117.661  0.00  0.00     0.381 N 
ATOM     19  H   LIG d   1     -10.919  77.280 117.520  0.00  0.00    -0.090 HD
ATOM     20  H   LIG d   1     -10.284  76.293 118.644  0.00  0.00    -0.090 HD
ATOM     21  H   LIG d   1     -10.655  75.707 117.160  0.00  0.00    -0.090 HD
ENDBRANCH   5  18
BRANCH   3  22
ATOM     22  C   LIG d   1      -6.781  79.726 117.865  0.00  0.00     0.382 C 
ATOM     23  O   LIG d   1      -7.591  80.627 117.541  0.00  0.00    -0.241 OA
ATOM     24  O   LIG d   1      -5.636  80.037 118.244  0.00  0.00    -0.241 OA
ENDBRANCH   3  22
TORSDOF 7
ENDMDL
MODEL 9
REMARK VINA RESULT:      -4.7      9.952     13.082
REMARK  7 active torsions:
REMARK  status: ('A' for Active; 'I' for Inactive)
REMARK    1  A    between atoms: C_2  and  C_3 
REMARK    2  A    between atoms: C_3  and  O_6 
REMARK    3  A    between atoms: C_3  and  C_4 
REMARK    4  A    between atoms: C_7  and  O_6 
REMARK    5  A    between atoms: C_9  and  C_10 
REMARK    6  A    between atoms: N_15  and  C_14 
REMARK    7  A    between atoms: N_20  and  C_19 
REMARK       I    between atoms: C_22  and  N_20 
ROOT
ATOM      1  C   LIG d   1      -5.242  75.138 117.036  0.00  0.00     0.161 C 
ATOM      2  C   LIG d   1      -6.258  74.189 116.837  0.00  0.00     0.016 C 
ATOM      3  C   LIG d   1      -7.635  74.482 116.974  0.00  0.00     0.038 C 
ATOM      4  C   LIG d   1      -8.097  75.791 117.175  0.00  0.00     0.028 C 
ATOM      5  C   LIG d   1      -7.087  76.688 117.883  0.00  0.00    -0.047 C 
ATOM      6  C   LIG d   1      -5.731  76.597 117.147  0.00  0.00     0.091 C 
ENDROOT
BRANCH   1   7
ATOM      7  O   LIG d   1      -4.251  75.019 115.996  0.00  0.00    -0.368 OA
BRANCH   7   8
ATOM      8  C   LIG d   1      -4.330  75.994 114.927  0.00  0.00     0.119 C 
BRANCH   8   9
ATOM      9  C   LIG d   1      -4.828  75.260 113.667  0.00  0.00     0.028 C 
ATOM     10  C   LIG d   1      -6.067  75.930 113.049  0.00  0.00     0.006 C 
ENDBRANCH   8   9
BRANCH   8  11
ATOM     11  C   LIG d   1      -2.944  76.532 114.561  0.00  0.00     0.028 C 
ATOM     12  C   LIG d   1      -1.890  76.252 115.645  0.00  0.00     0.006 C 
ENDBRANCH   8  11
ENDBRANCH   7   8
ENDBRANCH   1   7
BRANCH   6  13
ATOM     13  N   LIG d   1      -4.665  77.379 117.824  0.00  0.00    -0.311 N 
ATOM     14  C   LIG d   1      -4.352  78.631 117.494  0.00  0.00     0.210 C 
ATOM     15  C   LIG d   1      -3.207  79.247 118.305  0.00  0.00     0.109 C 
ATOM     16  O   LIG d   1      -4.935  79.301 116.628  0.00  0.00    -0.276 OA
ATOM     17  H   LIG d   1      -4.162  76.923 118.560  0.00  0.00     0.149 HD
ENDBRANCH   6  13
BRANCH   5  18
ATOM     18  N   LIG d   1      -7.643  78.055 117.904  0.00  0.00     0.381 N 
ATOM     19  H   LIG d   1      -7.082  78.657 117.335  0.00  0.00    -0.090 HD
ATOM     20  H   LIG d   1      -7.621  78.401 118.847  0.00  0.00    -0.090 HD
ATOM     21  H   LIG d   1      -8.580  78.047 117.567  0.00  0.00    -0.090 HD
ENDBRANCH   5  18
BRANCH   3  22
ATOM     22  C   LIG d   1      -8.563  73.452 116.951  0.00  0.00     0.382 C 
ATOM     23  O   LIG d   1      -8.198  72.286 116.665  0.00  0.00    -0.241 OA
ATOM     24  O   LIG d   1      -9.767  73.682 117.168  0.00  0.00    -0.241 OA
ENDBRANCH   3  22
TORSDOF 7
ENDMDL
