MODEL 1
REMARK VINA RESULT:      -5.6      0.000      0.000
REMARK  7 active torsions:
REMARK  status: ('A' for Active; 'I' for Inactive)
REMARK    1  A    between atoms: C_2  and  C_3 
REMARK    2  A    between atoms: C_3  and  O_6 
REMARK    3  A    between atoms: C_3  and  C_4 
REMARK    4  A    between atoms: C_7  and  O_6 
REMARK    5  A    between atoms: C_9  and  C_10 
REMARK    6  A    between atoms: N_15  and  C_14 
REMARK    7  A    between atoms: N_20  and  C_19 
REMARK       I    between atoms: C_22  and  N_20 
ROOT
ATOM      1  C   LIG d   1       1.805  85.748 113.865  0.00  0.00     0.161 C 
ATOM      2  C   LIG d   1       2.450  86.746 113.117  0.00  0.00     0.016 C 
ATOM      3  C   LIG d   1       3.795  87.129 113.326  0.00  0.00     0.038 C 
ATOM      4  C   LIG d   1       4.637  86.429 114.203  0.00  0.00     0.028 C 
ATOM      5  C   LIG d   1       3.890  85.744 115.342  0.00  0.00    -0.047 C 
ATOM      6  C   LIG d   1       2.740  84.897 114.750  0.00  0.00     0.091 C 
ENDROOT
BRANCH   1   7
ATOM      7  O   LIG d   1       1.037  84.900 112.989  0.00  0.00    -0.368 OA
BRANCH   7   8
ATOM      8  C   LIG d   1       1.000  85.291 111.594  0.00  0.00     0.119 C 
BRANCH   8   9
ATOM      9  C   LIG d   1      -0.480  85.355 111.170  0.00  0.00     0.028 C 
ATOM     10  C   LIG d   1      -1.105  86.736 111.431  0.00  0.00     0.006 C 
ENDBRANCH   8   9
BRANCH   8  11
ATOM     11  C   LIG d   1       1.632  84.221 110.699  0.00  0.00     0.028 C 
ATOM     12  C   LIG d   1       3.066  84.572 110.271  0.00  0.00     0.006 C 
ENDBRANCH   8  11
ENDBRANCH   7   8
ENDBRANCH   1   7
BRANCH   6  13
ATOM     13  N   LIG d   1       1.906  84.260 115.802  0.00  0.00    -0.311 N 
ATOM     14  C   LIG d   1       2.145  83.043 116.290  0.00  0.00     0.210 C 
ATOM     15  C   LIG d   1       1.152  82.567 117.355  0.00  0.00     0.109 C 
ATOM     16  O   LIG d   1       3.103  82.327 115.965  0.00  0.00    -0.276 OA
ATOM     17  H   LIG d   1       1.126  84.784 116.146  0.00  0.00     0.149 HD
ENDBRANCH   6  13
BRANCH   5  18
ATOM     18  N   LIG d   1       4.870  84.941 116.098  0.00  0.00     0.381 N 
ATOM     19  H   LIG d   1       5.106  85.408 116.950  0.00  0.00    -0.090 HD
ATOM     20  H   LIG d   1       5.706  84.846 115.548  0.00  0.00    -0.090 HD
ATOM     21  H   LIG d   1       4.492  84.041 116.297  0.00  0.00    -0.090 HD
ENDBRANCH   5  18
BRANCH   3  22
ATOM     22  C   LIG d   1       4.299  88.249 112.682  0.00  0.00     0.382 C 
ATOM     23  O   LIG d   1       5.474  88.243 112.241  0.00  0.00    -0.241 OA
ATOM     24  O   LIG d   1       3.609  89.281 112.576  0.00  0.00    -0.241 OA
ENDBRANCH   3  22
TORSDOF 7
ENDMDL
MODEL 2
REMARK VINA RESULT:      -5.4      2.404      4.743
REMARK  7 active torsions:
REMARK  status: ('A' for Active; 'I' for Inactive)
REMARK    1  A    between atoms: C_2  and  C_3 
REMARK    2  A    between atoms: C_3  and  O_6 
REMARK    3  A    between atoms: C_3  and  C_4 
REMARK    4  A    between atoms: C_7  and  O_6 
REMARK    5  A    between atoms: C_9  and  C_10 
REMARK    6  A    between atoms: N_15  and  C_14 
REMARK    7  A    between atoms: N_20  and  C_19 
REMARK       I    between atoms: C_22  and  N_20 
ROOT
ATOM      1  C   LIG d   1       3.452  85.017 112.750  0.00  0.00     0.161 C 
ATOM      2  C   LIG d   1       4.166  86.196 113.020  0.00  0.00     0.016 C 
ATOM      3  C   LIG d   1       3.842  87.450 112.451  0.00  0.00     0.038 C 
ATOM      4  C   LIG d   1       2.682  87.639 111.686  0.00  0.00     0.028 C 
ATOM      5  C   LIG d   1       2.211  86.374 110.976  0.00  0.00    -0.047 C 
ATOM      6  C   LIG d   1       2.116  85.226 112.006  0.00  0.00     0.091 C 
ENDROOT
BRANCH   1   7
ATOM      7  O   LIG d   1       3.235  84.286 113.973  0.00  0.00    -0.368 OA
BRANCH   7   8
ATOM      8  C   LIG d   1       3.311  85.057 115.198  0.00  0.00     0.119 C 
BRANCH   8   9
ATOM      9  C   LIG d   1       3.879  84.132 116.292  0.00  0.00     0.028 C 
ATOM     10  C   LIG d   1       4.927  84.837 117.170  0.00  0.00     0.006 C 
ENDBRANCH   8   9
BRANCH   8  11
ATOM     11  C   LIG d   1       1.918  85.460 115.690  0.00  0.00     0.028 C 
ATOM     12  C   LIG d   1       1.770  86.977 115.882  0.00  0.00     0.006 C 
ENDBRANCH   8  11
ENDBRANCH   7   8
ENDBRANCH   1   7
BRANCH   6  13
ATOM     13  N   LIG d   1       1.744  83.931 111.378  0.00  0.00    -0.311 N 
ATOM     14  C   LIG d   1       0.492  83.481 111.315  0.00  0.00     0.210 C 
ATOM     15  C   LIG d   1       0.330  82.113 110.643  0.00  0.00     0.109 C 
ATOM     16  O   LIG d   1      -0.503  84.098 111.722  0.00  0.00    -0.276 OA
ATOM     17  H   LIG d   1       2.486  83.380 110.995  0.00  0.00     0.149 HD
ENDBRANCH   6  13
BRANCH   5  18
ATOM     18  N   LIG d   1       0.921  86.680 110.330  0.00  0.00     0.381 N 
ATOM     19  H   LIG d   1       0.193  86.144 110.758  0.00  0.00    -0.090 HD
ATOM     20  H   LIG d   1       0.974  86.423 109.360  0.00  0.00    -0.090 HD
ATOM     21  H   LIG d   1       0.720  87.652 110.413  0.00  0.00    -0.090 HD
ENDBRANCH   5  18
BRANCH   3  22
ATOM     22  C   LIG d   1       4.707  88.522 112.613  0.00  0.00     0.382 C 
ATOM     23  O   LIG d   1       4.251  89.658 112.890  0.00  0.00    -0.241 OA
ATOM     24  O   LIG d   1       5.932  88.377 112.442  0.00  0.00    -0.241 OA
ENDBRANCH   3  22
TORSDOF 7
ENDMDL
MODEL 3
REMARK VINA RESULT:      -5.1      3.481      5.606
REMARK  7 active torsions:
REMARK  status: ('A' for Active; 'I' for Inactive)
REMARK    1  A    between atoms: C_2  and  C_3 
REMARK    2  A    between atoms: C_3  and  O_6 
REMARK    3  A    between atoms: C_3  and  C_4 
REMARK    4  A    between atoms: C_7  and  O_6 
REMARK    5  A    between atoms: C_9  and  C_10 
REMARK    6  A    between atoms: N_15  and  C_14 
REMARK    7  A    between atoms: N_20  and  C_19 
REMARK       I    between atoms: C_22  and  N_20 
ROOT
ATOM      1  C   LIG d   1       3.591  88.960 115.298  0.00  0.00     0.161 C 
ATOM      2  C   LIG d   1       2.850  88.425 114.231  0.00  0.00     0.016 C 
ATOM      3  C   LIG d   1       3.391  88.199 112.944  0.00  0.00     0.038 C 
ATOM      4  C   LIG d   1       4.760  88.353 112.678  0.00  0.00     0.028 C 
ATOM      5  C   LIG d   1       5.443  89.370 113.586  0.00  0.00    -0.047 C 
ATOM      6  C   LIG d   1       5.114  89.030 115.057  0.00  0.00     0.091 C 
ENDROOT
BRANCH   1   7
ATOM      7  O   LIG d   1       3.308  88.227 116.506  0.00  0.00    -0.368 OA
BRANCH   7   8
ATOM      8  C   LIG d   1       2.709  86.919 116.331  0.00  0.00     0.119 C 
BRANCH   8   9
ATOM      9  C   LIG d   1       1.546  86.804 117.336  0.00  0.00     0.028 C 
ATOM     10  C   LIG d   1       1.166  85.343 117.630  0.00  0.00     0.006 C 
ENDBRANCH   8   9
BRANCH   8  11
ATOM     11  C   LIG d   1       3.687  85.803 116.714  0.00  0.00     0.028 C 
ATOM     12  C   LIG d   1       4.490  85.277 115.514  0.00  0.00     0.006 C 
ENDBRANCH   8  11
ENDBRANCH   7   8
ENDBRANCH   1   7
BRANCH   6  13
ATOM     13  N   LIG d   1       5.674  90.025 116.008  0.00  0.00    -0.311 N 
ATOM     14  C   LIG d   1       6.860  89.888 116.599  0.00  0.00     0.210 C 
ATOM     15  C   LIG d   1       7.239  91.020 117.560  0.00  0.00     0.109 C 
ATOM     16  O   LIG d   1       7.647  88.952 116.395  0.00  0.00    -0.276 OA
ATOM     17  H   LIG d   1       5.114  90.831 116.207  0.00  0.00     0.149 HD
ENDBRANCH   6  13
BRANCH   5  18
ATOM     18  N   LIG d   1       6.888  89.329 113.293  0.00  0.00     0.381 N 
ATOM     19  H   LIG d   1       7.083  88.585 112.653  0.00  0.00    -0.090 HD
ATOM     20  H   LIG d   1       7.388  89.150 114.146  0.00  0.00    -0.090 HD
ATOM     21  H   LIG d   1       7.182  90.197 112.903  0.00  0.00    -0.090 HD
ENDBRANCH   5  18
BRANCH   3  22
ATOM     22  C   LIG d   1       2.551  87.852 111.897  0.00  0.00     0.382 C 
ATOM     23  O   LIG d   1       2.974  87.118 110.971  0.00  0.00    -0.241 OA
ATOM     24  O   LIG d   1       1.390  88.300 111.843  0.00  0.00    -0.241 OA
ENDBRANCH   3  22
TORSDOF 7
ENDMDL
MODEL 4
REMARK VINA RESULT:      -4.9      2.474      5.682
REMARK  7 active torsions:
REMARK  status: ('A' for Active; 'I' for Inactive)
REMARK    1  A    between atoms: C_2  and  C_3 
REMARK    2  A    between atoms: C_3  and  O_6 
REMARK    3  A    between atoms: C_3  and  C_4 
REMARK    4  A    between atoms: C_7  and  O_6 
REMARK    5  A    between atoms: C_9  and  C_10 
REMARK    6  A    between atoms: N_15  and  C_14 
REMARK    7  A    between atoms: N_20  and  C_19 
REMARK       I    between atoms: C_22  and  N_20 
ROOT
ATOM      1  C   LIG d   1       2.190  86.179 113.335  0.00  0.00     0.161 C 
ATOM      2  C   LIG d   1       0.906  85.759 112.951  0.00  0.00     0.016 C 
ATOM      3  C   LIG d   1       0.645  85.042 111.760  0.00  0.00     0.038 C 
ATOM      4  C   LIG d   1       1.679  84.562 110.942  0.00  0.00     0.028 C 
ATOM      5  C   LIG d   1       2.954  85.395 111.026  0.00  0.00    -0.047 C 
ATOM      6  C   LIG d   1       3.344  85.569 112.511  0.00  0.00     0.091 C 
ENDROOT
BRANCH   1   7
ATOM      7  O   LIG d   1       2.388  85.924 114.740  0.00  0.00    -0.368 OA
BRANCH   7   8
ATOM      8  C   LIG d   1       1.898  86.942 115.647  0.00  0.00     0.119 C 
BRANCH   8   9
ATOM      9  C   LIG d   1       3.032  87.967 115.848  0.00  0.00     0.028 C 
ATOM     10  C   LIG d   1       2.505  89.405 115.987  0.00  0.00     0.006 C 
ENDBRANCH   8   9
BRANCH   8  11
ATOM     11  C   LIG d   1       1.624  86.363 117.038  0.00  0.00     0.028 C 
ATOM     12  C   LIG d   1       1.484  84.833 117.029  0.00  0.00     0.006 C 
ENDBRANCH   8  11
ENDBRANCH   7   8
ENDBRANCH   1   7
BRANCH   6  13
ATOM     13  N   LIG d   1       4.533  86.442 112.687  0.00  0.00    -0.311 N 
ATOM     14  C   LIG d   1       4.532  87.746 112.414  0.00  0.00     0.210 C 
ATOM     15  C   LIG d   1       5.869  88.456 112.647  0.00  0.00     0.109 C 
ATOM     16  O   LIG d   1       3.542  88.388 112.032  0.00  0.00    -0.276 OA
ATOM     17  H   LIG d   1       5.371  86.009 113.023  0.00  0.00     0.149 HD
ENDBRANCH   6  13
BRANCH   5  18
ATOM     18  N   LIG d   1       3.989  84.706 110.233  0.00  0.00     0.381 N 
ATOM     19  H   LIG d   1       4.075  83.758 110.539  0.00  0.00    -0.090 HD
ATOM     20  H   LIG d   1       4.871  85.166 110.379  0.00  0.00    -0.090 HD
ATOM     21  H   LIG d   1       3.751  84.730 109.266  0.00  0.00    -0.090 HD
ENDBRANCH   5  18
BRANCH   3  22
ATOM     22  C   LIG d   1      -0.665  84.833 111.356  0.00  0.00     0.382 C 
ATOM     23  O   LIG d   1      -1.346  83.922 111.886  0.00  0.00    -0.241 OA
ATOM     24  O   LIG d   1      -1.159  85.514 110.439  0.00  0.00    -0.241 OA
ENDBRANCH   3  22
TORSDOF 7
ENDMDL
MODEL 5
REMARK VINA RESULT:      -4.9      7.353      9.617
REMARK  7 active torsions:
REMARK  status: ('A' for Active; 'I' for Inactive)
REMARK    1  A    between atoms: C_2  and  C_3 
REMARK    2  A    between atoms: C_3  and  O_6 
REMARK    3  A    between atoms: C_3  and  C_4 
REMARK    4  A    between atoms: C_7  and  O_6 
REMARK    5  A    between atoms: C_9  and  C_10 
REMARK    6  A    between atoms: N_15  and  C_14 
REMARK    7  A    between atoms: N_20  and  C_19 
REMARK       I    between atoms: C_22  and  N_20 
ROOT
ATOM      1  C   LIG d   1      -2.030  78.848 115.132  0.00  0.00     0.161 C 
ATOM      2  C   LIG d   1      -2.450  80.083 114.612  0.00  0.00     0.016 C 
ATOM      3  C   LIG d   1      -2.581  80.341 113.228  0.00  0.00     0.038 C 
ATOM      4  C   LIG d   1      -2.445  79.326 112.269  0.00  0.00     0.028 C 
ATOM      5  C   LIG d   1      -1.531  78.190 112.714  0.00  0.00    -0.047 C 
ATOM      6  C   LIG d   1      -1.986  77.696 114.106  0.00  0.00     0.091 C 
ENDROOT
BRANCH   1   7
ATOM      7  O   LIG d   1      -2.856  78.485 116.256  0.00  0.00    -0.368 OA
BRANCH   7   8
ATOM      8  C   LIG d   1      -4.286  78.624 116.068  0.00  0.00     0.119 C 
BRANCH   8   9
ATOM      9  C   LIG d   1      -4.778  79.713 117.041  0.00  0.00     0.028 C 
ATOM     10  C   LIG d   1      -6.308  79.707 117.204  0.00  0.00     0.006 C 
ENDBRANCH   8   9
BRANCH   8  11
ATOM     11  C   LIG d   1      -5.028  77.348 116.477  0.00  0.00     0.028 C 
ATOM     12  C   LIG d   1      -5.720  76.655 115.293  0.00  0.00     0.006 C 
ENDBRANCH   8  11
ENDBRANCH   7   8
ENDBRANCH   1   7
BRANCH   6  13
ATOM     13  N   LIG d   1      -1.093  76.641 114.653  0.00  0.00    -0.311 N 
ATOM     14  C   LIG d   1      -1.530  75.454 115.069  0.00  0.00     0.210 C 
ATOM     15  C   LIG d   1      -0.445  74.521 115.616  0.00  0.00     0.109 C 
ATOM     16  O   LIG d   1      -2.708  75.073 115.008  0.00  0.00    -0.276 OA
ATOM     17  H   LIG d   1      -0.116  76.854 114.709  0.00  0.00     0.149 HD
ENDBRANCH   6  13
BRANCH   5  18
ATOM     18  N   LIG d   1      -1.589  77.139 111.680  0.00  0.00     0.381 N 
ATOM     19  H   LIG d   1      -0.858  77.281 111.012  0.00  0.00    -0.090 HD
ATOM     20  H   LIG d   1      -2.470  77.203 111.201  0.00  0.00    -0.090 HD
ATOM     21  H   LIG d   1      -1.496  76.241 112.101  0.00  0.00    -0.090 HD
ENDBRANCH   5  18
BRANCH   3  22
ATOM     22  C   LIG d   1      -2.811  81.636 112.788  0.00  0.00     0.382 C 
ATOM     23  O   LIG d   1      -1.942  82.230 112.107  0.00  0.00    -0.241 OA
ATOM     24  O   LIG d   1      -3.858  82.232 113.103  0.00  0.00    -0.241 OA
ENDBRANCH   3  22
TORSDOF 7
ENDMDL
MODEL 6
REMARK VINA RESULT:      -4.7      9.412     12.662
REMARK  7 active torsions:
REMARK  status: ('A' for Active; 'I' for Inactive)
REMARK    1  A    between atoms: C_2  and  C_3 
REMARK    2  A    between atoms: C_3  and  O_6 
REMARK    3  A    between atoms: C_3  and  C_4 
REMARK    4  A    between atoms: C_7  and  O_6 
REMARK    5  A    between atoms: C_9  and  C_10 
REMARK    6  A    between atoms: N_15  and  C_14 
REMARK    7  A    between atoms: N_20  and  C_19 
REMARK       I    between atoms: C_22  and  N_20 
ROOT
ATOM      1  C   LIG d   1      -5.774  77.848 116.647  0.00  0.00     0.161 C 
ATOM      2  C   LIG d   1      -7.104  77.570 117.004  0.00  0.00     0.016 C 
ATOM      3  C   LIG d   1      -7.977  78.531 117.564  0.00  0.00     0.038 C 
ATOM      4  C   LIG d   1      -7.622  79.885 117.664  0.00  0.00     0.028 C 
ATOM      5  C   LIG d   1      -6.118  80.110 117.785  0.00  0.00    -0.047 C 
ATOM      6  C   LIG d   1      -5.404  79.346 116.646  0.00  0.00     0.091 C 
ENDROOT
BRANCH   1   7
ATOM      7  O   LIG d   1      -5.479  77.258 115.365  0.00  0.00    -0.368 OA
BRANCH   7   8
ATOM      8  C   LIG d   1      -4.957  75.907 115.390  0.00  0.00     0.119 C 
BRANCH   8   9
ATOM      9  C   LIG d   1      -3.489  75.970 114.927  0.00  0.00     0.028 C 
ATOM     10  C   LIG d   1      -2.584  75.006 115.713  0.00  0.00     0.006 C 
ENDBRANCH   8   9
BRANCH   8  11
ATOM     11  C   LIG d   1      -5.667  75.016 114.366  0.00  0.00     0.028 C 
ATOM     12  C   LIG d   1      -6.098  73.662 114.952  0.00  0.00     0.006 C 
ENDBRANCH   8  11
ENDBRANCH   7   8
ENDBRANCH   1   7
BRANCH   6  13
ATOM     13  N   LIG d   1      -3.924  79.443 116.739  0.00  0.00    -0.311 N 
ATOM     14  C   LIG d   1      -3.140  79.712 115.697  0.00  0.00     0.210 C 
ATOM     15  C   LIG d   1      -1.641  79.748 116.007  0.00  0.00     0.109 C 
ATOM     16  O   LIG d   1      -3.547  79.957 114.551  0.00  0.00    -0.276 OA
ATOM     17  H   LIG d   1      -3.513  79.290 117.639  0.00  0.00     0.149 HD
ENDBRANCH   6  13
BRANCH   5  18
ATOM     18  N   LIG d   1      -5.881  81.565 117.742  0.00  0.00     0.381 N 
ATOM     19  H   LIG d   1      -5.794  81.921 118.673  0.00  0.00    -0.090 HD
ATOM     20  H   LIG d   1      -6.668  82.010 117.306  0.00  0.00    -0.090 HD
ATOM     21  H   LIG d   1      -5.051  81.760 117.226  0.00  0.00    -0.090 HD
ENDBRANCH   5  18
BRANCH   3  22
ATOM     22  C   LIG d   1      -9.206  78.133 118.067  0.00  0.00     0.382 C 
ATOM     23  O   LIG d   1      -9.423  76.921 118.305  0.00  0.00    -0.241 OA
ATOM     24  O   LIG d   1     -10.116  78.966 118.243  0.00  0.00    -0.241 OA
ENDBRANCH   3  22
TORSDOF 7
ENDMDL
MODEL 7
REMARK VINA RESULT:      -4.7      9.149     12.328
REMARK  7 active torsions:
REMARK  status: ('A' for Active; 'I' for Inactive)
REMARK    1  A    between atoms: C_2  and  C_3 
REMARK    2  A    between atoms: C_3  and  O_6 
REMARK    3  A    between atoms: C_3  and  C_4 
REMARK    4  A    between atoms: C_7  and  O_6 
REMARK    5  A    between atoms: C_9  and  C_10 
REMARK    6  A    between atoms: N_15  and  C_14 
REMARK    7  A    between atoms: N_20  and  C_19 
REMARK       I    between atoms: C_22  and  N_20 
ROOT
ATOM      1  C   LIG d   1      -4.542  77.288 115.565  0.00  0.00     0.161 C 
ATOM      2  C   LIG d   1      -4.772  76.011 115.025  0.00  0.00     0.016 C 
ATOM      3  C   LIG d   1      -5.935  75.252 115.291  0.00  0.00     0.038 C 
ATOM      4  C   LIG d   1      -7.023  75.785 115.998  0.00  0.00     0.028 C 
ATOM      5  C   LIG d   1      -6.627  76.878 116.985  0.00  0.00    -0.047 C 
ATOM      6  C   LIG d   1      -5.767  77.931 116.249  0.00  0.00     0.091 C 
ENDROOT
BRANCH   1   7
ATOM      7  O   LIG d   1      -4.021  78.163 114.546  0.00  0.00    -0.368 OA
BRANCH   7   8
ATOM      8  C   LIG d   1      -2.587  78.120 114.341  0.00  0.00     0.119 C 
BRANCH   8   9
ATOM      9  C   LIG d   1      -1.927  78.833 115.537  0.00  0.00     0.028 C 
ATOM     10  C   LIG d   1      -0.961  79.945 115.097  0.00  0.00     0.006 C 
ENDBRANCH   8   9
BRANCH   8  11
ATOM     11  C   LIG d   1      -2.175  78.930 113.108  0.00  0.00     0.028 C 
ATOM     12  C   LIG d   1      -2.381  78.161 111.794  0.00  0.00     0.006 C 
ENDBRANCH   8  11
ENDBRANCH   7   8
ENDBRANCH   1   7
BRANCH   6  13
ATOM     13  N   LIG d   1      -5.267  78.992 117.161  0.00  0.00    -0.311 N 
ATOM     14  C   LIG d   1      -5.883  80.160 117.334  0.00  0.00     0.210 C 
ATOM     15  C   LIG d   1      -5.189  81.120 118.305  0.00  0.00     0.109 C 
ATOM     16  O   LIG d   1      -6.956  80.480 116.800  0.00  0.00    -0.276 OA
ATOM     17  H   LIG d   1      -4.419  78.804 117.658  0.00  0.00     0.149 HD
ENDBRANCH   6  13
BRANCH   5  18
ATOM     18  N   LIG d   1      -7.869  77.439 117.550  0.00  0.00     0.381 N 
ATOM     19  H   LIG d   1      -8.461  76.698 117.869  0.00  0.00    -0.090 HD
ATOM     20  H   LIG d   1      -8.355  77.943 116.830  0.00  0.00    -0.090 HD
ATOM     21  H   LIG d   1      -7.653  78.050 118.306  0.00  0.00    -0.090 HD
ENDBRANCH   5  18
BRANCH   3  22
ATOM     22  C   LIG d   1      -6.001  73.929 114.880  0.00  0.00     0.382 C 
ATOM     23  O   LIG d   1      -6.527  73.067 115.624  0.00  0.00    -0.241 OA
ATOM     24  O   LIG d   1      -5.501  73.580 113.794  0.00  0.00    -0.241 OA
ENDBRANCH   3  22
TORSDOF 7
ENDMDL
MODEL 8
REMARK VINA RESULT:      -4.6      9.814     12.098
REMARK  7 active torsions:
REMARK  status: ('A' for Active; 'I' for Inactive)
REMARK    1  A    between atoms: C_2  and  C_3 
REMARK    2  A    between atoms: C_3  and  O_6 
REMARK    3  A    between atoms: C_3  and  C_4 
REMARK    4  A    between atoms: C_7  and  O_6 
REMARK    5  A    between atoms: C_9  and  C_10 
REMARK    6  A    between atoms: N_15  and  C_14 
REMARK    7  A    between atoms: N_20  and  C_19 
REMARK       I    between atoms: C_22  and  N_20 
ROOT
ATOM      1  C   LIG d   1      -5.341  77.344 116.977  0.00  0.00     0.161 C 
ATOM      2  C   LIG d   1      -6.030  78.548 117.195  0.00  0.00     0.016 C 
ATOM      3  C   LIG d   1      -5.481  79.821 116.917  0.00  0.00     0.038 C 
ATOM      4  C   LIG d   1      -4.252  79.970 116.257  0.00  0.00     0.028 C 
ATOM      5  C   LIG d   1      -3.301  78.799 116.476  0.00  0.00    -0.047 C 
ATOM      6  C   LIG d   1      -4.043  77.482 116.154  0.00  0.00     0.091 C 
ENDROOT
BRANCH   1   7
ATOM      7  O   LIG d   1      -6.221  76.380 116.366  0.00  0.00    -0.368 OA
BRANCH   7   8
ATOM      8  C   LIG d   1      -6.337  75.104 117.043  0.00  0.00     0.119 C 
BRANCH   8   9
ATOM      9  C   LIG d   1      -5.958  74.007 116.029  0.00  0.00     0.028 C 
ATOM     10  C   LIG d   1      -5.934  74.528 114.582  0.00  0.00     0.006 C 
ENDBRANCH   8   9
BRANCH   8  11
ATOM     11  C   LIG d   1      -7.788  74.811 117.435  0.00  0.00     0.028 C 
ATOM     12  C   LIG d   1      -8.709  76.028 117.263  0.00  0.00     0.006 C 
ENDBRANCH   8  11
ENDBRANCH   7   8
ENDBRANCH   1   7
BRANCH   6  13
ATOM     13  N   LIG d   1      -3.210  76.281 116.424  0.00  0.00    -0.311 N 
ATOM     14  C   LIG d   1      -2.484  75.668 115.490  0.00  0.00     0.210 C 
ATOM     15  C   LIG d   1      -1.714  74.436 115.976  0.00  0.00     0.109 C 
ATOM     16  O   LIG d   1      -2.380  76.046 114.314  0.00  0.00    -0.276 OA
ATOM     17  H   LIG d   1      -3.211  75.926 117.360  0.00  0.00     0.149 HD
ENDBRANCH   6  13
BRANCH   5  18
ATOM     18  N   LIG d   1      -2.118  79.020 115.623  0.00  0.00     0.381 N 
ATOM     19  H   LIG d   1      -1.593  78.171 115.545  0.00  0.00    -0.090 HD
ATOM     20  H   LIG d   1      -1.532  79.714 116.053  0.00  0.00    -0.090 HD
ATOM     21  H   LIG d   1      -2.402  79.328 114.719  0.00  0.00    -0.090 HD
ENDBRANCH   5  18
BRANCH   3  22
ATOM     22  C   LIG d   1      -6.145  80.963 117.337  0.00  0.00     0.382 C 
ATOM     23  O   LIG d   1      -5.698  81.630 118.301  0.00  0.00    -0.241 OA
ATOM     24  O   LIG d   1      -7.211  81.311 116.793  0.00  0.00    -0.241 OA
ENDBRANCH   3  22
TORSDOF 7
ENDMDL
MODEL 9
REMARK VINA RESULT:      -4.6      9.757     13.407
REMARK  7 active torsions:
REMARK  status: ('A' for Active; 'I' for Inactive)
REMARK    1  A    between atoms: C_2  and  C_3 
REMARK    2  A    between atoms: C_3  and  O_6 
REMARK    3  A    between atoms: C_3  and  C_4 
REMARK    4  A    between atoms: C_7  and  O_6 
REMARK    5  A    between atoms: C_9  and  C_10 
REMARK    6  A    between atoms: N_15  and  C_14 
REMARK    7  A    between atoms: N_20  and  C_19 
REMARK       I    between atoms: C_22  and  N_20 
ROOT
ATOM      1  C   LIG d   1      -3.745  74.990 116.144  0.00  0.00     0.161 C 
ATOM      2  C   LIG d   1      -4.698  73.958 116.131  0.00  0.00     0.016 C 
ATOM      3  C   LIG d   1      -6.092  74.185 116.184  0.00  0.00     0.038 C 
ATOM      4  C   LIG d   1      -6.636  75.476 116.101  0.00  0.00     0.028 C 
ATOM      5  C   LIG d   1      -5.701  76.562 116.622  0.00  0.00    -0.047 C 
ATOM      6  C   LIG d   1      -4.322  76.406 115.941  0.00  0.00     0.091 C 
ENDROOT
BRANCH   1   7
ATOM      7  O   LIG d   1      -2.720  74.722 115.166  0.00  0.00    -0.368 OA
BRANCH   7   8
ATOM      8  C   LIG d   1      -1.409  74.395 115.689  0.00  0.00     0.119 C 
BRANCH   8   9
ATOM      9  C   LIG d   1      -0.479  75.584 115.382  0.00  0.00     0.028 C 
ATOM     10  C   LIG d   1       0.109  76.214 116.657  0.00  0.00     0.006 C 
ENDBRANCH   8   9
BRANCH   8  11
ATOM     11  C   LIG d   1      -0.797  73.200 114.952  0.00  0.00     0.028 C 
ATOM     12  C   LIG d   1       0.179  73.621 113.843  0.00  0.00     0.006 C 
ENDBRANCH   8  11
ENDBRANCH   7   8
ENDBRANCH   1   7
BRANCH   6  13
ATOM     13  N   LIG d   1      -3.323  77.378 116.457  0.00  0.00    -0.311 N 
ATOM     14  C   LIG d   1      -3.093  78.562 115.893  0.00  0.00     0.210 C 
ATOM     15  C   LIG d   1      -2.006  79.402 116.572  0.00  0.00     0.109 C 
ATOM     16  O   LIG d   1      -3.708  79.011 114.914  0.00  0.00    -0.276 OA
ATOM     17  H   LIG d   1      -2.800  77.108 117.267  0.00  0.00     0.149 HD
ENDBRANCH   6  13
BRANCH   5  18
ATOM     18  N   LIG d   1      -6.337  77.865 116.350  0.00  0.00     0.381 N 
ATOM     19  H   LIG d   1      -5.719  78.436 115.807  0.00  0.00    -0.090 HD
ATOM     20  H   LIG d   1      -6.511  78.331 117.223  0.00  0.00    -0.090 HD
ATOM     21  H   LIG d   1      -7.193  77.731 115.859  0.00  0.00    -0.090 HD
ENDBRANCH   5  18
BRANCH   3  22
ATOM     22  C   LIG d   1      -6.957  73.116 116.361  0.00  0.00     0.382 C 
ATOM     23  O   LIG d   1      -7.850  73.171 117.240  0.00  0.00    -0.241 OA
ATOM     24  O   LIG d   1      -6.827  72.079 115.683  0.00  0.00    -0.241 OA
ENDBRANCH   3  22
TORSDOF 7
ENDMDL
