MODEL 1
REMARK VINA RESULT:      -5.6      0.000      0.000
REMARK  7 active torsions:
REMARK  status: ('A' for Active; 'I' for Inactive)
REMARK    1  A    between atoms: C_2  and  C_3 
REMARK    2  A    between atoms: C_3  and  O_6 
REMARK    3  A    between atoms: C_3  and  C_4 
REMARK    4  A    between atoms: C_7  and  O_6 
REMARK    5  A    between atoms: C_9  and  C_10 
REMARK    6  A    between atoms: N_15  and  C_14 
REMARK    7  A    between atoms: N_20  and  C_19 
REMARK       I    between atoms: C_22  and  N_20 
ROOT
ATOM      1  C   LIG d   1       1.874  86.479 114.062  0.00  0.00     0.161 C 
ATOM      2  C   LIG d   1       2.780  87.552 114.044  0.00  0.00     0.016 C 
ATOM      3  C   LIG d   1       3.640  87.826 112.955  0.00  0.00     0.038 C 
ATOM      4  C   LIG d   1       3.543  87.130 111.741  0.00  0.00     0.028 C 
ATOM      5  C   LIG d   1       2.992  85.717 111.895  0.00  0.00    -0.047 C 
ATOM      6  C   LIG d   1       1.676  85.777 112.703  0.00  0.00     0.091 C 
ENDROOT
BRANCH   1   7
ATOM      7  O   LIG d   1       0.606  86.920 114.588  0.00  0.00    -0.368 OA
BRANCH   7   8
ATOM      8  C   LIG d   1       0.333  86.574 115.968  0.00  0.00     0.119 C 
BRANCH   8   9
ATOM      9  C   LIG d   1      -0.741  85.469 115.964  0.00  0.00     0.028 C 
ATOM     10  C   LIG d   1      -2.018  85.894 115.221  0.00  0.00     0.006 C 
ENDBRANCH   8   9
BRANCH   8  11
ATOM     11  C   LIG d   1      -0.296  87.749 116.723  0.00  0.00     0.028 C 
ATOM     12  C   LIG d   1       0.479  89.062 116.534  0.00  0.00     0.006 C 
ENDBRANCH   8  11
ENDBRANCH   7   8
ENDBRANCH   1   7
BRANCH   6  13
ATOM     13  N   LIG d   1       1.114  84.427 112.972  0.00  0.00    -0.311 N 
ATOM     14  C   LIG d   1      -0.105  84.051 112.589  0.00  0.00     0.210 C 
ATOM     15  C   LIG d   1      -0.496  82.624 112.985  0.00  0.00     0.109 C 
ATOM     16  O   LIG d   1      -0.888  84.753 111.932  0.00  0.00    -0.276 OA
ATOM     17  H   LIG d   1       1.694  83.783 113.473  0.00  0.00     0.149 HD
ENDBRANCH   6  13
BRANCH   5  18
ATOM     18  N   LIG d   1       2.816  85.157 110.542  0.00  0.00     0.381 N 
ATOM     19  H   LIG d   1       2.866  84.158 110.579  0.00  0.00    -0.090 HD
ATOM     20  H   LIG d   1       3.560  85.488 109.953  0.00  0.00    -0.090 HD
ATOM     21  H   LIG d   1       1.936  85.439 110.168  0.00  0.00    -0.090 HD
ENDBRANCH   5  18
BRANCH   3  22
ATOM     22  C   LIG d   1       4.637  88.780 113.090  0.00  0.00     0.382 C 
ATOM     23  O   LIG d   1       4.411  89.838 113.726  0.00  0.00    -0.241 OA
ATOM     24  O   LIG d   1       5.745  88.618 112.545  0.00  0.00    -0.241 OA
ENDBRANCH   3  22
TORSDOF 7
ENDMDL
MODEL 2
REMARK VINA RESULT:      -5.3      1.592      2.565
REMARK  7 active torsions:
REMARK  status: ('A' for Active; 'I' for Inactive)
REMARK    1  A    between atoms: C_2  and  C_3 
REMARK    2  A    between atoms: C_3  and  O_6 
REMARK    3  A    between atoms: C_3  and  C_4 
REMARK    4  A    between atoms: C_7  and  O_6 
REMARK    5  A    between atoms: C_9  and  C_10 
REMARK    6  A    between atoms: N_15  and  C_14 
REMARK    7  A    between atoms: N_20  and  C_19 
REMARK       I    between atoms: C_22  and  N_20 
ROOT
ATOM      1  C   LIG d   1       1.102  84.936 113.041  0.00  0.00     0.161 C 
ATOM      2  C   LIG d   1       1.722  86.189 113.176  0.00  0.00     0.016 C 
ATOM      3  C   LIG d   1       2.781  86.627 112.347  0.00  0.00     0.038 C 
ATOM      4  C   LIG d   1       3.193  85.896 111.223  0.00  0.00     0.028 C 
ATOM      5  C   LIG d   1       2.938  84.398 111.347  0.00  0.00    -0.047 C 
ATOM      6  C   LIG d   1       1.463  84.171 111.750  0.00  0.00     0.091 C 
ENDROOT
BRANCH   1   7
ATOM      7  O   LIG d   1      -0.328  85.083 113.152  0.00  0.00    -0.368 OA
BRANCH   7   8
ATOM      8  C   LIG d   1      -0.941  84.484 114.320  0.00  0.00     0.119 C 
BRANCH   8   9
ATOM      9  C   LIG d   1      -1.576  85.621 115.144  0.00  0.00     0.028 C 
ATOM     10  C   LIG d   1      -0.779  85.937 116.420  0.00  0.00     0.006 C 
ENDBRANCH   8   9
BRANCH   8  11
ATOM     11  C   LIG d   1       0.109  83.855 115.240  0.00  0.00     0.028 C 
ATOM     12  C   LIG d   1      -0.039  82.330 115.358  0.00  0.00     0.006 C 
ENDBRANCH   8  11
ENDBRANCH   7   8
ENDBRANCH   1   7
BRANCH   6  13
ATOM     13  N   LIG d   1       1.151  82.736 111.975  0.00  0.00    -0.311 N 
ATOM     14  C   LIG d   1       0.054  82.142 111.508  0.00  0.00     0.210 C 
ATOM     15  C   LIG d   1      -0.084  80.660 111.872  0.00  0.00     0.109 C 
ATOM     16  O   LIG d   1      -0.802  82.694 110.801  0.00  0.00    -0.276 OA
ATOM     17  H   LIG d   1       1.808  82.205 112.513  0.00  0.00     0.149 HD
ENDBRANCH   6  13
BRANCH   5  18
ATOM     18  N   LIG d   1       3.287  83.778 110.055  0.00  0.00     0.381 N 
ATOM     19  H   LIG d   1       2.729  84.177 109.327  0.00  0.00    -0.090 HD
ATOM     20  H   LIG d   1       3.087  82.794 110.102  0.00  0.00    -0.090 HD
ATOM     21  H   LIG d   1       4.253  83.919 109.859  0.00  0.00    -0.090 HD
ENDBRANCH   5  18
BRANCH   3  22
ATOM     22  C   LIG d   1       3.466  87.790 112.665  0.00  0.00     0.382 C 
ATOM     23  O   LIG d   1       2.893  88.698 113.313  0.00  0.00    -0.241 OA
ATOM     24  O   LIG d   1       4.636  87.961 112.273  0.00  0.00    -0.241 OA
ENDBRANCH   3  22
TORSDOF 7
ENDMDL
MODEL 3
REMARK VINA RESULT:      -5.3      2.225      4.538
REMARK  7 active torsions:
REMARK  status: ('A' for Active; 'I' for Inactive)
REMARK    1  A    between atoms: C_2  and  C_3 
REMARK    2  A    between atoms: C_3  and  O_6 
REMARK    3  A    between atoms: C_3  and  C_4 
REMARK    4  A    between atoms: C_7  and  O_6 
REMARK    5  A    between atoms: C_9  and  C_10 
REMARK    6  A    between atoms: N_15  and  C_14 
REMARK    7  A    between atoms: N_20  and  C_19 
REMARK       I    between atoms: C_22  and  N_20 
ROOT
ATOM      1  C   LIG d   1       2.761  85.818 112.262  0.00  0.00     0.161 C 
ATOM      2  C   LIG d   1       3.721  86.841 112.194  0.00  0.00     0.016 C 
ATOM      3  C   LIG d   1       3.980  87.737 113.258  0.00  0.00     0.038 C 
ATOM      4  C   LIG d   1       3.399  87.572 114.524  0.00  0.00     0.028 C 
ATOM      5  C   LIG d   1       2.050  86.862 114.483  0.00  0.00    -0.047 C 
ATOM      6  C   LIG d   1       2.196  85.554 113.673  0.00  0.00     0.091 C 
ENDROOT
BRANCH   1   7
ATOM      7  O   LIG d   1       3.301  84.604 111.703  0.00  0.00    -0.368 OA
BRANCH   7   8
ATOM      8  C   LIG d   1       2.935  84.316 110.331  0.00  0.00     0.119 C 
BRANCH   8   9
ATOM      9  C   LIG d   1       1.469  84.753 110.141  0.00  0.00     0.028 C 
ATOM     10  C   LIG d   1       0.506  83.557 110.062  0.00  0.00     0.006 C 
ENDBRANCH   8   9
BRANCH   8  11
ATOM     11  C   LIG d   1       2.948  82.810 110.055  0.00  0.00     0.028 C 
ATOM     12  C   LIG d   1       4.266  82.139 110.472  0.00  0.00     0.006 C 
ENDBRANCH   8  11
ENDBRANCH   7   8
ENDBRANCH   1   7
BRANCH   6  13
ATOM     13  N   LIG d   1       0.903  84.839 113.513  0.00  0.00    -0.311 N 
ATOM     14  C   LIG d   1       0.549  83.788 114.252  0.00  0.00     0.210 C 
ATOM     15  C   LIG d   1      -0.818  83.188 113.910  0.00  0.00     0.109 C 
ATOM     16  O   LIG d   1       1.224  83.317 115.179  0.00  0.00    -0.276 OA
ATOM     17  H   LIG d   1       0.280  85.175 112.804  0.00  0.00     0.149 HD
ENDBRANCH   6  13
BRANCH   5  18
ATOM     18  N   LIG d   1       1.623  86.635 115.877  0.00  0.00     0.381 N 
ATOM     19  H   LIG d   1       1.034  87.386 116.177  0.00  0.00    -0.090 HD
ATOM     20  H   LIG d   1       2.437  86.618 116.467  0.00  0.00    -0.090 HD
ATOM     21  H   LIG d   1       1.134  85.770 115.947  0.00  0.00    -0.090 HD
ENDBRANCH   5  18
BRANCH   3  22
ATOM     22  C   LIG d   1       4.800  88.834 113.047  0.00  0.00     0.382 C 
ATOM     23  O   LIG d   1       5.940  88.679 112.545  0.00  0.00    -0.241 OA
ATOM     24  O   LIG d   1       4.433  89.973 113.393  0.00  0.00    -0.241 OA
ENDBRANCH   3  22
TORSDOF 7
ENDMDL
MODEL 4
REMARK VINA RESULT:      -5.3      2.884      6.171
REMARK  7 active torsions:
REMARK  status: ('A' for Active; 'I' for Inactive)
REMARK    1  A    between atoms: C_2  and  C_3 
REMARK    2  A    between atoms: C_3  and  O_6 
REMARK    3  A    between atoms: C_3  and  C_4 
REMARK    4  A    between atoms: C_7  and  O_6 
REMARK    5  A    between atoms: C_9  and  C_10 
REMARK    6  A    between atoms: N_15  and  C_14 
REMARK    7  A    between atoms: N_20  and  C_19 
REMARK       I    between atoms: C_22  and  N_20 
ROOT
ATOM      1  C   LIG d   1      -0.267  83.587 113.183  0.00  0.00     0.161 C 
ATOM      2  C   LIG d   1      -1.320  82.689 113.422  0.00  0.00     0.016 C 
ATOM      3  C   LIG d   1      -1.551  81.533 112.641  0.00  0.00     0.038 C 
ATOM      4  C   LIG d   1      -0.647  81.113 111.654  0.00  0.00     0.028 C 
ATOM      5  C   LIG d   1       0.156  82.257 111.042  0.00  0.00    -0.047 C 
ATOM      6  C   LIG d   1       0.794  83.086 112.180  0.00  0.00     0.091 C 
ENDROOT
BRANCH   1   7
ATOM      7  O   LIG d   1       0.356  83.954 114.430  0.00  0.00    -0.368 OA
BRANCH   7   8
ATOM      8  C   LIG d   1      -0.508  83.972 115.593  0.00  0.00     0.119 C 
BRANCH   8   9
ATOM      9  C   LIG d   1      -0.752  85.447 115.964  0.00  0.00     0.028 C 
ATOM     10  C   LIG d   1      -2.114  85.960 115.465  0.00  0.00     0.006 C 
ENDBRANCH   8   9
BRANCH   8  11
ATOM     11  C   LIG d   1       0.186  83.356 116.812  0.00  0.00     0.028 C 
ATOM     12  C   LIG d   1      -0.319  83.938 118.141  0.00  0.00     0.006 C 
ENDBRANCH   8  11
ENDBRANCH   7   8
ENDBRANCH   1   7
BRANCH   6  13
ATOM     13  N   LIG d   1       1.529  84.274 111.672  0.00  0.00    -0.311 N 
ATOM     14  C   LIG d   1       2.834  84.463 111.856  0.00  0.00     0.210 C 
ATOM     15  C   LIG d   1       3.389  85.764 111.268  0.00  0.00     0.109 C 
ATOM     16  O   LIG d   1       3.592  83.661 112.423  0.00  0.00    -0.276 OA
ATOM     17  H   LIG d   1       0.997  84.960 111.173  0.00  0.00     0.149 HD
ENDBRANCH   6  13
BRANCH   5  18
ATOM     18  N   LIG d   1       1.153  81.663 110.131  0.00  0.00     0.381 N 
ATOM     19  H   LIG d   1       0.795  80.812 109.746  0.00  0.00    -0.090 HD
ATOM     20  H   LIG d   1       1.984  81.449 110.653  0.00  0.00    -0.090 HD
ATOM     21  H   LIG d   1       1.368  82.303 109.398  0.00  0.00    -0.090 HD
ENDBRANCH   5  18
BRANCH   3  22
ATOM     22  C   LIG d   1      -2.717  80.805 112.819  0.00  0.00     0.382 C 
ATOM     23  O   LIG d   1      -2.708  79.769 113.526  0.00  0.00    -0.241 OA
ATOM     24  O   LIG d   1      -3.769  81.147 112.245  0.00  0.00    -0.241 OA
ENDBRANCH   3  22
TORSDOF 7
ENDMDL
MODEL 5
REMARK VINA RESULT:      -5.1      2.539      4.237
REMARK  7 active torsions:
REMARK  status: ('A' for Active; 'I' for Inactive)
REMARK    1  A    between atoms: C_2  and  C_3 
REMARK    2  A    between atoms: C_3  and  O_6 
REMARK    3  A    between atoms: C_3  and  C_4 
REMARK    4  A    between atoms: C_7  and  O_6 
REMARK    5  A    between atoms: C_9  and  C_10 
REMARK    6  A    between atoms: N_15  and  C_14 
REMARK    7  A    between atoms: N_20  and  C_19 
REMARK       I    between atoms: C_22  and  N_20 
ROOT
ATOM      1  C   LIG d   1       2.649  86.075 112.749  0.00  0.00     0.161 C 
ATOM      2  C   LIG d   1       3.503  87.172 112.546  0.00  0.00     0.016 C 
ATOM      3  C   LIG d   1       4.221  87.802 113.588  0.00  0.00     0.038 C 
ATOM      4  C   LIG d   1       4.251  87.280 114.890  0.00  0.00     0.028 C 
ATOM      5  C   LIG d   1       3.007  86.474 115.248  0.00  0.00    -0.047 C 
ATOM      6  C   LIG d   1       2.756  85.422 114.143  0.00  0.00     0.091 C 
ENDROOT
BRANCH   1   7
ATOM      7  O   LIG d   1       2.863  85.092 111.718  0.00  0.00    -0.368 OA
BRANCH   7   8
ATOM      8  C   LIG d   1       1.685  84.662 110.993  0.00  0.00     0.119 C 
BRANCH   8   9
ATOM      9  C   LIG d   1       2.107  83.503 110.068  0.00  0.00     0.028 C 
ATOM     10  C   LIG d   1       3.466  82.901 110.465  0.00  0.00     0.006 C 
ENDBRANCH   8   9
BRANCH   8  11
ATOM     11  C   LIG d   1       1.174  85.761 110.057  0.00  0.00     0.028 C 
ATOM     12  C   LIG d   1      -0.335  86.015 110.204  0.00  0.00     0.006 C 
ENDBRANCH   8  11
ENDBRANCH   7   8
ENDBRANCH   1   7
BRANCH   6  13
ATOM     13  N   LIG d   1       1.509  84.646 114.373  0.00  0.00    -0.311 N 
ATOM     14  C   LIG d   1       1.476  83.317 114.446  0.00  0.00     0.210 C 
ATOM     15  C   LIG d   1       0.084  82.716 114.668  0.00  0.00     0.109 C 
ATOM     16  O   LIG d   1       2.471  82.580 114.380  0.00  0.00    -0.276 OA
ATOM     17  H   LIG d   1       0.659  85.167 114.468  0.00  0.00     0.149 HD
ENDBRANCH   6  13
BRANCH   5  18
ATOM     18  N   LIG d   1       3.232  85.874 116.577  0.00  0.00     0.381 N 
ATOM     19  H   LIG d   1       2.838  84.955 116.605  0.00  0.00    -0.090 HD
ATOM     20  H   LIG d   1       2.769  86.437 117.269  0.00  0.00    -0.090 HD
ATOM     21  H   LIG d   1       4.208  85.831 116.771  0.00  0.00    -0.090 HD
ENDBRANCH   5  18
BRANCH   3  22
ATOM     22  C   LIG d   1       4.888  88.993 113.341  0.00  0.00     0.382 C 
ATOM     23  O   LIG d   1       4.555  90.036 113.952  0.00  0.00    -0.241 OA
ATOM     24  O   LIG d   1       5.789  89.045 112.483  0.00  0.00    -0.241 OA
ENDBRANCH   3  22
TORSDOF 7
ENDMDL
MODEL 6
REMARK VINA RESULT:      -4.9      2.609      3.873
REMARK  7 active torsions:
REMARK  status: ('A' for Active; 'I' for Inactive)
REMARK    1  A    between atoms: C_2  and  C_3 
REMARK    2  A    between atoms: C_3  and  O_6 
REMARK    3  A    between atoms: C_3  and  C_4 
REMARK    4  A    between atoms: C_7  and  O_6 
REMARK    5  A    between atoms: C_9  and  C_10 
REMARK    6  A    between atoms: N_15  and  C_14 
REMARK    7  A    between atoms: N_20  and  C_19 
REMARK       I    between atoms: C_22  and  N_20 
ROOT
ATOM      1  C   LIG d   1       2.971  87.594 114.662  0.00  0.00     0.161 C 
ATOM      2  C   LIG d   1       3.203  88.365 115.814  0.00  0.00     0.016 C 
ATOM      3  C   LIG d   1       4.270  89.284 115.934  0.00  0.00     0.038 C 
ATOM      4  C   LIG d   1       5.096  89.607 114.847  0.00  0.00     0.028 C 
ATOM      5  C   LIG d   1       5.213  88.486 113.821  0.00  0.00    -0.047 C 
ATOM      6  C   LIG d   1       3.795  88.015 113.427  0.00  0.00     0.091 C 
ENDROOT
BRANCH   1   7
ATOM      7  O   LIG d   1       1.564  87.593 114.349  0.00  0.00    -0.368 OA
BRANCH   7   8
ATOM      8  C   LIG d   1       0.894  86.312 114.434  0.00  0.00     0.119 C 
BRANCH   8   9
ATOM      9  C   LIG d   1      -0.199  86.432 115.514  0.00  0.00     0.028 C 
ATOM     10  C   LIG d   1       0.334  86.130 116.925  0.00  0.00     0.006 C 
ENDBRANCH   8   9
BRANCH   8  11
ATOM     11  C   LIG d   1       1.842  85.219 114.937  0.00  0.00     0.028 C 
ATOM     12  C   LIG d   1       1.965  84.041 113.958  0.00  0.00     0.006 C 
ENDBRANCH   8  11
ENDBRANCH   7   8
ENDBRANCH   1   7
BRANCH   6  13
ATOM     13  N   LIG d   1       3.820  86.863 112.489  0.00  0.00    -0.311 N 
ATOM     14  C   LIG d   1       3.013  86.758 111.434  0.00  0.00     0.210 C 
ATOM     15  C   LIG d   1       3.190  85.479 110.609  0.00  0.00     0.109 C 
ATOM     16  O   LIG d   1       2.190  87.617 111.085  0.00  0.00    -0.276 OA
ATOM     17  H   LIG d   1       4.479  86.134 112.679  0.00  0.00     0.149 HD
ENDBRANCH   6  13
BRANCH   5  18
ATOM     18  N   LIG d   1       5.988  89.006 112.678  0.00  0.00     0.381 N 
ATOM     19  H   LIG d   1       6.509  89.812 112.961  0.00  0.00    -0.090 HD
ATOM     20  H   LIG d   1       5.351  89.282 111.952  0.00  0.00    -0.090 HD
ATOM     21  H   LIG d   1       6.607  88.304 112.338  0.00  0.00    -0.090 HD
ENDBRANCH   5  18
BRANCH   3  22
ATOM     22  C   LIG d   1       4.546  89.860 117.165  0.00  0.00     0.382 C 
ATOM     23  O   LIG d   1       5.421  90.754 117.256  0.00  0.00    -0.241 OA
ATOM     24  O   LIG d   1       3.961  89.466 118.192  0.00  0.00    -0.241 OA
ENDBRANCH   3  22
TORSDOF 7
ENDMDL
MODEL 7
REMARK VINA RESULT:      -4.6     24.311     26.342
REMARK  7 active torsions:
REMARK  status: ('A' for Active; 'I' for Inactive)
REMARK    1  A    between atoms: C_2  and  C_3 
REMARK    2  A    between atoms: C_3  and  O_6 
REMARK    3  A    between atoms: C_3  and  C_4 
REMARK    4  A    between atoms: C_7  and  O_6 
REMARK    5  A    between atoms: C_9  and  C_10 
REMARK    6  A    between atoms: N_15  and  C_14 
REMARK    7  A    between atoms: N_20  and  C_19 
REMARK       I    between atoms: C_22  and  N_20 
ROOT
ATOM      1  C   LIG d   1     -23.474  83.079 115.483  0.00  0.00     0.161 C 
ATOM      2  C   LIG d   1     -22.995  84.399 115.465  0.00  0.00     0.016 C 
ATOM      3  C   LIG d   1     -23.138  85.263 114.355  0.00  0.00     0.038 C 
ATOM      4  C   LIG d   1     -23.907  84.911 113.235  0.00  0.00     0.028 C 
ATOM      5  C   LIG d   1     -23.981  83.406 113.001  0.00  0.00    -0.047 C 
ATOM      6  C   LIG d   1     -24.412  82.714 114.314  0.00  0.00     0.091 C 
ENDROOT
BRANCH   1   7
ATOM      7  O   LIG d   1     -24.117  82.810 116.745  0.00  0.00    -0.368 OA
BRANCH   7   8
ATOM      8  C   LIG d   1     -25.525  83.144 116.826  0.00  0.00     0.119 C 
BRANCH   8   9
ATOM      9  C   LIG d   1     -25.667  84.310 117.823  0.00  0.00     0.028 C 
ATOM     10  C   LIG d   1     -26.009  85.638 117.127  0.00  0.00     0.006 C 
ENDBRANCH   8   9
BRANCH   8  11
ATOM     11  C   LIG d   1     -26.336  81.994 117.430  0.00  0.00     0.028 C 
ATOM     12  C   LIG d   1     -25.493  80.732 117.672  0.00  0.00     0.006 C 
ENDBRANCH   8  11
ENDBRANCH   7   8
ENDBRANCH   1   7
BRANCH   6  13
ATOM     13  N   LIG d   1     -24.428  81.233 114.195  0.00  0.00    -0.311 N 
ATOM     14  C   LIG d   1     -25.525  80.532 113.915  0.00  0.00     0.210 C 
ATOM     15  C   LIG d   1     -25.326  79.014 113.859  0.00  0.00     0.109 C 
ATOM     16  O   LIG d   1     -26.638  81.025 113.677  0.00  0.00    -0.276 OA
ATOM     17  H   LIG d   1     -23.561  80.754 114.343  0.00  0.00     0.149 HD
ENDBRANCH   6  13
BRANCH   5  18
ATOM     18  N   LIG d   1     -24.923  83.174 111.889  0.00  0.00     0.381 N 
ATOM     19  H   LIG d   1     -25.177  82.207 111.856  0.00  0.00    -0.090 HD
ATOM     20  H   LIG d   1     -24.469  83.411 111.024  0.00  0.00    -0.090 HD
ATOM     21  H   LIG d   1     -25.737  83.735 112.010  0.00  0.00    -0.090 HD
ENDBRANCH   5  18
BRANCH   3  22
ATOM     22  C   LIG d   1     -22.473  86.480 114.341  0.00  0.00     0.382 C 
ATOM     23  O   LIG d   1     -21.424  86.614 113.665  0.00  0.00    -0.241 OA
ATOM     24  O   LIG d   1     -22.884  87.432 115.030  0.00  0.00    -0.241 OA
ENDBRANCH   3  22
TORSDOF 7
ENDMDL
MODEL 8
REMARK VINA RESULT:      -4.6     24.515     27.447
REMARK  7 active torsions:
REMARK  status: ('A' for Active; 'I' for Inactive)
REMARK    1  A    between atoms: C_2  and  C_3 
REMARK    2  A    between atoms: C_3  and  O_6 
REMARK    3  A    between atoms: C_3  and  C_4 
REMARK    4  A    between atoms: C_7  and  O_6 
REMARK    5  A    between atoms: C_9  and  C_10 
REMARK    6  A    between atoms: N_15  and  C_14 
REMARK    7  A    between atoms: N_20  and  C_19 
REMARK       I    between atoms: C_22  and  N_20 
ROOT
ATOM      1  C   LIG d   1     -25.875  85.295 113.556  0.00  0.00     0.161 C 
ATOM      2  C   LIG d   1     -24.817  86.171 113.851  0.00  0.00     0.016 C 
ATOM      3  C   LIG d   1     -23.457  85.785 113.827  0.00  0.00     0.038 C 
ATOM      4  C   LIG d   1     -23.052  84.528 113.355  0.00  0.00     0.028 C 
ATOM      5  C   LIG d   1     -24.112  83.446 113.526  0.00  0.00    -0.047 C 
ATOM      6  C   LIG d   1     -25.446  83.951 112.931  0.00  0.00     0.091 C 
ENDROOT
BRANCH   1   7
ATOM      7  O   LIG d   1     -26.836  85.957 112.710  0.00  0.00    -0.368 OA
BRANCH   7   8
ATOM      8  C   LIG d   1     -27.661  86.963 113.348  0.00  0.00     0.119 C 
BRANCH   8   9
ATOM      9  C   LIG d   1     -29.056  86.346 113.566  0.00  0.00     0.028 C 
ATOM     10  C   LIG d   1     -29.513  85.491 112.372  0.00  0.00     0.006 C 
ENDBRANCH   8   9
BRANCH   8  11
ATOM     11  C   LIG d   1     -27.889  88.164 112.426  0.00  0.00     0.028 C 
ATOM     12  C   LIG d   1     -26.728  89.170 112.460  0.00  0.00     0.006 C 
ENDBRANCH   8  11
ENDBRANCH   7   8
ENDBRANCH   1   7
BRANCH   6  13
ATOM     13  N   LIG d   1     -26.559  82.986 113.133  0.00  0.00    -0.311 N 
ATOM     14  C   LIG d   1     -27.366  82.583 112.153  0.00  0.00     0.210 C 
ATOM     15  C   LIG d   1     -28.460  81.600 112.580  0.00  0.00     0.109 C 
ATOM     16  O   LIG d   1     -27.259  82.920 110.964  0.00  0.00    -0.276 OA
ATOM     17  H   LIG d   1     -26.698  82.638 114.061  0.00  0.00     0.149 HD
ENDBRANCH   6  13
BRANCH   5  18
ATOM     18  N   LIG d   1     -23.612  82.223 112.869  0.00  0.00     0.381 N 
ATOM     19  H   LIG d   1     -24.040  82.123 111.970  0.00  0.00    -0.090 HD
ATOM     20  H   LIG d   1     -23.864  81.427 113.429  0.00  0.00    -0.090 HD
ATOM     21  H   LIG d   1     -22.622  82.270 112.771  0.00  0.00    -0.090 HD
ENDBRANCH   5  18
BRANCH   3  22
ATOM     22  C   LIG d   1     -22.489  86.648 114.316  0.00  0.00     0.382 C 
ATOM     23  O   LIG d   1     -22.747  87.392 115.293  0.00  0.00    -0.241 OA
ATOM     24  O   LIG d   1     -21.375  86.725 113.765  0.00  0.00    -0.241 OA
ENDBRANCH   3  22
TORSDOF 7
ENDMDL
MODEL 9
REMARK VINA RESULT:      -4.2      2.760      4.859
REMARK  7 active torsions:
REMARK  status: ('A' for Active; 'I' for Inactive)
REMARK    1  A    between atoms: C_2  and  C_3 
REMARK    2  A    between atoms: C_3  and  O_6 
REMARK    3  A    between atoms: C_3  and  C_4 
REMARK    4  A    between atoms: C_7  and  O_6 
REMARK    5  A    between atoms: C_9  and  C_10 
REMARK    6  A    between atoms: N_15  and  C_14 
REMARK    7  A    between atoms: N_20  and  C_19 
REMARK       I    between atoms: C_22  and  N_20 
ROOT
ATOM      1  C   LIG d   1       1.272  85.652 114.158  0.00  0.00     0.161 C 
ATOM      2  C   LIG d   1       0.309  85.464 113.152  0.00  0.00     0.016 C 
ATOM      3  C   LIG d   1       0.546  85.743 111.786  0.00  0.00     0.038 C 
ATOM      4  C   LIG d   1       1.820  86.088 111.310  0.00  0.00     0.028 C 
ATOM      5  C   LIG d   1       2.691  86.777 112.355  0.00  0.00    -0.047 C 
ATOM      6  C   LIG d   1       2.701  85.922 113.643  0.00  0.00     0.091 C 
ENDROOT
BRANCH   1   7
ATOM      7  O   LIG d   1       1.267  84.524 115.055  0.00  0.00    -0.368 OA
BRANCH   7   8
ATOM      8  C   LIG d   1      -0.031  83.960 115.363  0.00  0.00     0.119 C 
BRANCH   8   9
ATOM      9  C   LIG d   1      -0.335  84.275 116.840  0.00  0.00     0.028 C 
ATOM     10  C   LIG d   1       0.944  84.469 117.673  0.00  0.00     0.006 C 
ENDBRANCH   8   9
BRANCH   8  11
ATOM     11  C   LIG d   1      -0.011  82.431 115.270  0.00  0.00     0.028 C 
ATOM     12  C   LIG d   1      -0.604  81.906 113.953  0.00  0.00     0.006 C 
ENDBRANCH   8  11
ENDBRANCH   7   8
ENDBRANCH   1   7
BRANCH   6  13
ATOM     13  N   LIG d   1       3.462  86.566 114.745  0.00  0.00    -0.311 N 
ATOM     14  C   LIG d   1       4.279  85.899 115.559  0.00  0.00     0.210 C 
ATOM     15  C   LIG d   1       4.950  86.751 116.641  0.00  0.00     0.109 C 
ATOM     16  O   LIG d   1       4.537  84.689 115.467  0.00  0.00    -0.276 OA
ATOM     17  H   LIG d   1       3.336  87.551 114.871  0.00  0.00     0.149 HD
ENDBRANCH   6  13
BRANCH   5  18
ATOM     18  N   LIG d   1       4.033  86.956 111.769  0.00  0.00     0.381 N 
ATOM     19  H   LIG d   1       4.048  86.589 110.839  0.00  0.00    -0.090 HD
ATOM     20  H   LIG d   1       4.699  86.444 112.321  0.00  0.00    -0.090 HD
ATOM     21  H   LIG d   1       4.274  87.923 111.757  0.00  0.00    -0.090 HD
ENDBRANCH   5  18
BRANCH   3  22
ATOM     22  C   LIG d   1      -0.508  85.717 110.886  0.00  0.00     0.382 C 
ATOM     23  O   LIG d   1      -0.655  84.733 110.121  0.00  0.00    -0.241 OA
ATOM     24  O   LIG d   1      -1.289  86.683 110.799  0.00  0.00    -0.241 OA
ENDBRANCH   3  22
TORSDOF 7
ENDMDL
