MODEL 1
REMARK VINA RESULT:      -5.7      0.000      0.000
REMARK  7 active torsions:
REMARK  status: ('A' for Active; 'I' for Inactive)
REMARK    1  A    between atoms: C_2  and  C_3 
REMARK    2  A    between atoms: C_3  and  O_6 
REMARK    3  A    between atoms: C_3  and  C_4 
REMARK    4  A    between atoms: C_7  and  O_6 
REMARK    5  A    between atoms: C_9  and  C_10 
REMARK    6  A    between atoms: N_15  and  C_14 
REMARK    7  A    between atoms: N_20  and  C_19 
REMARK       I    between atoms: C_22  and  N_20 
ROOT
ATOM      1  C   LIG d   1       2.460  84.681 112.774  0.00  0.00     0.161 C 
ATOM      2  C   LIG d   1       1.287  84.327 112.087  0.00  0.00     0.016 C 
ATOM      3  C   LIG d   1       0.479  85.259 111.394  0.00  0.00     0.038 C 
ATOM      4  C   LIG d   1       0.875  86.592 111.214  0.00  0.00     0.028 C 
ATOM      5  C   LIG d   1       1.797  87.105 112.315  0.00  0.00    -0.047 C 
ATOM      6  C   LIG d   1       2.967  86.111 112.494  0.00  0.00     0.091 C 
ENDROOT
BRANCH   1   7
ATOM      7  O   LIG d   1       3.497  83.719 112.496  0.00  0.00    -0.368 OA
BRANCH   7   8
ATOM      8  C   LIG d   1       3.374  82.990 111.250  0.00  0.00     0.119 C 
BRANCH   8   9
ATOM      9  C   LIG d   1       3.368  81.487 111.592  0.00  0.00     0.028 C 
ATOM     10  C   LIG d   1       2.136  80.761 111.025  0.00  0.00     0.006 C 
ENDBRANCH   8   9
BRANCH   8  11
ATOM     11  C   LIG d   1       4.601  83.199 110.359  0.00  0.00     0.028 C 
ATOM     12  C   LIG d   1       5.625  82.058 110.477  0.00  0.00     0.006 C 
ENDBRANCH   8  11
ENDBRANCH   7   8
ENDBRANCH   1   7
BRANCH   6  13
ATOM     13  N   LIG d   1       3.870  86.494 113.610  0.00  0.00    -0.311 N 
ATOM     14  C   LIG d   1       4.945  87.265 113.452  0.00  0.00     0.210 C 
ATOM     15  C   LIG d   1       5.751  87.521 114.730  0.00  0.00     0.109 C 
ATOM     16  O   LIG d   1       5.289  87.787 112.381  0.00  0.00    -0.276 OA
ATOM     17  H   LIG d   1       3.647  86.140 114.520  0.00  0.00     0.149 HD
ENDBRANCH   6  13
BRANCH   5  18
ATOM     18  N   LIG d   1       2.241  88.458 111.931  0.00  0.00     0.381 N 
ATOM     19  H   LIG d   1       3.230  88.539 112.060  0.00  0.00    -0.090 HD
ATOM     20  H   LIG d   1       1.789  89.130 112.526  0.00  0.00    -0.090 HD
ATOM     21  H   LIG d   1       2.007  88.636 110.979  0.00  0.00    -0.090 HD
ENDBRANCH   5  18
BRANCH   3  22
ATOM     22  C   LIG d   1      -0.759  84.867 110.908  0.00  0.00     0.382 C 
ATOM     23  O   LIG d   1      -1.475  85.688 110.284  0.00  0.00    -0.241 OA
ATOM     24  O   LIG d   1      -1.187  83.718 111.122  0.00  0.00    -0.241 OA
ENDBRANCH   3  22
TORSDOF 7
ENDMDL
MODEL 2
REMARK VINA RESULT:      -5.6      3.107      5.188
REMARK  7 active torsions:
REMARK  status: ('A' for Active; 'I' for Inactive)
REMARK    1  A    between atoms: C_2  and  C_3 
REMARK    2  A    between atoms: C_3  and  O_6 
REMARK    3  A    between atoms: C_3  and  C_4 
REMARK    4  A    between atoms: C_7  and  O_6 
REMARK    5  A    between atoms: C_9  and  C_10 
REMARK    6  A    between atoms: N_15  and  C_14 
REMARK    7  A    between atoms: N_20  and  C_19 
REMARK       I    between atoms: C_22  and  N_20 
ROOT
ATOM      1  C   LIG d   1       1.664  82.967 110.203  0.00  0.00     0.161 C 
ATOM      2  C   LIG d   1       1.931  84.334 110.383  0.00  0.00     0.016 C 
ATOM      3  C   LIG d   1       1.233  85.148 111.304  0.00  0.00     0.038 C 
ATOM      4  C   LIG d   1       0.317  84.612 112.222  0.00  0.00     0.028 C 
ATOM      5  C   LIG d   1      -0.349  83.330 111.734  0.00  0.00    -0.047 C 
ATOM      6  C   LIG d   1       0.746  82.340 111.273  0.00  0.00     0.091 C 
ENDROOT
BRANCH   1   7
ATOM      7  O   LIG d   1       2.903  82.235 110.115  0.00  0.00    -0.368 OA
BRANCH   7   8
ATOM      8  C   LIG d   1       4.021  82.784 110.855  0.00  0.00     0.119 C 
BRANCH   8   9
ATOM      9  C   LIG d   1       5.309  82.181 110.262  0.00  0.00     0.028 C 
ATOM     10  C   LIG d   1       5.204  80.660 110.056  0.00  0.00     0.006 C 
ENDBRANCH   8   9
BRANCH   8  11
ATOM     11  C   LIG d   1       3.998  82.332 112.318  0.00  0.00     0.028 C 
ATOM     12  C   LIG d   1       5.277  82.712 113.080  0.00  0.00     0.006 C 
ENDBRANCH   8  11
ENDBRANCH   7   8
ENDBRANCH   1   7
BRANCH   6  13
ATOM     13  N   LIG d   1       0.177  81.092 110.702  0.00  0.00    -0.311 N 
ATOM     14  C   LIG d   1      -0.067  80.000 111.425  0.00  0.00     0.210 C 
ATOM     15  C   LIG d   1      -0.636  78.816 110.636  0.00  0.00     0.109 C 
ATOM     16  O   LIG d   1       0.103  79.910 112.650  0.00  0.00    -0.276 OA
ATOM     17  H   LIG d   1      -0.021  81.087 109.720  0.00  0.00     0.149 HD
ENDBRANCH   6  13
BRANCH   5  18
ATOM     18  N   LIG d   1      -1.172  82.806 112.840  0.00  0.00     0.381 N 
ATOM     19  H   LIG d   1      -1.093  81.810 112.879  0.00  0.00    -0.090 HD
ATOM     20  H   LIG d   1      -2.134  83.040 112.668  0.00  0.00    -0.090 HD
ATOM     21  H   LIG d   1      -0.875  83.204 113.704  0.00  0.00    -0.090 HD
ENDBRANCH   5  18
BRANCH   3  22
ATOM     22  C   LIG d   1       1.420  86.522 111.286  0.00  0.00     0.382 C 
ATOM     23  O   LIG d   1       2.511  87.001 110.896  0.00  0.00    -0.241 OA
ATOM     24  O   LIG d   1       0.526  87.287 111.698  0.00  0.00    -0.241 OA
ENDBRANCH   3  22
TORSDOF 7
ENDMDL
MODEL 3
REMARK VINA RESULT:      -5.5      1.917      4.819
REMARK  7 active torsions:
REMARK  status: ('A' for Active; 'I' for Inactive)
REMARK    1  A    between atoms: C_2  and  C_3 
REMARK    2  A    between atoms: C_3  and  O_6 
REMARK    3  A    between atoms: C_3  and  C_4 
REMARK    4  A    between atoms: C_7  and  O_6 
REMARK    5  A    between atoms: C_9  and  C_10 
REMARK    6  A    between atoms: N_15  and  C_14 
REMARK    7  A    between atoms: N_20  and  C_19 
REMARK       I    between atoms: C_22  and  N_20 
ROOT
ATOM      1  C   LIG d   1       4.064  85.048 112.539  0.00  0.00     0.161 C 
ATOM      2  C   LIG d   1       4.677  86.249 112.933  0.00  0.00     0.016 C 
ATOM      3  C   LIG d   1       4.123  87.525 112.681  0.00  0.00     0.038 C 
ATOM      4  C   LIG d   1       2.834  87.681 112.149  0.00  0.00     0.028 C 
ATOM      5  C   LIG d   1       2.394  86.512 111.275  0.00  0.00    -0.047 C 
ATOM      6  C   LIG d   1       2.606  85.195 112.056  0.00  0.00     0.091 C 
ENDROOT
BRANCH   1   7
ATOM      7  O   LIG d   1       4.143  84.086 113.609  0.00  0.00    -0.368 OA
BRANCH   7   8
ATOM      8  C   LIG d   1       4.920  82.893 113.338  0.00  0.00     0.119 C 
BRANCH   8   9
ATOM      9  C   LIG d   1       5.561  83.065 111.948  0.00  0.00     0.028 C 
ATOM     10  C   LIG d   1       5.299  81.861 111.028  0.00  0.00     0.006 C 
ENDBRANCH   8   9
BRANCH   8  11
ATOM     11  C   LIG d   1       4.022  81.658 113.221  0.00  0.00     0.028 C 
ATOM     12  C   LIG d   1       2.789  81.729 114.135  0.00  0.00     0.006 C 
ENDBRANCH   8  11
ENDBRANCH   7   8
ENDBRANCH   1   7
BRANCH   6  13
ATOM     13  N   LIG d   1       2.278  83.994 111.243  0.00  0.00    -0.311 N 
ATOM     14  C   LIG d   1       1.096  83.382 111.283  0.00  0.00     0.210 C 
ATOM     15  C   LIG d   1       0.975  82.151 110.380  0.00  0.00     0.109 C 
ATOM     16  O   LIG d   1       0.125  83.762 111.955  0.00  0.00    -0.276 OA
ATOM     17  H   LIG d   1       2.998  83.638 110.646  0.00  0.00     0.149 HD
ENDBRANCH   6  13
BRANCH   5  18
ATOM     18  N   LIG d   1       0.986  86.741 110.900  0.00  0.00     0.381 N 
ATOM     19  H   LIG d   1       0.433  85.948 111.157  0.00  0.00    -0.090 HD
ATOM     20  H   LIG d   1       0.929  86.855 109.903  0.00  0.00    -0.090 HD
ATOM     21  H   LIG d   1       0.640  87.557 111.355  0.00  0.00    -0.090 HD
ENDBRANCH   5  18
BRANCH   3  22
ATOM     22  C   LIG d   1       4.876  88.662 112.927  0.00  0.00     0.382 C 
ATOM     23  O   LIG d   1       4.306  89.747 113.197  0.00  0.00    -0.241 OA
ATOM     24  O   LIG d   1       6.118  88.629 112.838  0.00  0.00    -0.241 OA
ENDBRANCH   3  22
TORSDOF 7
ENDMDL
MODEL 4
REMARK VINA RESULT:      -5.5      1.937      2.585
REMARK  7 active torsions:
REMARK  status: ('A' for Active; 'I' for Inactive)
REMARK    1  A    between atoms: C_2  and  C_3 
REMARK    2  A    between atoms: C_3  and  O_6 
REMARK    3  A    between atoms: C_3  and  C_4 
REMARK    4  A    between atoms: C_7  and  O_6 
REMARK    5  A    between atoms: C_9  and  C_10 
REMARK    6  A    between atoms: N_15  and  C_14 
REMARK    7  A    between atoms: N_20  and  C_19 
REMARK       I    between atoms: C_22  and  N_20 
ROOT
ATOM      1  C   LIG d   1       1.950  83.757 112.987  0.00  0.00     0.161 C 
ATOM      2  C   LIG d   1       1.035  82.703 112.827  0.00  0.00     0.016 C 
ATOM      3  C   LIG d   1      -0.273  82.878 112.319  0.00  0.00     0.038 C 
ATOM      4  C   LIG d   1      -0.705  84.103 111.790  0.00  0.00     0.028 C 
ATOM      5  C   LIG d   1       0.008  85.309 112.393  0.00  0.00    -0.047 C 
ATOM      6  C   LIG d   1       1.535  85.081 112.312  0.00  0.00     0.091 C 
ENDROOT
BRANCH   1   7
ATOM      7  O   LIG d   1       3.253  83.347 112.527  0.00  0.00    -0.368 OA
BRANCH   7   8
ATOM      8  C   LIG d   1       3.275  82.294 111.531  0.00  0.00     0.119 C 
BRANCH   8   9
ATOM      9  C   LIG d   1       4.586  81.507 111.720  0.00  0.00     0.028 C 
ATOM     10  C   LIG d   1       5.041  80.807 110.428  0.00  0.00     0.006 C 
ENDBRANCH   8   9
BRANCH   8  11
ATOM     11  C   LIG d   1       3.347  82.869 110.114  0.00  0.00     0.028 C 
ATOM     12  C   LIG d   1       4.078  84.220 110.055  0.00  0.00     0.006 C 
ENDBRANCH   8  11
ENDBRANCH   7   8
ENDBRANCH   1   7
BRANCH   6  13
ATOM     13  N   LIG d   1       2.306  86.176 112.956  0.00  0.00    -0.311 N 
ATOM     14  C   LIG d   1       2.797  87.218 112.289  0.00  0.00     0.210 C 
ATOM     15  C   LIG d   1       3.578  88.223 113.142  0.00  0.00     0.109 C 
ATOM     16  O   LIG d   1       2.632  87.424 111.077  0.00  0.00    -0.276 OA
ATOM     17  H   LIG d   1       2.460  86.105 113.943  0.00  0.00     0.149 HD
ENDBRANCH   6  13
BRANCH   5  18
ATOM     18  N   LIG d   1      -0.438  86.506 111.656  0.00  0.00     0.381 N 
ATOM     19  H   LIG d   1      -0.240  86.397 110.681  0.00  0.00    -0.090 HD
ATOM     20  H   LIG d   1       0.070  87.304 111.994  0.00  0.00    -0.090 HD
ATOM     21  H   LIG d   1      -1.416  86.644 111.790  0.00  0.00    -0.090 HD
ENDBRANCH   5  18
BRANCH   3  22
ATOM     22  C   LIG d   1      -1.177  81.828 112.372  0.00  0.00     0.382 C 
ATOM     23  O   LIG d   1      -0.830  80.682 112.000  0.00  0.00    -0.241 OA
ATOM     24  O   LIG d   1      -2.349  82.023 112.747  0.00  0.00    -0.241 OA
ENDBRANCH   3  22
TORSDOF 7
ENDMDL
MODEL 5
REMARK VINA RESULT:      -5.3      2.929      5.026
REMARK  7 active torsions:
REMARK  status: ('A' for Active; 'I' for Inactive)
REMARK    1  A    between atoms: C_2  and  C_3 
REMARK    2  A    between atoms: C_3  and  O_6 
REMARK    3  A    between atoms: C_3  and  C_4 
REMARK    4  A    between atoms: C_7  and  O_6 
REMARK    5  A    between atoms: C_9  and  C_10 
REMARK    6  A    between atoms: N_15  and  C_14 
REMARK    7  A    between atoms: N_20  and  C_19 
REMARK       I    between atoms: C_22  and  N_20 
ROOT
ATOM      1  C   LIG d   1       4.240  85.554 112.568  0.00  0.00     0.161 C 
ATOM      2  C   LIG d   1       4.703  86.864 112.361  0.00  0.00     0.016 C 
ATOM      3  C   LIG d   1       5.097  87.726 113.410  0.00  0.00     0.038 C 
ATOM      4  C   LIG d   1       5.199  87.281 114.737  0.00  0.00     0.028 C 
ATOM      5  C   LIG d   1       4.262  86.121 115.060  0.00  0.00    -0.047 C 
ATOM      6  C   LIG d   1       4.450  85.013 113.998  0.00  0.00     0.091 C 
ENDROOT
BRANCH   1   7
ATOM      7  O   LIG d   1       4.839  84.666 111.604  0.00  0.00    -0.368 OA
BRANCH   7   8
ATOM      8  C   LIG d   1       4.029  84.341 110.448  0.00  0.00     0.119 C 
BRANCH   8   9
ATOM      9  C   LIG d   1       2.552  84.501 110.857  0.00  0.00     0.028 C 
ATOM     10  C   LIG d   1       1.844  85.619 110.073  0.00  0.00     0.006 C 
ENDBRANCH   8   9
BRANCH   8  11
ATOM     11  C   LIG d   1       4.184  82.869 110.055  0.00  0.00     0.028 C 
ATOM     12  C   LIG d   1       5.478  82.240 110.596  0.00  0.00     0.006 C 
ENDBRANCH   8  11
ENDBRANCH   7   8
ENDBRANCH   1   7
BRANCH   6  13
ATOM     13  N   LIG d   1       3.510  83.878 114.192  0.00  0.00    -0.311 N 
ATOM     14  C   LIG d   1       3.899  82.605 114.236  0.00  0.00     0.210 C 
ATOM     15  C   LIG d   1       2.767  81.590 114.424  0.00  0.00     0.109 C 
ATOM     16  O   LIG d   1       5.077  82.222 114.171  0.00  0.00    -0.276 OA
ATOM     17  H   LIG d   1       2.539  84.101 114.285  0.00  0.00     0.149 HD
ENDBRANCH   6  13
BRANCH   5  18
ATOM     18  N   LIG d   1       4.570  85.668 116.429  0.00  0.00     0.381 N 
ATOM     19  H   LIG d   1       3.746  85.293 116.855  0.00  0.00    -0.090 HD
ATOM     20  H   LIG d   1       4.874  86.457 116.972  0.00  0.00    -0.090 HD
ATOM     21  H   LIG d   1       5.286  84.976 116.407  0.00  0.00    -0.090 HD
ENDBRANCH   5  18
BRANCH   3  22
ATOM     22  C   LIG d   1       5.356  89.061 113.142  0.00  0.00     0.382 C 
ATOM     23  O   LIG d   1       4.431  89.906 113.213  0.00  0.00    -0.241 OA
ATOM     24  O   LIG d   1       6.493  89.425 112.787  0.00  0.00    -0.241 OA
ENDBRANCH   3  22
TORSDOF 7
ENDMDL
MODEL 6
REMARK VINA RESULT:      -5.3      2.748      4.734
REMARK  7 active torsions:
REMARK  status: ('A' for Active; 'I' for Inactive)
REMARK    1  A    between atoms: C_2  and  C_3 
REMARK    2  A    between atoms: C_3  and  O_6 
REMARK    3  A    between atoms: C_3  and  C_4 
REMARK    4  A    between atoms: C_7  and  O_6 
REMARK    5  A    between atoms: C_9  and  C_10 
REMARK    6  A    between atoms: N_15  and  C_14 
REMARK    7  A    between atoms: N_20  and  C_19 
REMARK       I    between atoms: C_22  and  N_20 
ROOT
ATOM      1  C   LIG d   1       1.442  82.691 110.740  0.00  0.00     0.161 C 
ATOM      2  C   LIG d   1       0.113  82.382 111.072  0.00  0.00     0.016 C 
ATOM      3  C   LIG d   1      -0.265  81.782 112.295  0.00  0.00     0.038 C 
ATOM      4  C   LIG d   1       0.651  81.588 113.339  0.00  0.00     0.028 C 
ATOM      5  C   LIG d   1       2.089  81.420 112.861  0.00  0.00    -0.047 C 
ATOM      6  C   LIG d   1       2.441  82.588 111.912  0.00  0.00     0.091 C 
ENDROOT
BRANCH   1   7
ATOM      7  O   LIG d   1       1.505  84.001 110.142  0.00  0.00    -0.368 OA
BRANCH   7   8
ATOM      8  C   LIG d   1       1.465  85.123 111.058  0.00  0.00     0.119 C 
BRANCH   8   9
ATOM      9  C   LIG d   1       0.289  86.024 110.635  0.00  0.00     0.028 C 
ATOM     10  C   LIG d   1      -0.807  86.101 111.710  0.00  0.00     0.006 C 
ENDBRANCH   8   9
BRANCH   8  11
ATOM     11  C   LIG d   1       2.716  85.997 110.923  0.00  0.00     0.028 C 
ATOM     12  C   LIG d   1       2.581  87.345 111.649  0.00  0.00     0.006 C 
ENDBRANCH   8  11
ENDBRANCH   7   8
ENDBRANCH   1   7
BRANCH   6  13
ATOM     13  N   LIG d   1       3.803  82.456 111.331  0.00  0.00    -0.311 N 
ATOM     14  C   LIG d   1       4.880  83.045 111.847  0.00  0.00     0.210 C 
ATOM     15  C   LIG d   1       6.183  82.795 111.082  0.00  0.00     0.109 C 
ATOM     16  O   LIG d   1       4.886  83.726 112.884  0.00  0.00    -0.276 OA
ATOM     17  H   LIG d   1       3.895  81.896 110.506  0.00  0.00     0.149 HD
ENDBRANCH   6  13
BRANCH   5  18
ATOM     18  N   LIG d   1       2.953  81.364 114.055  0.00  0.00     0.381 N 
ATOM     19  H   LIG d   1       2.505  81.830 114.819  0.00  0.00    -0.090 HD
ATOM     20  H   LIG d   1       3.814  81.841 113.856  0.00  0.00    -0.090 HD
ATOM     21  H   LIG d   1       3.138  80.416 114.298  0.00  0.00    -0.090 HD
ENDBRANCH   5  18
BRANCH   3  22
ATOM     22  C   LIG d   1      -1.566  81.333 112.467  0.00  0.00     0.382 C 
ATOM     23  O   LIG d   1      -1.845  80.127 112.264  0.00  0.00    -0.241 OA
ATOM     24  O   LIG d   1      -2.472  82.128 112.781  0.00  0.00    -0.241 OA
ENDBRANCH   3  22
TORSDOF 7
ENDMDL
MODEL 7
REMARK VINA RESULT:      -5.1      2.179      2.987
REMARK  7 active torsions:
REMARK  status: ('A' for Active; 'I' for Inactive)
REMARK    1  A    between atoms: C_2  and  C_3 
REMARK    2  A    between atoms: C_3  and  O_6 
REMARK    3  A    between atoms: C_3  and  C_4 
REMARK    4  A    between atoms: C_7  and  O_6 
REMARK    5  A    between atoms: C_9  and  C_10 
REMARK    6  A    between atoms: N_15  and  C_14 
REMARK    7  A    between atoms: N_20  and  C_19 
REMARK       I    between atoms: C_22  and  N_20 
ROOT
ATOM      1  C   LIG d   1       1.939  83.792 112.919  0.00  0.00     0.161 C 
ATOM      2  C   LIG d   1       1.026  82.732 112.796  0.00  0.00     0.016 C 
ATOM      3  C   LIG d   1      -0.281  82.887 112.278  0.00  0.00     0.038 C 
ATOM      4  C   LIG d   1      -0.712  84.092 111.704  0.00  0.00     0.028 C 
ATOM      5  C   LIG d   1      -0.002  85.319 112.265  0.00  0.00    -0.047 C 
ATOM      6  C   LIG d   1       1.525  85.091 112.196  0.00  0.00     0.091 C 
ENDROOT
BRANCH   1   7
ATOM      7  O   LIG d   1       3.244  83.367 112.478  0.00  0.00    -0.368 OA
BRANCH   7   8
ATOM      8  C   LIG d   1       4.142  82.889 113.510  0.00  0.00     0.119 C 
BRANCH   8   9
ATOM      9  C   LIG d   1       4.883  84.113 114.082  0.00  0.00     0.028 C 
ATOM     10  C   LIG d   1       4.384  84.498 115.484  0.00  0.00     0.006 C 
ENDBRANCH   8   9
BRANCH   8  11
ATOM     11  C   LIG d   1       5.234  81.990 112.925  0.00  0.00     0.028 C 
ATOM     12  C   LIG d   1       5.725  82.466 111.549  0.00  0.00     0.006 C 
ENDBRANCH   8  11
ENDBRANCH   7   8
ENDBRANCH   1   7
BRANCH   6  13
ATOM     13  N   LIG d   1       2.294  86.209 112.803  0.00  0.00    -0.311 N 
ATOM     14  C   LIG d   1       3.256  86.870 112.162  0.00  0.00     0.210 C 
ATOM     15  C   LIG d   1       3.936  87.974 112.977  0.00  0.00     0.109 C 
ATOM     16  O   LIG d   1       3.588  86.668 110.984  0.00  0.00    -0.276 OA
ATOM     17  H   LIG d   1       2.067  86.459 113.745  0.00  0.00     0.149 HD
ENDBRANCH   6  13
BRANCH   5  18
ATOM     18  N   LIG d   1      -0.448  86.489 111.484  0.00  0.00     0.381 N 
ATOM     19  H   LIG d   1      -1.387  86.726 111.735  0.00  0.00    -0.090 HD
ATOM     20  H   LIG d   1      -0.432  86.252 110.508  0.00  0.00    -0.090 HD
ATOM     21  H   LIG d   1       0.155  87.263 111.655  0.00  0.00    -0.090 HD
ENDBRANCH   5  18
BRANCH   3  22
ATOM     22  C   LIG d   1      -1.184  81.839 112.367  0.00  0.00     0.382 C 
ATOM     23  O   LIG d   1      -0.841  80.684 112.017  0.00  0.00    -0.241 OA
ATOM     24  O   LIG d   1      -2.351  82.043 112.752  0.00  0.00    -0.241 OA
ENDBRANCH   3  22
TORSDOF 7
ENDMDL
MODEL 8
REMARK VINA RESULT:      -5.0      1.791      4.913
REMARK  7 active torsions:
REMARK  status: ('A' for Active; 'I' for Inactive)
REMARK    1  A    between atoms: C_2  and  C_3 
REMARK    2  A    between atoms: C_3  and  O_6 
REMARK    3  A    between atoms: C_3  and  C_4 
REMARK    4  A    between atoms: C_7  and  O_6 
REMARK    5  A    between atoms: C_9  and  C_10 
REMARK    6  A    between atoms: N_15  and  C_14 
REMARK    7  A    between atoms: N_20  and  C_19 
REMARK       I    between atoms: C_22  and  N_20 
ROOT
ATOM      1  C   LIG d   1       3.715  85.465 112.655  0.00  0.00     0.161 C 
ATOM      2  C   LIG d   1       4.822  86.203 113.107  0.00  0.00     0.016 C 
ATOM      3  C   LIG d   1       4.835  87.614 113.189  0.00  0.00     0.038 C 
ATOM      4  C   LIG d   1       3.682  88.381 112.966  0.00  0.00     0.028 C 
ATOM      5  C   LIG d   1       2.686  87.717 112.021  0.00  0.00    -0.047 C 
ATOM      6  C   LIG d   1       2.411  86.278 112.513  0.00  0.00     0.091 C 
ENDROOT
BRANCH   1   7
ATOM      7  O   LIG d   1       3.505  84.325 113.512  0.00  0.00    -0.368 OA
BRANCH   7   8
ATOM      8  C   LIG d   1       3.700  83.026 112.902  0.00  0.00     0.119 C 
BRANCH   8   9
ATOM      9  C   LIG d   1       3.037  81.980 113.820  0.00  0.00     0.028 C 
ATOM     10  C   LIG d   1       3.995  81.460 114.905  0.00  0.00     0.006 C 
ENDBRANCH   8   9
BRANCH   8  11
ATOM     11  C   LIG d   1       5.183  82.646 112.861  0.00  0.00     0.028 C 
ATOM     12  C   LIG d   1       5.719  82.490 111.429  0.00  0.00     0.006 C 
ENDBRANCH   8  11
ENDBRANCH   7   8
ENDBRANCH   1   7
BRANCH   6  13
ATOM     13  N   LIG d   1       1.512  85.528 111.598  0.00  0.00    -0.311 N 
ATOM     14  C   LIG d   1       0.192  85.453 111.765  0.00  0.00     0.210 C 
ATOM     15  C   LIG d   1      -0.545  84.613 110.718  0.00  0.00     0.109 C 
ATOM     16  O   LIG d   1      -0.441  86.030 112.662  0.00  0.00    -0.276 OA
ATOM     17  H   LIG d   1       1.938  85.056 110.825  0.00  0.00     0.149 HD
ENDBRANCH   6  13
BRANCH   5  18
ATOM     18  N   LIG d   1       1.475  88.558 111.987  0.00  0.00     0.381 N 
ATOM     19  H   LIG d   1       0.977  88.470 112.850  0.00  0.00    -0.090 HD
ATOM     20  H   LIG d   1       0.878  88.238 111.244  0.00  0.00    -0.090 HD
ATOM     21  H   LIG d   1       1.725  89.510 111.835  0.00  0.00    -0.090 HD
ENDBRANCH   5  18
BRANCH   3  22
ATOM     22  C   LIG d   1       6.024  88.276 113.459  0.00  0.00     0.382 C 
ATOM     23  O   LIG d   1       6.548  88.184 114.595  0.00  0.00    -0.241 OA
ATOM     24  O   LIG d   1       6.555  88.999 112.595  0.00  0.00    -0.241 OA
ENDBRANCH   3  22
TORSDOF 7
ENDMDL
MODEL 9
REMARK VINA RESULT:      -5.0     25.735     29.194
REMARK  7 active torsions:
REMARK  status: ('A' for Active; 'I' for Inactive)
REMARK    1  A    between atoms: C_2  and  C_3 
REMARK    2  A    between atoms: C_3  and  O_6 
REMARK    3  A    between atoms: C_3  and  C_4 
REMARK    4  A    between atoms: C_7  and  O_6 
REMARK    5  A    between atoms: C_9  and  C_10 
REMARK    6  A    between atoms: N_15  and  C_14 
REMARK    7  A    between atoms: N_20  and  C_19 
REMARK       I    between atoms: C_22  and  N_20 
ROOT
ATOM      1  C   LIG d   1     -26.000  85.331 112.623  0.00  0.00     0.161 C 
ATOM      2  C   LIG d   1     -24.902  86.175 112.857  0.00  0.00     0.016 C 
ATOM      3  C   LIG d   1     -23.658  85.716 113.347  0.00  0.00     0.038 C 
ATOM      4  C   LIG d   1     -23.378  84.349 113.494  0.00  0.00     0.028 C 
ATOM      5  C   LIG d   1     -24.619  83.501 113.751  0.00  0.00    -0.047 C 
ATOM      6  C   LIG d   1     -25.678  83.823 112.672  0.00  0.00     0.091 C 
ENDROOT
BRANCH   1   7
ATOM      7  O   LIG d   1     -26.618  85.671 111.366  0.00  0.00    -0.368 OA
BRANCH   7   8
ATOM      8  C   LIG d   1     -27.815  86.484 111.444  0.00  0.00     0.119 C 
BRANCH   8   9
ATOM      9  C   LIG d   1     -28.801  85.959 110.383  0.00  0.00     0.028 C 
ATOM     10  C   LIG d   1     -29.999  85.224 111.009  0.00  0.00     0.006 C 
ENDBRANCH   8   9
BRANCH   8  11
ATOM     11  C   LIG d   1     -27.528  87.936 111.047  0.00  0.00     0.028 C 
ATOM     12  C   LIG d   1     -28.794  88.807 111.020  0.00  0.00     0.006 C 
ENDBRANCH   8  11
ENDBRANCH   7   8
ENDBRANCH   1   7
BRANCH   6  13
ATOM     13  N   LIG d   1     -26.956  83.097 112.898  0.00  0.00    -0.311 N 
ATOM     14  C   LIG d   1     -27.640  82.498 111.925  0.00  0.00     0.210 C 
ATOM     15  C   LIG d   1     -28.942  81.824 112.371  0.00  0.00     0.109 C 
ATOM     16  O   LIG d   1     -27.277  82.432 110.741  0.00  0.00    -0.276 OA
ATOM     17  H   LIG d   1     -27.308  83.074 113.835  0.00  0.00     0.149 HD
ENDBRANCH   6  13
BRANCH   5  18
ATOM     18  N   LIG d   1     -24.201  82.086 113.746  0.00  0.00     0.381 N 
ATOM     19  H   LIG d   1     -23.550  81.928 113.002  0.00  0.00    -0.090 HD
ATOM     20  H   LIG d   1     -25.008  81.509 113.587  0.00  0.00    -0.090 HD
ATOM     21  H   LIG d   1     -23.782  81.851 114.619  0.00  0.00    -0.090 HD
ENDBRANCH   5  18
BRANCH   3  22
ATOM     22  C   LIG d   1     -22.691  86.631 113.734  0.00  0.00     0.382 C 
ATOM     23  O   LIG d   1     -21.524  86.538 113.285  0.00  0.00    -0.241 OA
ATOM     24  O   LIG d   1     -22.961  87.523 114.561  0.00  0.00    -0.241 OA
ENDBRANCH   3  22
TORSDOF 7
ENDMDL
