MODEL 1
REMARK VINA RESULT:      -5.4      0.000      0.000
REMARK  7 active torsions:
REMARK  status: ('A' for Active; 'I' for Inactive)
REMARK    1  A    between atoms: C_2  and  C_3 
REMARK    2  A    between atoms: C_3  and  O_6 
REMARK    3  A    between atoms: C_3  and  C_4 
REMARK    4  A    between atoms: C_7  and  O_6 
REMARK    5  A    between atoms: C_9  and  C_10 
REMARK    6  A    between atoms: N_15  and  C_14 
REMARK    7  A    between atoms: N_20  and  C_19 
REMARK       I    between atoms: C_22  and  N_20 
ROOT
ATOM      1  C   LIG d   1      -0.406  84.423 113.166  0.00  0.00     0.161 C 
ATOM      2  C   LIG d   1       0.351  85.461 112.599  0.00  0.00     0.016 C 
ATOM      3  C   LIG d   1       0.880  85.412 111.289  0.00  0.00     0.038 C 
ATOM      4  C   LIG d   1       0.559  84.378 110.397  0.00  0.00     0.028 C 
ATOM      5  C   LIG d   1       0.213  83.065 111.092  0.00  0.00    -0.047 C 
ATOM      6  C   LIG d   1      -0.861  83.335 112.170  0.00  0.00     0.091 C 
ENDROOT
BRANCH   1   7
ATOM      7  O   LIG d   1      -1.543  84.971 113.862  0.00  0.00    -0.368 OA
BRANCH   7   8
ATOM      8  C   LIG d   1      -1.564  84.780 115.299  0.00  0.00     0.119 C 
BRANCH   8   9
ATOM      9  C   LIG d   1      -0.170  84.275 115.718  0.00  0.00     0.028 C 
ATOM     10  C   LIG d   1       0.668  85.367 116.405  0.00  0.00     0.006 C 
ENDBRANCH   8   9
BRANCH   8  11
ATOM     11  C   LIG d   1      -2.536  83.666 115.699  0.00  0.00     0.028 C 
ATOM     12  C   LIG d   1      -1.928  82.679 116.707  0.00  0.00     0.006 C 
ENDBRANCH   8  11
ENDBRANCH   7   8
ENDBRANCH   1   7
BRANCH   6  13
ATOM     13  N   LIG d   1      -1.195  82.118 112.955  0.00  0.00    -0.311 N 
ATOM     14  C   LIG d   1      -2.303  81.403 112.763  0.00  0.00     0.210 C 
ATOM     15  C   LIG d   1      -2.463  80.197 113.694  0.00  0.00     0.109 C 
ATOM     16  O   LIG d   1      -3.151  81.635 111.889  0.00  0.00    -0.276 OA
ATOM     17  H   LIG d   1      -0.546  81.840 113.665  0.00  0.00     0.149 HD
ENDBRANCH   6  13
BRANCH   5  18
ATOM     18  N   LIG d   1      -0.234  82.116 110.055  0.00  0.00     0.381 N 
ATOM     19  H   LIG d   1       0.515  81.497 109.816  0.00  0.00    -0.090 HD
ATOM     20  H   LIG d   1      -0.491  82.632 109.232  0.00  0.00    -0.090 HD
ATOM     21  H   LIG d   1      -1.015  81.593 110.386  0.00  0.00    -0.090 HD
ENDBRANCH   5  18
BRANCH   3  22
ATOM     22  C   LIG d   1       1.775  86.386 110.872  0.00  0.00     0.382 C 
ATOM     23  O   LIG d   1       1.351  87.501 110.483  0.00  0.00    -0.241 OA
ATOM     24  O   LIG d   1       2.997  86.149 110.839  0.00  0.00    -0.241 OA
ENDBRANCH   3  22
TORSDOF 7
ENDMDL
MODEL 2
REMARK VINA RESULT:      -5.3      3.301      6.886
REMARK  7 active torsions:
REMARK  status: ('A' for Active; 'I' for Inactive)
REMARK    1  A    between atoms: C_2  and  C_3 
REMARK    2  A    between atoms: C_3  and  O_6 
REMARK    3  A    between atoms: C_3  and  C_4 
REMARK    4  A    between atoms: C_7  and  O_6 
REMARK    5  A    between atoms: C_9  and  C_10 
REMARK    6  A    between atoms: N_15  and  C_14 
REMARK    7  A    between atoms: N_20  and  C_19 
REMARK       I    between atoms: C_22  and  N_20 
ROOT
ATOM      1  C   LIG d   1       1.422  86.186 113.121  0.00  0.00     0.161 C 
ATOM      2  C   LIG d   1       0.215  85.606 113.548  0.00  0.00     0.016 C 
ATOM      3  C   LIG d   1      -0.279  85.719 114.868  0.00  0.00     0.038 C 
ATOM      4  C   LIG d   1       0.331  86.551 115.819  0.00  0.00     0.028 C 
ATOM      5  C   LIG d   1       1.823  86.752 115.581  0.00  0.00    -0.047 C 
ATOM      6  C   LIG d   1       2.043  87.190 114.115  0.00  0.00     0.091 C 
ENDROOT
BRANCH   1   7
ATOM      7  O   LIG d   1       1.238  86.805 111.833  0.00  0.00    -0.368 OA
BRANCH   7   8
ATOM      8  C   LIG d   1       1.663  86.028 110.686  0.00  0.00     0.119 C 
BRANCH   8   9
ATOM      9  C   LIG d   1       0.403  85.402 110.058  0.00  0.00     0.028 C 
ATOM     10  C   LIG d   1      -0.830  86.313 110.184  0.00  0.00     0.006 C 
ENDBRANCH   8   9
BRANCH   8  11
ATOM     11  C   LIG d   1       2.537  84.843 111.109  0.00  0.00     0.028 C 
ATOM     12  C   LIG d   1       3.595  84.477 110.056  0.00  0.00     0.006 C 
ENDBRANCH   8  11
ENDBRANCH   7   8
ENDBRANCH   1   7
BRANCH   6  13
ATOM     13  N   LIG d   1       3.483  87.327 113.774  0.00  0.00    -0.311 N 
ATOM     14  C   LIG d   1       3.987  88.375 113.125  0.00  0.00     0.210 C 
ATOM     15  C   LIG d   1       5.493  88.307 112.856  0.00  0.00     0.109 C 
ATOM     16  O   LIG d   1       3.334  89.370 112.774  0.00  0.00    -0.276 OA
ATOM     17  H   LIG d   1       4.090  86.579 114.049  0.00  0.00     0.149 HD
ENDBRANCH   6  13
BRANCH   5  18
ATOM     18  N   LIG d   1       2.301  87.746 116.559  0.00  0.00     0.381 N 
ATOM     19  H   LIG d   1       2.655  88.550 116.080  0.00  0.00    -0.090 HD
ATOM     20  H   LIG d   1       3.050  87.343 117.094  0.00  0.00    -0.090 HD
ATOM     21  H   LIG d   1       1.557  88.013 117.166  0.00  0.00    -0.090 HD
ENDBRANCH   5  18
BRANCH   3  22
ATOM     22  C   LIG d   1      -1.372  84.961 115.260  0.00  0.00     0.382 C 
ATOM     23  O   LIG d   1      -1.200  83.904 115.913  0.00  0.00    -0.241 OA
ATOM     24  O   LIG d   1      -2.525  85.298 114.930  0.00  0.00    -0.241 OA
ENDBRANCH   3  22
TORSDOF 7
ENDMDL
MODEL 3
REMARK VINA RESULT:      -5.1      8.779     11.162
REMARK  7 active torsions:
REMARK  status: ('A' for Active; 'I' for Inactive)
REMARK    1  A    between atoms: C_2  and  C_3 
REMARK    2  A    between atoms: C_3  and  O_6 
REMARK    3  A    between atoms: C_3  and  C_4 
REMARK    4  A    between atoms: C_7  and  O_6 
REMARK    5  A    between atoms: C_9  and  C_10 
REMARK    6  A    between atoms: N_15  and  C_14 
REMARK    7  A    between atoms: N_20  and  C_19 
REMARK       I    between atoms: C_22  and  N_20 
ROOT
ATOM      1  C   LIG d   1      -5.046  75.721 118.102  0.00  0.00     0.161 C 
ATOM      2  C   LIG d   1      -6.113  76.633 118.135  0.00  0.00     0.016 C 
ATOM      3  C   LIG d   1      -6.069  77.907 117.522  0.00  0.00     0.038 C 
ATOM      4  C   LIG d   1      -5.001  78.296 116.700  0.00  0.00     0.028 C 
ATOM      5  C   LIG d   1      -3.685  77.611 117.050  0.00  0.00    -0.047 C 
ATOM      6  C   LIG d   1      -3.916  76.084 117.116  0.00  0.00     0.091 C 
ENDROOT
BRANCH   1   7
ATOM      7  O   LIG d   1      -5.543  74.396 117.828  0.00  0.00    -0.368 OA
BRANCH   7   8
ATOM      8  C   LIG d   1      -6.475  74.281 116.725  0.00  0.00     0.119 C 
BRANCH   8   9
ATOM      9  C   LIG d   1      -7.618  73.353 117.180  0.00  0.00     0.028 C 
ATOM     10  C   LIG d   1      -7.304  71.869 116.930  0.00  0.00     0.006 C 
ENDBRANCH   8   9
BRANCH   8  11
ATOM     11  C   LIG d   1      -5.834  73.576 115.525  0.00  0.00     0.028 C 
ATOM     12  C   LIG d   1      -5.527  74.536 114.365  0.00  0.00     0.006 C 
ENDBRANCH   8  11
ENDBRANCH   7   8
ENDBRANCH   1   7
BRANCH   6  13
ATOM     13  N   LIG d   1      -2.697  75.344 117.535  0.00  0.00    -0.311 N 
ATOM     14  C   LIG d   1      -1.894  74.710 116.682  0.00  0.00     0.210 C 
ATOM     15  C   LIG d   1      -0.704  73.993 117.327  0.00  0.00     0.109 C 
ATOM     16  O   LIG d   1      -2.037  74.701 115.451  0.00  0.00    -0.276 OA
ATOM     17  H   LIG d   1      -2.489  75.327 118.514  0.00  0.00     0.149 HD
ENDBRANCH   6  13
BRANCH   5  18
ATOM     18  N   LIG d   1      -2.693  78.003 116.031  0.00  0.00     0.381 N 
ATOM     19  H   LIG d   1      -2.986  78.847 115.580  0.00  0.00    -0.090 HD
ATOM     20  H   LIG d   1      -2.636  77.278 115.337  0.00  0.00    -0.090 HD
ATOM     21  H   LIG d   1      -1.802  78.137 116.456  0.00  0.00    -0.090 HD
ENDBRANCH   5  18
BRANCH   3  22
ATOM     22  C   LIG d   1      -7.083  78.821 117.763  0.00  0.00     0.382 C 
ATOM     23  O   LIG d   1      -8.176  78.434 118.243  0.00  0.00    -0.241 OA
ATOM     24  O   LIG d   1      -6.935  80.021 117.465  0.00  0.00    -0.241 OA
ENDBRANCH   3  22
TORSDOF 7
ENDMDL
MODEL 4
REMARK VINA RESULT:      -5.1      2.720      6.661
REMARK  7 active torsions:
REMARK  status: ('A' for Active; 'I' for Inactive)
REMARK    1  A    between atoms: C_2  and  C_3 
REMARK    2  A    between atoms: C_3  and  O_6 
REMARK    3  A    between atoms: C_3  and  C_4 
REMARK    4  A    between atoms: C_7  and  O_6 
REMARK    5  A    between atoms: C_9  and  C_10 
REMARK    6  A    between atoms: N_15  and  C_14 
REMARK    7  A    between atoms: N_20  and  C_19 
REMARK       I    between atoms: C_22  and  N_20 
ROOT
ATOM      1  C   LIG d   1      -0.970  80.698 111.986  0.00  0.00     0.161 C 
ATOM      2  C   LIG d   1      -1.619  79.478 111.733  0.00  0.00     0.016 C 
ATOM      3  C   LIG d   1      -2.520  78.873 112.640  0.00  0.00     0.038 C 
ATOM      4  C   LIG d   1      -2.952  79.527 113.803  0.00  0.00     0.028 C 
ATOM      5  C   LIG d   1      -1.941  80.532 114.344  0.00  0.00    -0.047 C 
ATOM      6  C   LIG d   1      -1.514  81.480 113.201  0.00  0.00     0.091 C 
ENDROOT
BRANCH   1   7
ATOM      7  O   LIG d   1      -1.002  81.522 110.805  0.00  0.00    -0.368 OA
BRANCH   7   8
ATOM      8  C   LIG d   1       0.261  81.699 110.117  0.00  0.00     0.119 C 
BRANCH   8   9
ATOM      9  C   LIG d   1       1.350  81.017 110.967  0.00  0.00     0.028 C 
ATOM     10  C   LIG d   1       2.633  80.740 110.164  0.00  0.00     0.006 C 
ENDBRANCH   8   9
BRANCH   8  11
ATOM     11  C   LIG d   1       0.660  83.177 110.056  0.00  0.00     0.028 C 
ATOM     12  C   LIG d   1      -0.503  84.123 110.393  0.00  0.00     0.006 C 
ENDBRANCH   8  11
ENDBRANCH   7   8
ENDBRANCH   1   7
BRANCH   6  13
ATOM     13  N   LIG d   1      -0.462  82.441 113.624  0.00  0.00    -0.311 N 
ATOM     14  C   LIG d   1      -0.727  83.667 114.072  0.00  0.00     0.210 C 
ATOM     15  C   LIG d   1       0.504  84.502 114.436  0.00  0.00     0.109 C 
ATOM     16  O   LIG d   1      -1.866  84.130 114.233  0.00  0.00    -0.276 OA
ATOM     17  H   LIG d   1       0.489  82.136 113.555  0.00  0.00     0.149 HD
ENDBRANCH   6  13
BRANCH   5  18
ATOM     18  N   LIG d   1      -2.574  81.237 115.474  0.00  0.00     0.381 N 
ATOM     19  H   LIG d   1      -1.997  81.161 116.288  0.00  0.00    -0.090 HD
ATOM     20  H   LIG d   1      -3.458  80.804 115.674  0.00  0.00    -0.090 HD
ATOM     21  H   LIG d   1      -2.710  82.197 115.244  0.00  0.00    -0.090 HD
ENDBRANCH   5  18
BRANCH   3  22
ATOM     22  C   LIG d   1      -2.969  77.582 112.405  0.00  0.00     0.382 C 
ATOM     23  O   LIG d   1      -2.272  76.602 112.761  0.00  0.00    -0.241 OA
ATOM     24  O   LIG d   1      -4.041  77.386 111.801  0.00  0.00    -0.241 OA
ENDBRANCH   3  22
TORSDOF 7
ENDMDL
MODEL 5
REMARK VINA RESULT:      -5.1      3.462      5.481
REMARK  7 active torsions:
REMARK  status: ('A' for Active; 'I' for Inactive)
REMARK    1  A    between atoms: C_2  and  C_3 
REMARK    2  A    between atoms: C_3  and  O_6 
REMARK    3  A    between atoms: C_3  and  C_4 
REMARK    4  A    between atoms: C_7  and  O_6 
REMARK    5  A    between atoms: C_9  and  C_10 
REMARK    6  A    between atoms: N_15  and  C_14 
REMARK    7  A    between atoms: N_20  and  C_19 
REMARK       I    between atoms: C_22  and  N_20 
ROOT
ATOM      1  C   LIG d   1       1.942  86.367 113.385  0.00  0.00     0.161 C 
ATOM      2  C   LIG d   1       2.669  87.482 112.937  0.00  0.00     0.016 C 
ATOM      3  C   LIG d   1       3.993  87.762 113.345  0.00  0.00     0.038 C 
ATOM      4  C   LIG d   1       4.739  86.858 114.116  0.00  0.00     0.028 C 
ATOM      5  C   LIG d   1       3.878  85.965 115.003  0.00  0.00    -0.047 C 
ATOM      6  C   LIG d   1       2.776  85.310 114.138  0.00  0.00     0.091 C 
ENDROOT
BRANCH   1   7
ATOM      7  O   LIG d   1       1.247  85.760 112.277  0.00  0.00    -0.368 OA
BRANCH   7   8
ATOM      8  C   LIG d   1       1.578  86.269 110.961  0.00  0.00     0.119 C 
BRANCH   8   9
ATOM      9  C   LIG d   1       0.265  86.728 110.299  0.00  0.00     0.028 C 
ATOM     10  C   LIG d   1      -0.789  85.608 110.246  0.00  0.00     0.006 C 
ENDBRANCH   8   9
BRANCH   8  11
ATOM     11  C   LIG d   1       2.123  85.160 110.056  0.00  0.00     0.028 C 
ATOM     12  C   LIG d   1       3.474  84.607 110.537  0.00  0.00     0.006 C 
ENDBRANCH   8  11
ENDBRANCH   7   8
ENDBRANCH   1   7
BRANCH   6  13
ATOM     13  N   LIG d   1       1.838  84.487 114.944  0.00  0.00    -0.311 N 
ATOM     14  C   LIG d   1       1.579  83.206 114.685  0.00  0.00     0.210 C 
ATOM     15  C   LIG d   1       0.565  82.548 115.627  0.00  0.00     0.109 C 
ATOM     16  O   LIG d   1       2.116  82.544 113.785  0.00  0.00    -0.276 OA
ATOM     17  H   LIG d   1       1.381  84.936 115.713  0.00  0.00     0.149 HD
ENDBRANCH   6  13
BRANCH   5  18
ATOM     18  N   LIG d   1       4.770  84.982 115.646  0.00  0.00     0.381 N 
ATOM     19  H   LIG d   1       4.350  84.644 116.488  0.00  0.00    -0.090 HD
ATOM     20  H   LIG d   1       5.635  85.434 115.884  0.00  0.00    -0.090 HD
ATOM     21  H   LIG d   1       4.944  84.223 115.025  0.00  0.00    -0.090 HD
ENDBRANCH   5  18
BRANCH   3  22
ATOM     22  C   LIG d   1       4.572  88.978 113.013  0.00  0.00     0.382 C 
ATOM     23  O   LIG d   1       5.777  89.025 112.668  0.00  0.00    -0.241 OA
ATOM     24  O   LIG d   1       3.916  90.034 113.098  0.00  0.00    -0.241 OA
ENDBRANCH   3  22
TORSDOF 7
ENDMDL
MODEL 6
REMARK VINA RESULT:      -5.1      1.919      2.282
REMARK  7 active torsions:
REMARK  status: ('A' for Active; 'I' for Inactive)
REMARK    1  A    between atoms: C_2  and  C_3 
REMARK    2  A    between atoms: C_3  and  O_6 
REMARK    3  A    between atoms: C_3  and  C_4 
REMARK    4  A    between atoms: C_7  and  O_6 
REMARK    5  A    between atoms: C_9  and  C_10 
REMARK    6  A    between atoms: N_15  and  C_14 
REMARK    7  A    between atoms: N_20  and  C_19 
REMARK       I    between atoms: C_22  and  N_20 
ROOT
ATOM      1  C   LIG d   1       1.114  85.494 113.447  0.00  0.00     0.161 C 
ATOM      2  C   LIG d   1       1.914  86.646 113.360  0.00  0.00     0.016 C 
ATOM      3  C   LIG d   1       2.835  86.877 112.312  0.00  0.00     0.038 C 
ATOM      4  C   LIG d   1       2.909  86.036 111.192  0.00  0.00     0.028 C 
ATOM      5  C   LIG d   1       2.482  84.601 111.483  0.00  0.00    -0.047 C 
ATOM      6  C   LIG d   1       1.101  84.619 112.177  0.00  0.00     0.091 C 
ENDROOT
BRANCH   1   7
ATOM      7  O   LIG d   1      -0.230  85.860 113.818  0.00  0.00    -0.368 OA
BRANCH   7   8
ATOM      8  C   LIG d   1      -0.626  85.543 115.175  0.00  0.00     0.119 C 
BRANCH   8   9
ATOM      9  C   LIG d   1       0.531  84.757 115.823  0.00  0.00     0.028 C 
ATOM     10  C   LIG d   1       1.173  85.517 116.995  0.00  0.00     0.006 C 
ENDBRANCH   8   9
BRANCH   8  11
ATOM     11  C   LIG d   1      -1.826  84.591 115.198  0.00  0.00     0.028 C 
ATOM     12  C   LIG d   1      -1.555  83.311 116.003  0.00  0.00     0.006 C 
ENDBRANCH   8  11
ENDBRANCH   7   8
ENDBRANCH   1   7
BRANCH   6  13
ATOM     13  N   LIG d   1       0.648  83.260 112.572  0.00  0.00    -0.311 N 
ATOM     14  C   LIG d   1      -0.561  82.778 112.287  0.00  0.00     0.210 C 
ATOM     15  C   LIG d   1      -0.832  81.362 112.805  0.00  0.00     0.109 C 
ATOM     16  O   LIG d   1      -1.423  83.378 111.627  0.00  0.00    -0.276 OA
ATOM     17  H   LIG d   1       1.296  82.693 113.084  0.00  0.00     0.149 HD
ENDBRANCH   6  13
BRANCH   5  18
ATOM     18  N   LIG d   1       2.476  83.869 110.202  0.00  0.00     0.381 N 
ATOM     19  H   LIG d   1       2.494  84.519 109.441  0.00  0.00    -0.090 HD
ATOM     20  H   LIG d   1       1.630  83.332 110.138  0.00  0.00    -0.090 HD
ATOM     21  H   LIG d   1       3.267  83.265 110.151  0.00  0.00    -0.090 HD
ENDBRANCH   5  18
BRANCH   3  22
ATOM     22  C   LIG d   1       3.722  87.939 112.399  0.00  0.00     0.382 C 
ATOM     23  O   LIG d   1       3.303  89.083 112.697  0.00  0.00    -0.241 OA
ATOM     24  O   LIG d   1       4.929  87.776 112.139  0.00  0.00    -0.241 OA
ENDBRANCH   3  22
TORSDOF 7
ENDMDL
MODEL 7
REMARK VINA RESULT:      -5.0      2.233      4.885
REMARK  7 active torsions:
REMARK  status: ('A' for Active; 'I' for Inactive)
REMARK    1  A    between atoms: C_2  and  C_3 
REMARK    2  A    between atoms: C_3  and  O_6 
REMARK    3  A    between atoms: C_3  and  C_4 
REMARK    4  A    between atoms: C_7  and  O_6 
REMARK    5  A    between atoms: C_9  and  C_10 
REMARK    6  A    between atoms: N_15  and  C_14 
REMARK    7  A    between atoms: N_20  and  C_19 
REMARK       I    between atoms: C_22  and  N_20 
ROOT
ATOM      1  C   LIG d   1      -0.349  83.289 112.087  0.00  0.00     0.161 C 
ATOM      2  C   LIG d   1      -1.535  82.699 112.556  0.00  0.00     0.016 C 
ATOM      3  C   LIG d   1      -1.857  81.336 112.360  0.00  0.00     0.038 C 
ATOM      4  C   LIG d   1      -0.939  80.430 111.808  0.00  0.00     0.028 C 
ATOM      5  C   LIG d   1       0.066  81.083 110.866  0.00  0.00    -0.047 C 
ATOM      6  C   LIG d   1       0.713  82.291 111.581  0.00  0.00     0.091 C 
ENDROOT
BRANCH   1   7
ATOM      7  O   LIG d   1       0.209  84.141 113.107  0.00  0.00    -0.368 OA
BRANCH   7   8
ATOM      8  C   LIG d   1      -0.515  84.193 114.361  0.00  0.00     0.119 C 
BRANCH   8   9
ATOM      9  C   LIG d   1      -0.693  85.678 114.731  0.00  0.00     0.028 C 
ATOM     10  C   LIG d   1       0.640  86.446 114.733  0.00  0.00     0.006 C 
ENDBRANCH   8   9
BRANCH   8  11
ATOM     11  C   LIG d   1       0.304  83.585 115.503  0.00  0.00     0.028 C 
ATOM     12  C   LIG d   1      -0.312  82.290 116.055  0.00  0.00     0.006 C 
ENDBRANCH   8  11
ENDBRANCH   7   8
ENDBRANCH   1   7
BRANCH   6  13
ATOM     13  N   LIG d   1       1.648  83.037 110.700  0.00  0.00    -0.311 N 
ATOM     14  C   LIG d   1       2.802  83.552 111.122  0.00  0.00     0.210 C 
ATOM     15  C   LIG d   1       3.605  84.301 110.055  0.00  0.00     0.109 C 
ATOM     16  O   LIG d   1       3.250  83.431 112.272  0.00  0.00    -0.276 OA
ATOM     17  H   LIG d   1       1.377  83.155 109.743  0.00  0.00     0.149 HD
ENDBRANCH   6  13
BRANCH   5  18
ATOM     18  N   LIG d   1       1.044  80.051 110.473  0.00  0.00     0.381 N 
ATOM     19  H   LIG d   1       1.973  80.385 110.637  0.00  0.00    -0.090 HD
ATOM     20  H   LIG d   1       0.945  79.866 109.490  0.00  0.00    -0.090 HD
ATOM     21  H   LIG d   1       0.887  79.216 110.993  0.00  0.00    -0.090 HD
ENDBRANCH   5  18
BRANCH   3  22
ATOM     22  C   LIG d   1      -3.125  80.876 112.681  0.00  0.00     0.382 C 
ATOM     23  O   LIG d   1      -3.260  79.804 113.317  0.00  0.00    -0.241 OA
ATOM     24  O   LIG d   1      -4.136  81.498 112.303  0.00  0.00    -0.241 OA
ENDBRANCH   3  22
TORSDOF 7
ENDMDL
MODEL 8
REMARK VINA RESULT:      -5.0      5.033      7.316
REMARK  7 active torsions:
REMARK  status: ('A' for Active; 'I' for Inactive)
REMARK    1  A    between atoms: C_2  and  C_3 
REMARK    2  A    between atoms: C_3  and  O_6 
REMARK    3  A    between atoms: C_3  and  C_4 
REMARK    4  A    between atoms: C_7  and  O_6 
REMARK    5  A    between atoms: C_9  and  C_10 
REMARK    6  A    between atoms: N_15  and  C_14 
REMARK    7  A    between atoms: N_20  and  C_19 
REMARK       I    between atoms: C_22  and  N_20 
ROOT
ATOM      1  C   LIG d   1       3.076  87.758 114.698  0.00  0.00     0.161 C 
ATOM      2  C   LIG d   1       2.819  86.924 113.597  0.00  0.00     0.016 C 
ATOM      3  C   LIG d   1       3.593  86.936 112.414  0.00  0.00     0.038 C 
ATOM      4  C   LIG d   1       4.776  87.683 112.310  0.00  0.00     0.028 C 
ATOM      5  C   LIG d   1       4.793  88.918 113.204  0.00  0.00    -0.047 C 
ATOM      6  C   LIG d   1       4.428  88.499 114.646  0.00  0.00     0.091 C 
ENDROOT
BRANCH   1   7
ATOM      7  O   LIG d   1       2.965  87.002 115.920  0.00  0.00    -0.368 OA
BRANCH   7   8
ATOM      8  C   LIG d   1       1.750  87.199 116.683  0.00  0.00     0.119 C 
BRANCH   8   9
ATOM      9  C   LIG d   1       0.861  85.958 116.468  0.00  0.00     0.028 C 
ATOM     10  C   LIG d   1      -0.248  86.204 115.432  0.00  0.00     0.006 C 
ENDBRANCH   8   9
BRANCH   8  11
ATOM     11  C   LIG d   1       0.936  88.379 116.142  0.00  0.00     0.028 C 
ATOM     12  C   LIG d   1       0.825  89.536 117.147  0.00  0.00     0.006 C 
ENDBRANCH   8  11
ENDBRANCH   7   8
ENDBRANCH   1   7
BRANCH   6  13
ATOM     13  N   LIG d   1       4.339  89.661 115.569  0.00  0.00    -0.311 N 
ATOM     14  C   LIG d   1       5.361  90.091 116.307  0.00  0.00     0.210 C 
ATOM     15  C   LIG d   1       5.050  91.292 117.205  0.00  0.00     0.109 C 
ATOM     16  O   LIG d   1       6.505  89.612 116.279  0.00  0.00    -0.276 OA
ATOM     17  H   LIG d   1       3.456  90.129 115.630  0.00  0.00     0.149 HD
ENDBRANCH   6  13
BRANCH   5  18
ATOM     18  N   LIG d   1       6.134  89.525 113.100  0.00  0.00     0.381 N 
ATOM     19  H   LIG d   1       6.471  89.760 114.012  0.00  0.00    -0.090 HD
ATOM     20  H   LIG d   1       6.067  90.371 112.561  0.00  0.00    -0.090 HD
ATOM     21  H   LIG d   1       6.762  88.890 112.659  0.00  0.00    -0.090 HD
ENDBRANCH   5  18
BRANCH   3  22
ATOM     22  C   LIG d   1       3.163  86.226 111.304  0.00  0.00     0.382 C 
ATOM     23  O   LIG d   1       3.728  85.150 110.990  0.00  0.00    -0.241 OA
ATOM     24  O   LIG d   1       2.247  86.669 110.586  0.00  0.00    -0.241 OA
ENDBRANCH   3  22
TORSDOF 7
ENDMDL
MODEL 9
REMARK VINA RESULT:      -4.9      3.106      5.385
REMARK  7 active torsions:
REMARK  status: ('A' for Active; 'I' for Inactive)
REMARK    1  A    between atoms: C_2  and  C_3 
REMARK    2  A    between atoms: C_3  and  O_6 
REMARK    3  A    between atoms: C_3  and  C_4 
REMARK    4  A    between atoms: C_7  and  O_6 
REMARK    5  A    between atoms: C_9  and  C_10 
REMARK    6  A    between atoms: N_15  and  C_14 
REMARK    7  A    between atoms: N_20  and  C_19 
REMARK       I    between atoms: C_22  and  N_20 
ROOT
ATOM      1  C   LIG d   1       1.766  86.282 112.733  0.00  0.00     0.161 C 
ATOM      2  C   LIG d   1       2.836  87.147 112.449  0.00  0.00     0.016 C 
ATOM      3  C   LIG d   1       3.436  87.986 113.416  0.00  0.00     0.038 C 
ATOM      4  C   LIG d   1       3.104  87.904 114.777  0.00  0.00     0.028 C 
ATOM      5  C   LIG d   1       1.683  87.409 115.025  0.00  0.00    -0.047 C 
ATOM      6  C   LIG d   1       1.464  86.099 114.235  0.00  0.00     0.091 C 
ENDROOT
BRANCH   1   7
ATOM      7  O   LIG d   1       1.992  85.003 112.108  0.00  0.00    -0.368 OA
BRANCH   7   8
ATOM      8  C   LIG d   1       1.747  84.939 110.681  0.00  0.00     0.119 C 
BRANCH   8   9
ATOM      9  C   LIG d   1       0.233  84.732 110.481  0.00  0.00     0.028 C 
ATOM     10  C   LIG d   1      -0.315  83.565 111.319  0.00  0.00     0.006 C 
ENDBRANCH   8   9
BRANCH   8  11
ATOM     11  C   LIG d   1       2.411  83.709 110.057  0.00  0.00     0.028 C 
ATOM     12  C   LIG d   1       3.847  83.488 110.558  0.00  0.00     0.006 C 
ENDBRANCH   8  11
ENDBRANCH   7   8
ENDBRANCH   1   7
BRANCH   6  13
ATOM     13  N   LIG d   1       0.072  85.591 114.355  0.00  0.00    -0.311 N 
ATOM     14  C   LIG d   1      -0.310  84.710 115.278  0.00  0.00     0.210 C 
ATOM     15  C   LIG d   1      -1.786  84.304 115.213  0.00  0.00     0.109 C 
ATOM     16  O   LIG d   1       0.426  84.249 116.164  0.00  0.00    -0.276 OA
ATOM     17  H   LIG d   1      -0.598  85.936 113.696  0.00  0.00     0.149 HD
ENDBRANCH   6  13
BRANCH   5  18
ATOM     18  N   LIG d   1       1.518  87.241 116.481  0.00  0.00     0.381 N 
ATOM     19  H   LIG d   1       1.478  86.268 116.708  0.00  0.00    -0.090 HD
ATOM     20  H   LIG d   1       0.651  87.666 116.761  0.00  0.00    -0.090 HD
ATOM     21  H   LIG d   1       2.277  87.671 116.963  0.00  0.00    -0.090 HD
ENDBRANCH   5  18
BRANCH   3  22
ATOM     22  C   LIG d   1       4.353  88.947 113.019  0.00  0.00     0.382 C 
ATOM     23  O   LIG d   1       4.055  90.163 113.086  0.00  0.00    -0.241 OA
ATOM     24  O   LIG d   1       5.458  88.611 112.551  0.00  0.00    -0.241 OA
ENDBRANCH   3  22
TORSDOF 7
ENDMDL
