MODEL 1
REMARK VINA RESULT:      -5.9      0.000      0.000
REMARK  7 active torsions:
REMARK  status: ('A' for Active; 'I' for Inactive)
REMARK    1  A    between atoms: C_2  and  C_3 
REMARK    2  A    between atoms: C_3  and  O_6 
REMARK    3  A    between atoms: C_3  and  C_4 
REMARK    4  A    between atoms: C_7  and  O_6 
REMARK    5  A    between atoms: C_9  and  C_10 
REMARK    6  A    between atoms: N_15  and  C_14 
REMARK    7  A    between atoms: N_20  and  C_19 
REMARK       I    between atoms: C_22  and  N_20 
ROOT
ATOM      1  C   LIG d   1       0.188  84.207 112.861  0.00  0.00     0.161 C 
ATOM      2  C   LIG d   1       1.048  85.072 112.164  0.00  0.00     0.016 C 
ATOM      3  C   LIG d   1       1.541  84.801 110.867  0.00  0.00     0.038 C 
ATOM      4  C   LIG d   1       1.085  83.710 110.113  0.00  0.00     0.028 C 
ATOM      5  C   LIG d   1       0.605  82.542 110.968  0.00  0.00    -0.047 C 
ATOM      6  C   LIG d   1      -0.409  83.066 112.010  0.00  0.00     0.091 C 
ENDROOT
BRANCH   1   7
ATOM      7  O   LIG d   1      -0.864  84.965 113.490  0.00  0.00    -0.368 OA
BRANCH   7   8
ATOM      8  C   LIG d   1      -0.791  85.080 114.933  0.00  0.00     0.119 C 
BRANCH   8   9
ATOM      9  C   LIG d   1       0.081  86.309 115.256  0.00  0.00     0.028 C 
ATOM     10  C   LIG d   1       1.264  85.964 116.176  0.00  0.00     0.006 C 
ENDBRANCH   8   9
BRANCH   8  11
ATOM     11  C   LIG d   1      -0.055  83.887 115.550  0.00  0.00     0.028 C 
ATOM     12  C   LIG d   1      -0.919  83.109 116.555  0.00  0.00     0.006 C 
ENDBRANCH   8  11
ENDBRANCH   7   8
ENDBRANCH   1   7
BRANCH   6  13
ATOM     13  N   LIG d   1      -0.865  82.002 112.942  0.00  0.00    -0.311 N 
ATOM     14  C   LIG d   1      -2.112  81.534 112.967  0.00  0.00     0.210 C 
ATOM     15  C   LIG d   1      -2.376  80.452 114.018  0.00  0.00     0.109 C 
ATOM     16  O   LIG d   1      -3.016  81.889 112.196  0.00  0.00    -0.276 OA
ATOM     17  H   LIG d   1      -0.188  81.635 113.582  0.00  0.00     0.149 HD
ENDBRANCH   6  13
BRANCH   5  18
ATOM     18  N   LIG d   1       0.030  81.532 110.059  0.00  0.00     0.381 N 
ATOM     19  H   LIG d   1      -0.734  81.930 109.550  0.00  0.00    -0.090 HD
ATOM     20  H   LIG d   1      -0.321  80.765 110.606  0.00  0.00    -0.090 HD
ATOM     21  H   LIG d   1       0.727  81.206 109.426  0.00  0.00    -0.090 HD
ENDBRANCH   5  18
BRANCH   3  22
ATOM     22  C   LIG d   1       2.533  85.606 110.327  0.00  0.00     0.382 C 
ATOM     23  O   LIG d   1       3.678  85.137 110.121  0.00  0.00    -0.241 OA
ATOM     24  O   LIG d   1       2.310  86.807 110.085  0.00  0.00    -0.241 OA
ENDBRANCH   3  22
TORSDOF 7
ENDMDL
MODEL 2
REMARK VINA RESULT:      -5.8      2.730      6.039
REMARK  7 active torsions:
REMARK  status: ('A' for Active; 'I' for Inactive)
REMARK    1  A    between atoms: C_2  and  C_3 
REMARK    2  A    between atoms: C_3  and  O_6 
REMARK    3  A    between atoms: C_3  and  C_4 
REMARK    4  A    between atoms: C_7  and  O_6 
REMARK    5  A    between atoms: C_9  and  C_10 
REMARK    6  A    between atoms: N_15  and  C_14 
REMARK    7  A    between atoms: N_20  and  C_19 
REMARK       I    between atoms: C_22  and  N_20 
ROOT
ATOM      1  C   LIG d   1       2.465  83.830 113.265  0.00  0.00     0.161 C 
ATOM      2  C   LIG d   1       1.655  82.866 112.643  0.00  0.00     0.016 C 
ATOM      3  C   LIG d   1       0.246  82.962 112.573  0.00  0.00     0.038 C 
ATOM      4  C   LIG d   1      -0.441  84.112 112.990  0.00  0.00     0.028 C 
ATOM      5  C   LIG d   1       0.288  84.890 114.081  0.00  0.00    -0.047 C 
ATOM      6  C   LIG d   1       1.744  85.145 113.628  0.00  0.00     0.091 C 
ENDROOT
BRANCH   1   7
ATOM      7  O   LIG d   1       3.619  84.102 112.444  0.00  0.00    -0.368 OA
BRANCH   7   8
ATOM      8  C   LIG d   1       3.363  84.305 111.033  0.00  0.00     0.119 C 
BRANCH   8   9
ATOM      9  C   LIG d   1       4.431  83.515 110.251  0.00  0.00     0.028 C 
ATOM     10  C   LIG d   1       4.043  82.039 110.055  0.00  0.00     0.006 C 
ENDBRANCH   8   9
BRANCH   8  11
ATOM     11  C   LIG d   1       3.569  85.769 110.634  0.00  0.00     0.028 C 
ATOM     12  C   LIG d   1       4.591  86.491 111.526  0.00  0.00     0.006 C 
ENDBRANCH   8  11
ENDBRANCH   7   8
ENDBRANCH   1   7
BRANCH   6  13
ATOM     13  N   LIG d   1       2.551  85.828 114.672  0.00  0.00    -0.311 N 
ATOM     14  C   LIG d   1       2.689  87.151 114.744  0.00  0.00     0.210 C 
ATOM     15  C   LIG d   1       3.581  87.647 115.886  0.00  0.00     0.109 C 
ATOM     16  O   LIG d   1       2.131  87.962 113.990  0.00  0.00    -0.276 OA
ATOM     17  H   LIG d   1       3.013  85.247 115.344  0.00  0.00     0.149 HD
ENDBRANCH   6  13
BRANCH   5  18
ATOM     18  N   LIG d   1      -0.468  86.134 114.322  0.00  0.00     0.381 N 
ATOM     19  H   LIG d   1       0.001  86.905 113.892  0.00  0.00    -0.090 HD
ATOM     20  H   LIG d   1      -0.509  86.302 115.312  0.00  0.00    -0.090 HD
ATOM     21  H   LIG d   1      -1.390  86.049 113.954  0.00  0.00    -0.090 HD
ENDBRANCH   5  18
BRANCH   3  22
ATOM     22  C   LIG d   1      -0.495  81.882 112.117  0.00  0.00     0.382 C 
ATOM     23  O   LIG d   1      -1.714  82.024 111.856  0.00  0.00    -0.241 OA
ATOM     24  O   LIG d   1       0.030  80.758 112.005  0.00  0.00    -0.241 OA
ENDBRANCH   3  22
TORSDOF 7
ENDMDL
MODEL 3
REMARK VINA RESULT:      -5.7      2.757      3.506
REMARK  7 active torsions:
REMARK  status: ('A' for Active; 'I' for Inactive)
REMARK    1  A    between atoms: C_2  and  C_3 
REMARK    2  A    between atoms: C_3  and  O_6 
REMARK    3  A    between atoms: C_3  and  C_4 
REMARK    4  A    between atoms: C_7  and  O_6 
REMARK    5  A    between atoms: C_9  and  C_10 
REMARK    6  A    between atoms: N_15  and  C_14 
REMARK    7  A    between atoms: N_20  and  C_19 
REMARK       I    between atoms: C_22  and  N_20 
ROOT
ATOM      1  C   LIG d   1       2.077  86.062 113.554  0.00  0.00     0.161 C 
ATOM      2  C   LIG d   1       2.930  87.174 113.661  0.00  0.00     0.016 C 
ATOM      3  C   LIG d   1       3.959  87.457 112.734  0.00  0.00     0.038 C 
ATOM      4  C   LIG d   1       4.109  86.726 111.546  0.00  0.00     0.028 C 
ATOM      5  C   LIG d   1       3.595  85.294 111.648  0.00  0.00    -0.047 C 
ATOM      6  C   LIG d   1       2.153  85.316 112.206  0.00  0.00     0.091 C 
ENDROOT
BRANCH   1   7
ATOM      7  O   LIG d   1       0.719  86.460 113.831  0.00  0.00    -0.368 OA
BRANCH   7   8
ATOM      8  C   LIG d   1       0.243  86.208 115.176  0.00  0.00     0.119 C 
BRANCH   8   9
ATOM      9  C   LIG d   1       1.029  85.002 115.727  0.00  0.00     0.028 C 
ATOM     10  C   LIG d   1       1.653  85.289 117.103  0.00  0.00     0.006 C 
ENDBRANCH   8   9
BRANCH   8  11
ATOM     11  C   LIG d   1      -1.224  85.769 115.174  0.00  0.00     0.028 C 
ATOM     12  C   LIG d   1      -1.393  84.255 115.379  0.00  0.00     0.006 C 
ENDBRANCH   8  11
ENDBRANCH   7   8
ENDBRANCH   1   7
BRANCH   6  13
ATOM     13  N   LIG d   1       1.606  83.951 112.416  0.00  0.00    -0.311 N 
ATOM     14  C   LIG d   1       0.340  83.621 112.161  0.00  0.00     0.210 C 
ATOM     15  C   LIG d   1      -0.022  82.165 112.467  0.00  0.00     0.109 C 
ATOM     16  O   LIG d   1      -0.507  84.388 111.681  0.00  0.00    -0.276 OA
ATOM     17  H   LIG d   1       2.233  83.258 112.774  0.00  0.00     0.149 HD
ENDBRANCH   6  13
BRANCH   5  18
ATOM     18  N   LIG d   1       3.685  84.692 110.304  0.00  0.00     0.381 N 
ATOM     19  H   LIG d   1       4.378  83.970 110.302  0.00  0.00    -0.090 HD
ATOM     20  H   LIG d   1       3.966  85.400 109.649  0.00  0.00    -0.090 HD
ATOM     21  H   LIG d   1       2.801  84.315 110.039  0.00  0.00    -0.090 HD
ENDBRANCH   5  18
BRANCH   3  22
ATOM     22  C   LIG d   1       4.877  88.458 113.012  0.00  0.00     0.382 C 
ATOM     23  O   LIG d   1       4.584  89.372 113.819  0.00  0.00    -0.241 OA
ATOM     24  O   LIG d   1       5.979  88.483 112.431  0.00  0.00    -0.241 OA
ENDBRANCH   3  22
TORSDOF 7
ENDMDL
MODEL 4
REMARK VINA RESULT:      -5.7      2.773      6.310
REMARK  7 active torsions:
REMARK  status: ('A' for Active; 'I' for Inactive)
REMARK    1  A    between atoms: C_2  and  C_3 
REMARK    2  A    between atoms: C_3  and  O_6 
REMARK    3  A    between atoms: C_3  and  C_4 
REMARK    4  A    between atoms: C_7  and  O_6 
REMARK    5  A    between atoms: C_9  and  C_10 
REMARK    6  A    between atoms: N_15  and  C_14 
REMARK    7  A    between atoms: N_20  and  C_19 
REMARK       I    between atoms: C_22  and  N_20 
ROOT
ATOM      1  C   LIG d   1       1.205  84.507 113.231  0.00  0.00     0.161 C 
ATOM      2  C   LIG d   1       0.058  83.955 113.824  0.00  0.00     0.016 C 
ATOM      3  C   LIG d   1      -0.691  84.610 114.829  0.00  0.00     0.038 C 
ATOM      4  C   LIG d   1      -0.428  85.936 115.203  0.00  0.00     0.028 C 
ATOM      5  C   LIG d   1       1.026  86.348 114.994  0.00  0.00    -0.047 C 
ATOM      6  C   LIG d   1       1.443  85.999 113.547  0.00  0.00     0.091 C 
ENDROOT
BRANCH   1   7
ATOM      7  O   LIG d   1       1.167  84.297 111.805  0.00  0.00    -0.368 OA
BRANCH   7   8
ATOM      8  C   LIG d   1       2.169  83.400 111.266  0.00  0.00     0.119 C 
BRANCH   8   9
ATOM      9  C   LIG d   1       2.943  84.170 110.179  0.00  0.00     0.028 C 
ATOM     10  C   LIG d   1       4.466  84.002 110.314  0.00  0.00     0.006 C 
ENDBRANCH   8   9
BRANCH   8  11
ATOM     11  C   LIG d   1       1.523  82.215 110.542  0.00  0.00     0.028 C 
ATOM     12  C   LIG d   1       1.021  81.129 111.506  0.00  0.00     0.006 C 
ENDBRANCH   8  11
ENDBRANCH   7   8
ENDBRANCH   1   7
BRANCH   6  13
ATOM     13  N   LIG d   1       2.876  86.291 113.284  0.00  0.00    -0.311 N 
ATOM     14  C   LIG d   1       3.290  87.161 112.363  0.00  0.00     0.210 C 
ATOM     15  C   LIG d   1       4.810  87.298 112.241  0.00  0.00     0.109 C 
ATOM     16  O   LIG d   1       2.541  87.855 111.659  0.00  0.00    -0.276 OA
ATOM     17  H   LIG d   1       3.551  85.795 113.832  0.00  0.00     0.149 HD
ENDBRANCH   6  13
BRANCH   5  18
ATOM     18  N   LIG d   1       1.129  87.788 115.294  0.00  0.00     0.381 N 
ATOM     19  H   LIG d   1       1.439  87.917 116.236  0.00  0.00    -0.090 HD
ATOM     20  H   LIG d   1       0.219  88.205 115.202  0.00  0.00    -0.090 HD
ATOM     21  H   LIG d   1       1.767  88.223 114.664  0.00  0.00    -0.090 HD
ENDBRANCH   5  18
BRANCH   3  22
ATOM     22  C   LIG d   1      -1.692  83.923 115.499  0.00  0.00     0.382 C 
ATOM     23  O   LIG d   1      -1.433  83.328 116.573  0.00  0.00    -0.241 OA
ATOM     24  O   LIG d   1      -2.839  83.853 115.020  0.00  0.00    -0.241 OA
ENDBRANCH   3  22
TORSDOF 7
ENDMDL
MODEL 5
REMARK VINA RESULT:      -5.4      2.003      4.040
REMARK  7 active torsions:
REMARK  status: ('A' for Active; 'I' for Inactive)
REMARK    1  A    between atoms: C_2  and  C_3 
REMARK    2  A    between atoms: C_3  and  O_6 
REMARK    3  A    between atoms: C_3  and  C_4 
REMARK    4  A    between atoms: C_7  and  O_6 
REMARK    5  A    between atoms: C_9  and  C_10 
REMARK    6  A    between atoms: N_15  and  C_14 
REMARK    7  A    between atoms: N_20  and  C_19 
REMARK       I    between atoms: C_22  and  N_20 
ROOT
ATOM      1  C   LIG d   1      -0.191  84.634 112.706  0.00  0.00     0.161 C 
ATOM      2  C   LIG d   1       0.614  85.382 111.831  0.00  0.00     0.016 C 
ATOM      3  C   LIG d   1       1.892  85.876 112.180  0.00  0.00     0.038 C 
ATOM      4  C   LIG d   1       2.519  85.525 113.384  0.00  0.00     0.028 C 
ATOM      5  C   LIG d   1       1.538  85.191 114.503  0.00  0.00    -0.047 C 
ATOM      6  C   LIG d   1       0.522  84.147 113.985  0.00  0.00     0.091 C 
ENDROOT
BRANCH   1   7
ATOM      7  O   LIG d   1      -0.774  83.520 112.002  0.00  0.00    -0.368 OA
BRANCH   7   8
ATOM      8  C   LIG d   1       0.016  82.306 111.965  0.00  0.00     0.119 C 
BRANCH   8   9
ATOM      9  C   LIG d   1       0.419  82.060 110.498  0.00  0.00     0.028 C 
ATOM     10  C   LIG d   1       1.176  80.735 110.312  0.00  0.00     0.006 C 
ENDBRANCH   8   9
BRANCH   8  11
ATOM     11  C   LIG d   1      -0.818  81.086 112.367  0.00  0.00     0.028 C 
ATOM     12  C   LIG d   1      -2.256  81.453 112.766  0.00  0.00     0.006 C 
ENDBRANCH   8  11
ENDBRANCH   7   8
ENDBRANCH   1   7
BRANCH   6  13
ATOM     13  N   LIG d   1      -0.525  83.828 114.990  0.00  0.00    -0.311 N 
ATOM     14  C   LIG d   1      -0.459  82.779 115.808  0.00  0.00     0.210 C 
ATOM     15  C   LIG d   1      -1.653  82.621 116.754  0.00  0.00     0.109 C 
ATOM     16  O   LIG d   1       0.491  81.983 115.863  0.00  0.00    -0.276 OA
ATOM     17  H   LIG d   1      -1.316  84.439 115.035  0.00  0.00     0.149 HD
ENDBRANCH   6  13
BRANCH   5  18
ATOM     18  N   LIG d   1       2.323  84.711 115.656  0.00  0.00     0.381 N 
ATOM     19  H   LIG d   1       1.910  83.877 116.023  0.00  0.00    -0.090 HD
ATOM     20  H   LIG d   1       2.309  85.413 116.374  0.00  0.00    -0.090 HD
ATOM     21  H   LIG d   1       3.262  84.529 115.377  0.00  0.00    -0.090 HD
ENDBRANCH   5  18
BRANCH   3  22
ATOM     22  C   LIG d   1       2.540  86.764 111.334  0.00  0.00     0.382 C 
ATOM     23  O   LIG d   1       2.858  87.905 111.749  0.00  0.00    -0.241 OA
ATOM     24  O   LIG d   1       2.770  86.455 110.150  0.00  0.00    -0.241 OA
ENDBRANCH   3  22
TORSDOF 7
ENDMDL
MODEL 6
REMARK VINA RESULT:      -5.4      1.989      4.865
REMARK  7 active torsions:
REMARK  status: ('A' for Active; 'I' for Inactive)
REMARK    1  A    between atoms: C_2  and  C_3 
REMARK    2  A    between atoms: C_3  and  O_6 
REMARK    3  A    between atoms: C_3  and  C_4 
REMARK    4  A    between atoms: C_7  and  O_6 
REMARK    5  A    between atoms: C_9  and  C_10 
REMARK    6  A    between atoms: N_15  and  C_14 
REMARK    7  A    between atoms: N_20  and  C_19 
REMARK       I    between atoms: C_22  and  N_20 
ROOT
ATOM      1  C   LIG d   1       0.435  84.089 112.698  0.00  0.00     0.161 C 
ATOM      2  C   LIG d   1      -0.730  83.430 113.127  0.00  0.00     0.016 C 
ATOM      3  C   LIG d   1      -1.135  82.167 112.636  0.00  0.00     0.038 C 
ATOM      4  C   LIG d   1      -0.318  81.404 111.789  0.00  0.00     0.028 C 
ATOM      5  C   LIG d   1       0.625  82.247 110.937  0.00  0.00    -0.047 C 
ATOM      6  C   LIG d   1       1.395  83.222 111.857  0.00  0.00     0.091 C 
ENDROOT
BRANCH   1   7
ATOM      7  O   LIG d   1       1.127  84.646 113.833  0.00  0.00    -0.368 OA
BRANCH   7   8
ATOM      8  C   LIG d   1       1.379  83.739 114.934  0.00  0.00     0.119 C 
BRANCH   8   9
ATOM      9  C   LIG d   1       0.834  84.402 116.214  0.00  0.00     0.028 C 
ATOM     10  C   LIG d   1      -0.231  83.541 116.913  0.00  0.00     0.006 C 
ENDBRANCH   8   9
BRANCH   8  11
ATOM     11  C   LIG d   1       2.881  83.562 115.178  0.00  0.00     0.028 C 
ATOM     12  C   LIG d   1       3.723  84.679 114.540  0.00  0.00     0.006 C 
ENDBRANCH   8  11
ENDBRANCH   7   8
ENDBRANCH   1   7
BRANCH   6  13
ATOM     13  N   LIG d   1       2.279  84.142 111.094  0.00  0.00    -0.311 N 
ATOM     14  C   LIG d   1       3.561  83.884 110.841  0.00  0.00     0.210 C 
ATOM     15  C   LIG d   1       4.297  84.975 110.056  0.00  0.00     0.109 C 
ATOM     16  O   LIG d   1       4.150  82.842 111.164  0.00  0.00    -0.276 OA
ATOM     17  H   LIG d   1       1.874  84.997 110.767  0.00  0.00     0.149 HD
ENDBRANCH   6  13
BRANCH   5  18
ATOM     18  N   LIG d   1       1.511  81.322 110.205  0.00  0.00     0.381 N 
ATOM     19  H   LIG d   1       1.327  80.380 110.489  0.00  0.00    -0.090 HD
ATOM     20  H   LIG d   1       2.466  81.538 110.432  0.00  0.00    -0.090 HD
ATOM     21  H   LIG d   1       1.365  81.415 109.224  0.00  0.00    -0.090 HD
ENDBRANCH   5  18
BRANCH   3  22
ATOM     22  C   LIG d   1      -2.389  81.674 112.963  0.00  0.00     0.382 C 
ATOM     23  O   LIG d   1      -2.846  80.674 112.358  0.00  0.00    -0.241 OA
ATOM     24  O   LIG d   1      -3.087  82.242 113.824  0.00  0.00    -0.241 OA
ENDBRANCH   3  22
TORSDOF 7
ENDMDL
MODEL 7
REMARK VINA RESULT:      -5.3      3.902      5.821
REMARK  7 active torsions:
REMARK  status: ('A' for Active; 'I' for Inactive)
REMARK    1  A    between atoms: C_2  and  C_3 
REMARK    2  A    between atoms: C_3  and  O_6 
REMARK    3  A    between atoms: C_3  and  C_4 
REMARK    4  A    between atoms: C_7  and  O_6 
REMARK    5  A    between atoms: C_9  and  C_10 
REMARK    6  A    between atoms: N_15  and  C_14 
REMARK    7  A    between atoms: N_20  and  C_19 
REMARK       I    between atoms: C_22  and  N_20 
ROOT
ATOM      1  C   LIG d   1       3.861  85.458 112.761  0.00  0.00     0.161 C 
ATOM      2  C   LIG d   1       4.482  86.661 112.386  0.00  0.00     0.016 C 
ATOM      3  C   LIG d   1       5.054  87.563 113.311  0.00  0.00     0.038 C 
ATOM      4  C   LIG d   1       5.179  87.249 114.673  0.00  0.00     0.028 C 
ATOM      5  C   LIG d   1       4.116  86.274 115.169  0.00  0.00    -0.047 C 
ATOM      6  C   LIG d   1       4.085  85.046 114.231  0.00  0.00     0.091 C 
ENDROOT
BRANCH   1   7
ATOM      7  O   LIG d   1       4.272  84.398 111.875  0.00  0.00    -0.368 OA
BRANCH   7   8
ATOM      8  C   LIG d   1       3.273  83.928 110.937  0.00  0.00     0.119 C 
BRANCH   8   9
ATOM      9  C   LIG d   1       1.981  84.726 111.198  0.00  0.00     0.028 C 
ATOM     10  C   LIG d   1       1.652  85.701 110.055  0.00  0.00     0.006 C 
ENDBRANCH   8   9
BRANCH   8  11
ATOM     11  C   LIG d   1       2.906  82.465 111.200  0.00  0.00     0.028 C 
ATOM     12  C   LIG d   1       1.486  82.298 111.762  0.00  0.00     0.006 C 
ENDBRANCH   8  11
ENDBRANCH   7   8
ENDBRANCH   1   7
BRANCH   6  13
ATOM     13  N   LIG d   1       3.016  84.081 114.596  0.00  0.00    -0.311 N 
ATOM     14  C   LIG d   1       3.220  83.019 115.374  0.00  0.00     0.210 C 
ATOM     15  C   LIG d   1       1.986  82.142 115.609  0.00  0.00     0.109 C 
ATOM     16  O   LIG d   1       4.299  82.738 115.917  0.00  0.00    -0.276 OA
ATOM     17  H   LIG d   1       2.102  84.250 114.224  0.00  0.00     0.149 HD
ENDBRANCH   6  13
BRANCH   5  18
ATOM     18  N   LIG d   1       4.446  85.928 116.565  0.00  0.00     0.381 N 
ATOM     19  H   LIG d   1       4.506  84.934 116.662  0.00  0.00    -0.090 HD
ATOM     20  H   LIG d   1       3.712  86.259 117.164  0.00  0.00    -0.090 HD
ATOM     21  H   LIG d   1       5.312  86.347 116.824  0.00  0.00    -0.090 HD
ENDBRANCH   5  18
BRANCH   3  22
ATOM     22  C   LIG d   1       5.473  88.814 112.883  0.00  0.00     0.382 C 
ATOM     23  O   LIG d   1       4.635  89.732 112.712  0.00  0.00    -0.241 OA
ATOM     24  O   LIG d   1       6.674  89.022 112.623  0.00  0.00    -0.241 OA
ENDBRANCH   3  22
TORSDOF 7
ENDMDL
MODEL 8
REMARK VINA RESULT:      -5.1      4.554      6.573
REMARK  7 active torsions:
REMARK  status: ('A' for Active; 'I' for Inactive)
REMARK    1  A    between atoms: C_2  and  C_3 
REMARK    2  A    between atoms: C_3  and  O_6 
REMARK    3  A    between atoms: C_3  and  C_4 
REMARK    4  A    between atoms: C_7  and  O_6 
REMARK    5  A    between atoms: C_9  and  C_10 
REMARK    6  A    between atoms: N_15  and  C_14 
REMARK    7  A    between atoms: N_20  and  C_19 
REMARK       I    between atoms: C_22  and  N_20 
ROOT
ATOM      1  C   LIG d   1       2.861  87.560 114.115  0.00  0.00     0.161 C 
ATOM      2  C   LIG d   1       2.772  86.763 112.961  0.00  0.00     0.016 C 
ATOM      3  C   LIG d   1       3.792  86.692 111.984  0.00  0.00     0.038 C 
ATOM      4  C   LIG d   1       5.041  87.302 112.171  0.00  0.00     0.028 C 
ATOM      5  C   LIG d   1       4.989  88.525 113.080  0.00  0.00    -0.047 C 
ATOM      6  C   LIG d   1       4.262  88.145 114.391  0.00  0.00     0.091 C 
ENDROOT
BRANCH   1   7
ATOM      7  O   LIG d   1       2.394  86.818 115.259  0.00  0.00    -0.368 OA
BRANCH   7   8
ATOM      8  C   LIG d   1       0.977  86.916 115.547  0.00  0.00     0.119 C 
BRANCH   8   9
ATOM      9  C   LIG d   1       0.831  87.596 116.922  0.00  0.00     0.028 C 
ATOM     10  C   LIG d   1       0.416  89.073 116.805  0.00  0.00     0.006 C 
ENDBRANCH   8   9
BRANCH   8  11
ATOM     11  C   LIG d   1       0.345  85.530 115.711  0.00  0.00     0.028 C 
ATOM     12  C   LIG d   1      -1.128  85.492 115.274  0.00  0.00     0.006 C 
ENDBRANCH   8  11
ENDBRANCH   7   8
ENDBRANCH   1   7
BRANCH   6  13
ATOM     13  N   LIG d   1       4.092  89.307 115.302  0.00  0.00    -0.311 N 
ATOM     14  C   LIG d   1       4.931  89.585 116.299  0.00  0.00     0.210 C 
ATOM     15  C   LIG d   1       4.561  90.817 117.130  0.00  0.00     0.109 C 
ATOM     16  O   LIG d   1       5.963  88.946 116.553  0.00  0.00    -0.276 OA
ATOM     17  H   LIG d   1       3.298  89.896 115.147  0.00  0.00     0.149 HD
ENDBRANCH   6  13
BRANCH   5  18
ATOM     18  N   LIG d   1       6.375  88.977 113.299  0.00  0.00     0.381 N 
ATOM     19  H   LIG d   1       7.012  88.347 112.853  0.00  0.00    -0.090 HD
ATOM     20  H   LIG d   1       6.567  88.973 114.285  0.00  0.00    -0.090 HD
ATOM     21  H   LIG d   1       6.496  89.897 112.934  0.00  0.00    -0.090 HD
ENDBRANCH   5  18
BRANCH   3  22
ATOM     22  C   LIG d   1       3.550  86.038 110.786  0.00  0.00     0.382 C 
ATOM     23  O   LIG d   1       4.326  85.130 110.400  0.00  0.00    -0.241 OA
ATOM     24  O   LIG d   1       2.593  86.374 110.064  0.00  0.00    -0.241 OA
ENDBRANCH   3  22
TORSDOF 7
ENDMDL
MODEL 9
REMARK VINA RESULT:      -5.1      2.011      4.911
REMARK  7 active torsions:
REMARK  status: ('A' for Active; 'I' for Inactive)
REMARK    1  A    between atoms: C_2  and  C_3 
REMARK    2  A    between atoms: C_3  and  O_6 
REMARK    3  A    between atoms: C_3  and  C_4 
REMARK    4  A    between atoms: C_7  and  O_6 
REMARK    5  A    between atoms: C_9  and  C_10 
REMARK    6  A    between atoms: N_15  and  C_14 
REMARK    7  A    between atoms: N_20  and  C_19 
REMARK       I    between atoms: C_22  and  N_20 
ROOT
ATOM      1  C   LIG d   1       0.746  84.111 113.461  0.00  0.00     0.161 C 
ATOM      2  C   LIG d   1      -0.435  83.403 113.739  0.00  0.00     0.016 C 
ATOM      3  C   LIG d   1      -0.979  82.426 112.874  0.00  0.00     0.038 C 
ATOM      4  C   LIG d   1      -0.292  81.979 111.736  0.00  0.00     0.028 C 
ATOM      5  C   LIG d   1       0.655  83.022 111.151  0.00  0.00    -0.047 C 
ATOM      6  C   LIG d   1       1.568  83.558 112.277  0.00  0.00     0.091 C 
ENDROOT
BRANCH   1   7
ATOM      7  O   LIG d   1       1.563  84.185 114.646  0.00  0.00    -0.368 OA
BRANCH   7   8
ATOM      8  C   LIG d   1       1.943  85.515 115.076  0.00  0.00     0.119 C 
BRANCH   8   9
ATOM      9  C   LIG d   1       3.313  85.403 115.772  0.00  0.00     0.028 C 
ATOM     10  C   LIG d   1       4.485  85.495 114.780  0.00  0.00     0.006 C 
ENDBRANCH   8   9
BRANCH   8  11
ATOM     11  C   LIG d   1       0.987  86.049 116.147  0.00  0.00     0.028 C 
ATOM     12  C   LIG d   1       0.834  87.578 116.101  0.00  0.00     0.006 C 
ENDBRANCH   8  11
ENDBRANCH   7   8
ENDBRANCH   1   7
BRANCH   6  13
ATOM     13  N   LIG d   1       2.468  84.644 111.808  0.00  0.00    -0.311 N 
ATOM     14  C   LIG d   1       3.693  84.427 111.333  0.00  0.00     0.210 C 
ATOM     15  C   LIG d   1       4.461  85.687 110.923  0.00  0.00     0.109 C 
ATOM     16  O   LIG d   1       4.205  83.307 111.182  0.00  0.00    -0.276 OA
ATOM     17  H   LIG d   1       2.121  85.581 111.866  0.00  0.00     0.149 HD
ENDBRANCH   6  13
BRANCH   5  18
ATOM     18  N   LIG d   1       1.404  82.379 110.056  0.00  0.00     0.381 N 
ATOM     19  H   LIG d   1       2.374  82.615 110.125  0.00  0.00    -0.090 HD
ATOM     20  H   LIG d   1       1.058  82.724 109.178  0.00  0.00    -0.090 HD
ATOM     21  H   LIG d   1       1.292  81.390 110.100  0.00  0.00    -0.090 HD
ENDBRANCH   5  18
BRANCH   3  22
ATOM     22  C   LIG d   1      -2.242  81.913 113.125  0.00  0.00     0.382 C 
ATOM     23  O   LIG d   1      -2.530  81.485 114.269  0.00  0.00    -0.241 OA
ATOM     24  O   LIG d   1      -3.084  81.832 112.211  0.00  0.00    -0.241 OA
ENDBRANCH   3  22
TORSDOF 7
ENDMDL
