MODEL 1
REMARK VINA RESULT:      -5.5      0.000      0.000
REMARK  7 active torsions:
REMARK  status: ('A' for Active; 'I' for Inactive)
REMARK    1  A    between atoms: C_2  and  C_3 
REMARK    2  A    between atoms: C_3  and  O_6 
REMARK    3  A    between atoms: C_3  and  C_4 
REMARK    4  A    between atoms: C_7  and  O_6 
REMARK    5  A    between atoms: C_9  and  C_10 
REMARK    6  A    between atoms: N_15  and  C_14 
REMARK    7  A    between atoms: N_20  and  C_19 
REMARK       I    between atoms: C_22  and  N_20 
ROOT
ATOM      1  C   LIG d   1       1.986  84.352 113.458  0.00  0.00     0.161 C 
ATOM      2  C   LIG d   1       2.600  85.615 113.485  0.00  0.00     0.016 C 
ATOM      3  C   LIG d   1       2.443  86.579 112.462  0.00  0.00     0.038 C 
ATOM      4  C   LIG d   1       1.534  86.400 111.408  0.00  0.00     0.028 C 
ATOM      5  C   LIG d   1       1.275  84.935 111.074  0.00  0.00    -0.047 C 
ATOM      6  C   LIG d   1       0.903  84.182 112.372  0.00  0.00     0.091 C 
ENDROOT
BRANCH   1   7
ATOM      7  O   LIG d   1       1.445  84.044 114.757  0.00  0.00    -0.368 OA
BRANCH   7   8
ATOM      8  C   LIG d   1       2.345  84.216 115.880  0.00  0.00     0.119 C 
BRANCH   8   9
ATOM      9  C   LIG d   1       2.665  82.815 116.435  0.00  0.00     0.028 C 
ATOM     10  C   LIG d   1       1.582  82.305 117.401  0.00  0.00     0.006 C 
ENDBRANCH   8   9
BRANCH   8  11
ATOM     11  C   LIG d   1       1.664  84.963 117.031  0.00  0.00     0.028 C 
ATOM     12  C   LIG d   1       1.387  86.438 116.702  0.00  0.00     0.006 C 
ENDBRANCH   8  11
ENDBRANCH   7   8
ENDBRANCH   1   7
BRANCH   6  13
ATOM     13  N   LIG d   1       0.716  82.725 112.147  0.00  0.00    -0.311 N 
ATOM     14  C   LIG d   1      -0.473  82.163 111.937  0.00  0.00     0.210 C 
ATOM     15  C   LIG d   1      -0.445  80.643 111.749  0.00  0.00     0.109 C 
ATOM     16  O   LIG d   1      -1.544  82.783 111.857  0.00  0.00    -0.276 OA
ATOM     17  H   LIG d   1       1.536  82.151 112.165  0.00  0.00     0.149 HD
ENDBRANCH   6  13
BRANCH   5  18
ATOM     18  N   LIG d   1       0.209  84.893 110.055  0.00  0.00     0.381 N 
ATOM     19  H   LIG d   1       0.374  85.595 109.362  0.00  0.00    -0.090 HD
ATOM     20  H   LIG d   1      -0.672  85.087 110.498  0.00  0.00    -0.090 HD
ATOM     21  H   LIG d   1       0.182  83.993 109.627  0.00  0.00    -0.090 HD
ENDBRANCH   5  18
BRANCH   3  22
ATOM     22  C   LIG d   1       3.231  87.720 112.466  0.00  0.00     0.382 C 
ATOM     23  O   LIG d   1       4.372  87.696 111.946  0.00  0.00    -0.241 OA
ATOM     24  O   LIG d   1       2.832  88.761 113.022  0.00  0.00    -0.241 OA
ENDBRANCH   3  22
TORSDOF 7
ENDMDL
MODEL 2
REMARK VINA RESULT:      -5.5      2.990      5.353
REMARK  7 active torsions:
REMARK  status: ('A' for Active; 'I' for Inactive)
REMARK    1  A    between atoms: C_2  and  C_3 
REMARK    2  A    between atoms: C_3  and  O_6 
REMARK    3  A    between atoms: C_3  and  C_4 
REMARK    4  A    between atoms: C_7  and  O_6 
REMARK    5  A    between atoms: C_9  and  C_10 
REMARK    6  A    between atoms: N_15  and  C_14 
REMARK    7  A    between atoms: N_20  and  C_19 
REMARK       I    between atoms: C_22  and  N_20 
ROOT
ATOM      1  C   LIG d   1       2.627  86.744 114.285  0.00  0.00     0.161 C 
ATOM      2  C   LIG d   1       3.260  87.926 113.868  0.00  0.00     0.016 C 
ATOM      3  C   LIG d   1       4.326  88.529 114.575  0.00  0.00     0.038 C 
ATOM      4  C   LIG d   1       4.934  87.904 115.674  0.00  0.00     0.028 C 
ATOM      5  C   LIG d   1       4.002  86.962 116.428  0.00  0.00    -0.047 C 
ATOM      6  C   LIG d   1       3.350  85.988 115.419  0.00  0.00     0.091 C 
ENDROOT
BRANCH   1   7
ATOM      7  O   LIG d   1       2.423  85.874 113.154  0.00  0.00    -0.368 OA
BRANCH   7   8
ATOM      8  C   LIG d   1       1.552  86.378 112.111  0.00  0.00     0.119 C 
BRANCH   8   9
ATOM      9  C   LIG d   1       0.149  85.789 112.355  0.00  0.00     0.028 C 
ATOM     10  C   LIG d   1      -0.846  86.164 111.245  0.00  0.00     0.006 C 
ENDBRANCH   8   9
BRANCH   8  11
ATOM     11  C   LIG d   1       1.975  85.860 110.734  0.00  0.00     0.028 C 
ATOM     12  C   LIG d   1       3.255  85.010 110.784  0.00  0.00     0.006 C 
ENDBRANCH   8  11
ENDBRANCH   7   8
ENDBRANCH   1   7
BRANCH   6  13
ATOM     13  N   LIG d   1       2.359  85.086 116.062  0.00  0.00    -0.311 N 
ATOM     14  C   LIG d   1       2.666  83.882 116.541  0.00  0.00     0.210 C 
ATOM     15  C   LIG d   1       1.491  83.107 117.146  0.00  0.00     0.109 C 
ATOM     16  O   LIG d   1       3.807  83.395 116.552  0.00  0.00    -0.276 OA
ATOM     17  H   LIG d   1       1.415  85.415 116.124  0.00  0.00     0.149 HD
ENDBRANCH   6  13
BRANCH   5  18
ATOM     18  N   LIG d   1       4.801  86.275 117.460  0.00  0.00     0.381 N 
ATOM     19  H   LIG d   1       5.615  86.816 117.673  0.00  0.00    -0.090 HD
ATOM     20  H   LIG d   1       5.099  85.385 117.102  0.00  0.00    -0.090 HD
ATOM     21  H   LIG d   1       4.255  86.145 118.283  0.00  0.00    -0.090 HD
ENDBRANCH   5  18
BRANCH   3  22
ATOM     22  C   LIG d   1       4.767  89.791 114.208  0.00  0.00     0.382 C 
ATOM     23  O   LIG d   1       5.100  90.620 115.089  0.00  0.00    -0.241 OA
ATOM     24  O   LIG d   1       4.794  90.127 113.009  0.00  0.00    -0.241 OA
ENDBRANCH   3  22
TORSDOF 7
ENDMDL
MODEL 3
REMARK VINA RESULT:      -5.2     25.171     27.172
REMARK  7 active torsions:
REMARK  status: ('A' for Active; 'I' for Inactive)
REMARK    1  A    between atoms: C_2  and  C_3 
REMARK    2  A    between atoms: C_3  and  O_6 
REMARK    3  A    between atoms: C_3  and  C_4 
REMARK    4  A    between atoms: C_7  and  O_6 
REMARK    5  A    between atoms: C_9  and  C_10 
REMARK    6  A    between atoms: N_15  and  C_14 
REMARK    7  A    between atoms: N_20  and  C_19 
REMARK       I    between atoms: C_22  and  N_20 
ROOT
ATOM      1  C   LIG d   1     -25.605  85.638 113.879  0.00  0.00     0.161 C 
ATOM      2  C   LIG d   1     -24.557  86.573 113.917  0.00  0.00     0.016 C 
ATOM      3  C   LIG d   1     -23.225  86.265 113.556  0.00  0.00     0.038 C 
ATOM      4  C   LIG d   1     -22.878  85.032 112.985  0.00  0.00     0.028 C 
ATOM      5  C   LIG d   1     -23.803  83.891 113.398  0.00  0.00    -0.047 C 
ATOM      6  C   LIG d   1     -25.268  84.319 113.153  0.00  0.00     0.091 C 
ENDROOT
BRANCH   1   7
ATOM      7  O   LIG d   1     -26.778  86.242 113.301  0.00  0.00    -0.368 OA
BRANCH   7   8
ATOM      8  C   LIG d   1     -26.551  87.136 112.184  0.00  0.00     0.119 C 
BRANCH   8   9
ATOM      9  C   LIG d   1     -27.218  88.483 112.526  0.00  0.00     0.028 C 
ATOM     10  C   LIG d   1     -27.169  89.476 111.353  0.00  0.00     0.006 C 
ENDBRANCH   8   9
BRANCH   8  11
ATOM     11  C   LIG d   1     -27.260  86.641 110.920  0.00  0.00     0.028 C 
ATOM     12  C   LIG d   1     -28.586  85.925 111.223  0.00  0.00     0.006 C 
ENDBRANCH   8  11
ENDBRANCH   7   8
ENDBRANCH   1   7
BRANCH   6  13
ATOM     13  N   LIG d   1     -26.241  83.293 113.609  0.00  0.00    -0.311 N 
ATOM     14  C   LIG d   1     -27.067  82.649 112.786  0.00  0.00     0.210 C 
ATOM     15  C   LIG d   1     -28.004  81.645 113.465  0.00  0.00     0.109 C 
ATOM     16  O   LIG d   1     -27.091  82.790 111.554  0.00  0.00    -0.276 OA
ATOM     17  H   LIG d   1     -26.268  83.093 114.590  0.00  0.00     0.149 HD
ENDBRANCH   6  13
BRANCH   5  18
ATOM     18  N   LIG d   1     -23.411  82.698 112.624  0.00  0.00     0.381 N 
ATOM     19  H   LIG d   1     -23.300  82.941 111.660  0.00  0.00    -0.090 HD
ATOM     20  H   LIG d   1     -24.141  82.011 112.694  0.00  0.00    -0.090 HD
ATOM     21  H   LIG d   1     -22.559  82.324 112.981  0.00  0.00    -0.090 HD
ENDBRANCH   5  18
BRANCH   3  22
ATOM     22  C   LIG d   1     -22.216  87.183 113.804  0.00  0.00     0.382 C 
ATOM     23  O   LIG d   1     -21.108  87.067 113.227  0.00  0.00    -0.241 OA
ATOM     24  O   LIG d   1     -22.385  88.100 114.630  0.00  0.00    -0.241 OA
ENDBRANCH   3  22
TORSDOF 7
ENDMDL
MODEL 4
REMARK VINA RESULT:      -5.2      8.937     11.260
REMARK  7 active torsions:
REMARK  status: ('A' for Active; 'I' for Inactive)
REMARK    1  A    between atoms: C_2  and  C_3 
REMARK    2  A    between atoms: C_3  and  O_6 
REMARK    3  A    between atoms: C_3  and  C_4 
REMARK    4  A    between atoms: C_7  and  O_6 
REMARK    5  A    between atoms: C_9  and  C_10 
REMARK    6  A    between atoms: N_15  and  C_14 
REMARK    7  A    between atoms: N_20  and  C_19 
REMARK       I    between atoms: C_22  and  N_20 
ROOT
ATOM      1  C   LIG d   1      -3.704  75.984 117.343  0.00  0.00     0.161 C 
ATOM      2  C   LIG d   1      -4.592  77.044 117.588  0.00  0.00     0.016 C 
ATOM      3  C   LIG d   1      -4.385  78.359 117.110  0.00  0.00     0.038 C 
ATOM      4  C   LIG d   1      -3.345  78.670 116.222  0.00  0.00     0.028 C 
ATOM      5  C   LIG d   1      -2.140  77.745 116.353  0.00  0.00    -0.047 C 
ATOM      6  C   LIG d   1      -2.622  76.278 116.283  0.00  0.00     0.091 C 
ENDROOT
BRANCH   1   7
ATOM      7  O   LIG d   1      -4.444  74.799 116.988  0.00  0.00    -0.368 OA
BRANCH   7   8
ATOM      8  C   LIG d   1      -5.648  75.009 116.210  0.00  0.00     0.119 C 
BRANCH   8   9
ATOM      9  C   LIG d   1      -6.745  74.102 116.802  0.00  0.00     0.028 C 
ATOM     10  C   LIG d   1      -6.373  72.611 116.735  0.00  0.00     0.006 C 
ENDBRANCH   8   9
BRANCH   8  11
ATOM     11  C   LIG d   1      -5.467  74.536 114.765  0.00  0.00     0.028 C 
ATOM     12  C   LIG d   1      -5.838  75.614 113.735  0.00  0.00     0.006 C 
ENDBRANCH   8  11
ENDBRANCH   7   8
ENDBRANCH   1   7
BRANCH   6  13
ATOM     13  N   LIG d   1      -1.516  75.307 116.488  0.00  0.00    -0.311 N 
ATOM     14  C   LIG d   1      -1.178  74.381 115.592  0.00  0.00     0.210 C 
ATOM     15  C   LIG d   1      -0.021  73.469 116.011  0.00  0.00     0.109 C 
ATOM     16  O   LIG d   1      -1.705  74.250 114.477  0.00  0.00    -0.276 OA
ATOM     17  H   LIG d   1      -1.014  75.363 117.352  0.00  0.00     0.149 HD
ENDBRANCH   6  13
BRANCH   5  18
ATOM     18  N   LIG d   1      -1.192  78.094 115.278  0.00  0.00     0.381 N 
ATOM     19  H   LIG d   1      -0.317  78.373 115.676  0.00  0.00    -0.090 HD
ATOM     20  H   LIG d   1      -1.562  78.869 114.757  0.00  0.00    -0.090 HD
ATOM     21  H   LIG d   1      -1.057  77.312 114.675  0.00  0.00    -0.090 HD
ENDBRANCH   5  18
BRANCH   3  22
ATOM     22  C   LIG d   1      -5.202  79.388 117.554  0.00  0.00     0.382 C 
ATOM     23  O   LIG d   1      -6.410  79.420 117.216  0.00  0.00    -0.241 OA
ATOM     24  O   LIG d   1      -4.736  80.308 118.252  0.00  0.00    -0.241 OA
ENDBRANCH   3  22
TORSDOF 7
ENDMDL
MODEL 5
REMARK VINA RESULT:      -5.0     10.795     12.182
REMARK  7 active torsions:
REMARK  status: ('A' for Active; 'I' for Inactive)
REMARK    1  A    between atoms: C_2  and  C_3 
REMARK    2  A    between atoms: C_3  and  O_6 
REMARK    3  A    between atoms: C_3  and  C_4 
REMARK    4  A    between atoms: C_7  and  O_6 
REMARK    5  A    between atoms: C_9  and  C_10 
REMARK    6  A    between atoms: N_15  and  C_14 
REMARK    7  A    between atoms: N_20  and  C_19 
REMARK       I    between atoms: C_22  and  N_20 
ROOT
ATOM      1  C   LIG d   1      12.156  79.313 114.986  0.00  0.00     0.161 C 
ATOM      2  C   LIG d   1      11.137  80.240 115.264  0.00  0.00     0.016 C 
ATOM      3  C   LIG d   1      10.610  81.129 114.299  0.00  0.00     0.038 C 
ATOM      4  C   LIG d   1      10.963  81.046 112.944  0.00  0.00     0.028 C 
ATOM      5  C   LIG d   1      12.354  80.465 112.714  0.00  0.00    -0.047 C 
ATOM      6  C   LIG d   1      12.475  79.132 113.487  0.00  0.00     0.091 C 
ENDROOT
BRANCH   1   7
ATOM      7  O   LIG d   1      11.836  78.042 115.587  0.00  0.00    -0.368 OA
BRANCH   7   8
ATOM      8  C   LIG d   1      10.830  77.251 114.909  0.00  0.00     0.119 C 
BRANCH   8   9
ATOM      9  C   LIG d   1       9.640  77.089 115.874  0.00  0.00     0.028 C 
ATOM     10  C   LIG d   1       8.287  77.332 115.184  0.00  0.00     0.006 C 
ENDBRANCH   8   9
BRANCH   8  11
ATOM     11  C   LIG d   1      11.328  75.829 114.638  0.00  0.00     0.028 C 
ATOM     12  C   LIG d   1      12.719  75.560 115.236  0.00  0.00     0.006 C 
ENDBRANCH   8  11
ENDBRANCH   7   8
ENDBRANCH   1   7
BRANCH   6  13
ATOM     13  N   LIG d   1      13.833  78.538 113.385  0.00  0.00    -0.311 N 
ATOM     14  C   LIG d   1      14.180  77.658 112.448  0.00  0.00     0.210 C 
ATOM     15  C   LIG d   1      15.625  77.156 112.535  0.00  0.00     0.109 C 
ATOM     16  O   LIG d   1      13.438  77.269 111.533  0.00  0.00    -0.276 OA
ATOM     17  H   LIG d   1      14.508  78.822 114.069  0.00  0.00     0.149 HD
ENDBRANCH   6  13
BRANCH   5  18
ATOM     18  N   LIG d   1      12.537  80.308 111.259  0.00  0.00     0.381 N 
ATOM     19  H   LIG d   1      12.977  81.124 110.883  0.00  0.00    -0.090 HD
ATOM     20  H   LIG d   1      11.636  80.208 110.827  0.00  0.00    -0.090 HD
ATOM     21  H   LIG d   1      13.095  79.505 111.070  0.00  0.00    -0.090 HD
ENDBRANCH   5  18
BRANCH   3  22
ATOM     22  C   LIG d   1       9.749  82.141 114.695  0.00  0.00     0.382 C 
ATOM     23  O   LIG d   1       9.080  82.018 115.749  0.00  0.00    -0.241 OA
ATOM     24  O   LIG d   1       9.599  83.155 113.988  0.00  0.00    -0.241 OA
ENDBRANCH   3  22
TORSDOF 7
ENDMDL
MODEL 6
REMARK VINA RESULT:      -4.9      3.866      6.001
REMARK  7 active torsions:
REMARK  status: ('A' for Active; 'I' for Inactive)
REMARK    1  A    between atoms: C_2  and  C_3 
REMARK    2  A    between atoms: C_3  and  O_6 
REMARK    3  A    between atoms: C_3  and  C_4 
REMARK    4  A    between atoms: C_7  and  O_6 
REMARK    5  A    between atoms: C_9  and  C_10 
REMARK    6  A    between atoms: N_15  and  C_14 
REMARK    7  A    between atoms: N_20  and  C_19 
REMARK       I    between atoms: C_22  and  N_20 
ROOT
ATOM      1  C   LIG d   1       2.677  87.597 115.059  0.00  0.00     0.161 C 
ATOM      2  C   LIG d   1       2.624  86.675 113.999  0.00  0.00     0.016 C 
ATOM      3  C   LIG d   1       3.362  86.823 112.802  0.00  0.00     0.038 C 
ATOM      4  C   LIG d   1       4.324  87.831 112.644  0.00  0.00     0.028 C 
ATOM      5  C   LIG d   1       4.045  89.073 113.484  0.00  0.00    -0.047 C 
ATOM      6  C   LIG d   1       3.805  88.643 114.949  0.00  0.00     0.091 C 
ENDROOT
BRANCH   1   7
ATOM      7  O   LIG d   1       2.765  86.894 116.314  0.00  0.00    -0.368 OA
BRANCH   7   8
ATOM      8  C   LIG d   1       1.693  87.137 117.257  0.00  0.00     0.119 C 
BRANCH   8   9
ATOM      9  C   LIG d   1       1.181  85.766 117.739  0.00  0.00     0.028 C 
ATOM     10  C   LIG d   1       1.860  84.595 117.008  0.00  0.00     0.006 C 
ENDBRANCH   8   9
BRANCH   8  11
ATOM     11  C   LIG d   1       0.493  87.803 116.578  0.00  0.00     0.028 C 
ATOM     12  C   LIG d   1       0.086  89.124 117.249  0.00  0.00     0.006 C 
ENDBRANCH   8  11
ENDBRANCH   7   8
ENDBRANCH   1   7
BRANCH   6  13
ATOM     13  N   LIG d   1       3.442  89.789 115.823  0.00  0.00    -0.311 N 
ATOM     14  C   LIG d   1       4.332  90.481 116.533  0.00  0.00     0.210 C 
ATOM     15  C   LIG d   1       3.743  91.611 117.383  0.00  0.00     0.109 C 
ATOM     16  O   LIG d   1       5.557  90.287 116.513  0.00  0.00    -0.276 OA
ATOM     17  H   LIG d   1       2.473  90.035 115.874  0.00  0.00     0.149 HD
ENDBRANCH   6  13
BRANCH   5  18
ATOM     18  N   LIG d   1       5.195  89.984 113.329  0.00  0.00     0.381 N 
ATOM     19  H   LIG d   1       5.998  89.596 113.782  0.00  0.00    -0.090 HD
ATOM     20  H   LIG d   1       4.977  90.860 113.769  0.00  0.00    -0.090 HD
ATOM     21  H   LIG d   1       5.387  90.128 112.362  0.00  0.00    -0.090 HD
ENDBRANCH   5  18
BRANCH   3  22
ATOM     22  C   LIG d   1       3.110  85.979 111.732  0.00  0.00     0.382 C 
ATOM     23  O   LIG d   1       3.594  84.821 111.718  0.00  0.00    -0.241 OA
ATOM     24  O   LIG d   1       2.441  86.375 110.758  0.00  0.00    -0.241 OA
ENDBRANCH   3  22
TORSDOF 7
ENDMDL
MODEL 7
REMARK VINA RESULT:      -4.8      2.040      4.579
REMARK  7 active torsions:
REMARK  status: ('A' for Active; 'I' for Inactive)
REMARK    1  A    between atoms: C_2  and  C_3 
REMARK    2  A    between atoms: C_3  and  O_6 
REMARK    3  A    between atoms: C_3  and  C_4 
REMARK    4  A    between atoms: C_7  and  O_6 
REMARK    5  A    between atoms: C_9  and  C_10 
REMARK    6  A    between atoms: N_15  and  C_14 
REMARK    7  A    between atoms: N_20  and  C_19 
REMARK       I    between atoms: C_22  and  N_20 
ROOT
ATOM      1  C   LIG d   1       1.687  86.195 113.817  0.00  0.00     0.161 C 
ATOM      2  C   LIG d   1       0.516  85.566 113.363  0.00  0.00     0.016 C 
ATOM      3  C   LIG d   1       0.427  84.889 112.125  0.00  0.00     0.038 C 
ATOM      4  C   LIG d   1       1.553  84.664 111.320  0.00  0.00     0.028 C 
ATOM      5  C   LIG d   1       2.644  85.714 111.497  0.00  0.00    -0.047 C 
ATOM      6  C   LIG d   1       2.956  85.864 113.004  0.00  0.00     0.091 C 
ENDROOT
BRANCH   1   7
ATOM      7  O   LIG d   1       1.894  85.894 115.212  0.00  0.00    -0.368 OA
BRANCH   7   8
ATOM      8  C   LIG d   1       2.833  84.830 115.502  0.00  0.00     0.119 C 
BRANCH   8   9
ATOM      9  C   LIG d   1       2.036  83.663 116.114  0.00  0.00     0.028 C 
ATOM     10  C   LIG d   1       1.431  84.018 117.482  0.00  0.00     0.006 C 
ENDBRANCH   8   9
BRANCH   8  11
ATOM     11  C   LIG d   1       3.833  85.249 116.584  0.00  0.00     0.028 C 
ATOM     12  C   LIG d   1       3.874  86.771 116.800  0.00  0.00     0.006 C 
ENDBRANCH   8  11
ENDBRANCH   7   8
ENDBRANCH   1   7
BRANCH   6  13
ATOM     13  N   LIG d   1       3.954  86.933 113.272  0.00  0.00    -0.311 N 
ATOM     14  C   LIG d   1       3.719  88.226 113.055  0.00  0.00     0.210 C 
ATOM     15  C   LIG d   1       4.890  89.159 113.381  0.00  0.00     0.109 C 
ATOM     16  O   LIG d   1       2.642  88.692 112.655  0.00  0.00    -0.276 OA
ATOM     17  H   LIG d   1       4.844  86.646 113.628  0.00  0.00     0.149 HD
ENDBRANCH   6  13
BRANCH   5  18
ATOM     18  N   LIG d   1       3.811  85.283 110.705  0.00  0.00     0.381 N 
ATOM     19  H   LIG d   1       4.406  86.066 110.523  0.00  0.00    -0.090 HD
ATOM     20  H   LIG d   1       3.491  84.919 109.825  0.00  0.00    -0.090 HD
ATOM     21  H   LIG d   1       4.318  84.580 111.199  0.00  0.00    -0.090 HD
ENDBRANCH   5  18
BRANCH   3  22
ATOM     22  C   LIG d   1      -0.809  84.463 111.662  0.00  0.00     0.382 C 
ATOM     23  O   LIG d   1      -1.449  85.167 110.844  0.00  0.00    -0.241 OA
ATOM     24  O   LIG d   1      -1.313  83.406 112.087  0.00  0.00    -0.241 OA
ENDBRANCH   3  22
TORSDOF 7
ENDMDL
MODEL 8
REMARK VINA RESULT:      -4.5     24.674     28.045
REMARK  7 active torsions:
REMARK  status: ('A' for Active; 'I' for Inactive)
REMARK    1  A    between atoms: C_2  and  C_3 
REMARK    2  A    between atoms: C_3  and  O_6 
REMARK    3  A    between atoms: C_3  and  C_4 
REMARK    4  A    between atoms: C_7  and  O_6 
REMARK    5  A    between atoms: C_9  and  C_10 
REMARK    6  A    between atoms: N_15  and  C_14 
REMARK    7  A    between atoms: N_20  and  C_19 
REMARK       I    between atoms: C_22  and  N_20 
ROOT
ATOM      1  C   LIG d   1     -16.605  63.636 116.937  0.00  0.00     0.161 C 
ATOM      2  C   LIG d   1     -16.064  64.889 117.272  0.00  0.00     0.016 C 
ATOM      3  C   LIG d   1     -15.359  65.702 116.355  0.00  0.00     0.038 C 
ATOM      4  C   LIG d   1     -15.278  65.383 114.991  0.00  0.00     0.028 C 
ATOM      5  C   LIG d   1     -15.373  63.887 114.712  0.00  0.00    -0.047 C 
ATOM      6  C   LIG d   1     -16.623  63.322 115.427  0.00  0.00     0.091 C 
ENDROOT
BRANCH   1   7
ATOM      7  O   LIG d   1     -17.931  63.513 117.490  0.00  0.00    -0.368 OA
BRANCH   7   8
ATOM      8  C   LIG d   1     -19.013  64.015 116.668  0.00  0.00     0.119 C 
BRANCH   8   9
ATOM      9  C   LIG d   1     -19.655  65.198 117.419  0.00  0.00     0.028 C 
ATOM     10  C   LIG d   1     -19.316  66.554 116.776  0.00  0.00     0.006 C 
ENDBRANCH   8   9
BRANCH   8  11
ATOM     11  C   LIG d   1     -20.128  62.976 116.520  0.00  0.00     0.028 C 
ATOM     12  C   LIG d   1     -19.834  61.674 117.282  0.00  0.00     0.006 C 
ENDBRANCH   8  11
ENDBRANCH   7   8
ENDBRANCH   1   7
BRANCH   6  13
ATOM     13  N   LIG d   1     -16.745  61.849 115.275  0.00  0.00    -0.311 N 
ATOM     14  C   LIG d   1     -17.501  61.268 114.346  0.00  0.00     0.210 C 
ATOM     15  C   LIG d   1     -17.501  59.736 114.377  0.00  0.00     0.109 C 
ATOM     16  O   LIG d   1     -18.147  61.875 113.478  0.00  0.00    -0.276 OA
ATOM     17  H   LIG d   1     -16.229  61.280 115.918  0.00  0.00     0.149 HD
ENDBRANCH   6  13
BRANCH   5  18
ATOM     18  N   LIG d   1     -15.414  63.708 113.249  0.00  0.00     0.381 N 
ATOM     19  H   LIG d   1     -14.862  62.915 112.989  0.00  0.00    -0.090 HD
ATOM     20  H   LIG d   1     -15.021  64.522 112.811  0.00  0.00    -0.090 HD
ATOM     21  H   LIG d   1     -16.354  63.581 112.947  0.00  0.00    -0.090 HD
ENDBRANCH   5  18
BRANCH   3  22
ATOM     22  C   LIG d   1     -14.692  66.830 116.808  0.00  0.00     0.382 C 
ATOM     23  O   LIG d   1     -13.440  66.825 116.894  0.00  0.00    -0.241 OA
ATOM     24  O   LIG d   1     -15.328  67.836 117.175  0.00  0.00    -0.241 OA
ENDBRANCH   3  22
TORSDOF 7
ENDMDL
MODEL 9
REMARK VINA RESULT:      -4.2     25.503     29.421
REMARK  7 active torsions:
REMARK  status: ('A' for Active; 'I' for Inactive)
REMARK    1  A    between atoms: C_2  and  C_3 
REMARK    2  A    between atoms: C_3  and  O_6 
REMARK    3  A    between atoms: C_3  and  C_4 
REMARK    4  A    between atoms: C_7  and  O_6 
REMARK    5  A    between atoms: C_9  and  C_10 
REMARK    6  A    between atoms: N_15  and  C_14 
REMARK    7  A    between atoms: N_20  and  C_19 
REMARK       I    between atoms: C_22  and  N_20 
ROOT
ATOM      1  C   LIG d   1     -16.415  63.084 114.671  0.00  0.00     0.161 C 
ATOM      2  C   LIG d   1     -16.877  61.822 114.262  0.00  0.00     0.016 C 
ATOM      3  C   LIG d   1     -16.921  60.696 115.116  0.00  0.00     0.038 C 
ATOM      4  C   LIG d   1     -16.646  60.794 116.488  0.00  0.00     0.028 C 
ATOM      5  C   LIG d   1     -15.692  61.932 116.834  0.00  0.00    -0.047 C 
ATOM      6  C   LIG d   1     -16.215  63.238 116.193  0.00  0.00     0.091 C 
ENDROOT
BRANCH   1   7
ATOM      7  O   LIG d   1     -17.296  64.111 114.175  0.00  0.00    -0.368 OA
BRANCH   7   8
ATOM      8  C   LIG d   1     -18.709  63.792 114.173  0.00  0.00     0.119 C 
BRANCH   8   9
ATOM      9  C   LIG d   1     -19.284  64.249 112.818  0.00  0.00     0.028 C 
ATOM     10  C   LIG d   1     -19.477  63.079 111.839  0.00  0.00     0.006 C 
ENDBRANCH   8   9
BRANCH   8  11
ATOM     11  C   LIG d   1     -19.465  64.604 115.229  0.00  0.00     0.028 C 
ATOM     12  C   LIG d   1     -20.542  65.517 114.620  0.00  0.00     0.006 C 
ENDBRANCH   8  11
ENDBRANCH   7   8
ENDBRANCH   1   7
BRANCH   6  13
ATOM     13  N   LIG d   1     -15.295  64.385 116.413  0.00  0.00    -0.311 N 
ATOM     14  C   LIG d   1     -15.428  65.249 117.418  0.00  0.00     0.210 C 
ATOM     15  C   LIG d   1     -14.384  66.370 117.448  0.00  0.00     0.109 C 
ATOM     16  O   LIG d   1     -16.292  65.175 118.304  0.00  0.00    -0.276 OA
ATOM     17  H   LIG d   1     -14.547  64.501 115.758  0.00  0.00     0.149 HD
ENDBRANCH   6  13
BRANCH   5  18
ATOM     18  N   LIG d   1     -15.601  62.005 118.305  0.00  0.00     0.381 N 
ATOM     19  H   LIG d   1     -14.643  61.953 118.588  0.00  0.00    -0.090 HD
ATOM     20  H   LIG d   1     -16.090  61.222 118.700  0.00  0.00    -0.090 HD
ATOM     21  H   LIG d   1     -16.005  62.856 118.629  0.00  0.00    -0.090 HD
ENDBRANCH   5  18
BRANCH   3  22
ATOM     22  C   LIG d   1     -17.206  59.445 114.589  0.00  0.00     0.382 C 
ATOM     23  O   LIG d   1     -18.360  59.191 114.166  0.00  0.00    -0.241 OA
ATOM     24  O   LIG d   1     -16.337  58.554 114.573  0.00  0.00    -0.241 OA
ENDBRANCH   3  22
TORSDOF 7
ENDMDL
