MODEL 1
REMARK VINA RESULT:      -5.6      0.000      0.000
REMARK  7 active torsions:
REMARK  status: ('A' for Active; 'I' for Inactive)
REMARK    1  A    between atoms: C_2  and  C_3 
REMARK    2  A    between atoms: C_3  and  O_6 
REMARK    3  A    between atoms: C_3  and  C_4 
REMARK    4  A    between atoms: C_7  and  O_6 
REMARK    5  A    between atoms: C_9  and  C_10 
REMARK    6  A    between atoms: N_15  and  C_14 
REMARK    7  A    between atoms: N_20  and  C_19 
REMARK       I    between atoms: C_22  and  N_20 
ROOT
ATOM      1  C   LIG d   1       3.722  85.390 112.227  0.00  0.00     0.161 C 
ATOM      2  C   LIG d   1       4.394  86.514 112.735  0.00  0.00     0.016 C 
ATOM      3  C   LIG d   1       3.856  87.821 112.706  0.00  0.00     0.038 C 
ATOM      4  C   LIG d   1       2.537  88.071 112.299  0.00  0.00     0.028 C 
ATOM      5  C   LIG d   1       2.003  87.042 111.308  0.00  0.00    -0.047 C 
ATOM      6  C   LIG d   1       2.237  85.626 111.881  0.00  0.00     0.091 C 
ENDROOT
BRANCH   1   7
ATOM      7  O   LIG d   1       3.854  84.286 113.144  0.00  0.00    -0.368 OA
BRANCH   7   8
ATOM      8  C   LIG d   1       4.872  83.307 112.821  0.00  0.00     0.119 C 
BRANCH   8   9
ATOM      9  C   LIG d   1       4.898  83.155 111.288  0.00  0.00     0.028 C 
ATOM     10  C   LIG d   1       4.421  81.767 110.828  0.00  0.00     0.006 C 
ENDBRANCH   8   9
BRANCH   8  11
ATOM     11  C   LIG d   1       4.503  81.921 113.360  0.00  0.00     0.028 C 
ATOM     12  C   LIG d   1       5.253  81.565 114.653  0.00  0.00     0.006 C 
ENDBRANCH   8  11
ENDBRANCH   7   8
ENDBRANCH   1   7
BRANCH   6  13
ATOM     13  N   LIG d   1       1.820  84.557 110.937  0.00  0.00    -0.311 N 
ATOM     14  C   LIG d   1       1.106  83.493 111.302  0.00  0.00     0.210 C 
ATOM     15  C   LIG d   1       0.801  82.501 110.176  0.00  0.00     0.109 C 
ATOM     16  O   LIG d   1       0.670  83.293 112.446  0.00  0.00    -0.276 OA
ATOM     17  H   LIG d   1       2.104  84.655 109.982  0.00  0.00     0.149 HD
ENDBRANCH   6  13
BRANCH   5  18
ATOM     18  N   LIG d   1       0.578  87.344 111.077  0.00  0.00     0.381 N 
ATOM     19  H   LIG d   1       0.172  86.637 110.498  0.00  0.00    -0.090 HD
ATOM     20  H   LIG d   1       0.506  88.224 110.596  0.00  0.00    -0.090 HD
ATOM     21  H   LIG d   1       0.094  87.392 111.946  0.00  0.00    -0.090 HD
ENDBRANCH   5  18
BRANCH   3  22
ATOM     22  C   LIG d   1       4.656  88.901 113.048  0.00  0.00     0.382 C 
ATOM     23  O   LIG d   1       5.871  88.906 112.736  0.00  0.00    -0.241 OA
ATOM     24  O   LIG d   1       4.188  89.850 113.705  0.00  0.00    -0.241 OA
ENDBRANCH   3  22
TORSDOF 7
ENDMDL
MODEL 2
REMARK VINA RESULT:      -5.5      2.092      3.078
REMARK  7 active torsions:
REMARK  status: ('A' for Active; 'I' for Inactive)
REMARK    1  A    between atoms: C_2  and  C_3 
REMARK    2  A    between atoms: C_3  and  O_6 
REMARK    3  A    between atoms: C_3  and  C_4 
REMARK    4  A    between atoms: C_7  and  O_6 
REMARK    5  A    between atoms: C_9  and  C_10 
REMARK    6  A    between atoms: N_15  and  C_14 
REMARK    7  A    between atoms: N_20  and  C_19 
REMARK       I    between atoms: C_22  and  N_20 
ROOT
ATOM      1  C   LIG d   1       3.541  85.700 112.217  0.00  0.00     0.161 C 
ATOM      2  C   LIG d   1       4.215  86.930 112.128  0.00  0.00     0.016 C 
ATOM      3  C   LIG d   1       4.599  87.690 113.256  0.00  0.00     0.038 C 
ATOM      4  C   LIG d   1       4.468  87.196 114.563  0.00  0.00     0.028 C 
ATOM      5  C   LIG d   1       3.337  86.185 114.718  0.00  0.00    -0.047 C 
ATOM      6  C   LIG d   1       3.489  85.093 113.635  0.00  0.00     0.091 C 
ENDROOT
BRANCH   1   7
ATOM      7  O   LIG d   1       4.117  84.759 111.290  0.00  0.00    -0.368 OA
BRANCH   7   8
ATOM      8  C   LIG d   1       3.306  84.424 110.136  0.00  0.00     0.119 C 
BRANCH   8   9
ATOM      9  C   LIG d   1       1.920  85.064 110.343  0.00  0.00     0.028 C 
ATOM     10  C   LIG d   1       0.772  84.082 110.055  0.00  0.00     0.006 C 
ENDBRANCH   8   9
BRANCH   8  11
ATOM     11  C   LIG d   1       3.049  82.916 110.056  0.00  0.00     0.028 C 
ATOM     12  C   LIG d   1       4.289  82.080 110.408  0.00  0.00     0.006 C 
ENDBRANCH   8  11
ENDBRANCH   7   8
ENDBRANCH   1   7
BRANCH   6  13
ATOM     13  N   LIG d   1       2.375  84.109 113.662  0.00  0.00    -0.311 N 
ATOM     14  C   LIG d   1       2.561  82.793 113.747  0.00  0.00     0.210 C 
ATOM     15  C   LIG d   1       1.278  81.957 113.740  0.00  0.00     0.109 C 
ATOM     16  O   LIG d   1       3.666  82.241 113.860  0.00  0.00    -0.276 OA
ATOM     17  H   LIG d   1       1.444  84.473 113.606  0.00  0.00     0.149 HD
ENDBRANCH   6  13
BRANCH   5  18
ATOM     18  N   LIG d   1       3.402  85.651 116.091  0.00  0.00     0.381 N 
ATOM     19  H   LIG d   1       2.565  85.887 116.586  0.00  0.00    -0.090 HD
ATOM     20  H   LIG d   1       4.180  86.072 116.567  0.00  0.00    -0.090 HD
ATOM     21  H   LIG d   1       3.515  84.661 116.067  0.00  0.00    -0.090 HD
ENDBRANCH   5  18
BRANCH   3  22
ATOM     22  C   LIG d   1       5.084  88.978 113.084  0.00  0.00     0.382 C 
ATOM     23  O   LIG d   1       6.312  89.167 112.912  0.00  0.00    -0.241 OA
ATOM     24  O   LIG d   1       4.315  89.956 113.144  0.00  0.00    -0.241 OA
ENDBRANCH   3  22
TORSDOF 7
ENDMDL
MODEL 3
REMARK VINA RESULT:      -5.4      1.720      2.645
REMARK  7 active torsions:
REMARK  status: ('A' for Active; 'I' for Inactive)
REMARK    1  A    between atoms: C_2  and  C_3 
REMARK    2  A    between atoms: C_3  and  O_6 
REMARK    3  A    between atoms: C_3  and  C_4 
REMARK    4  A    between atoms: C_7  and  O_6 
REMARK    5  A    between atoms: C_9  and  C_10 
REMARK    6  A    between atoms: N_15  and  C_14 
REMARK    7  A    between atoms: N_20  and  C_19 
REMARK       I    between atoms: C_22  and  N_20 
ROOT
ATOM      1  C   LIG d   1       2.470  83.965 111.734  0.00  0.00     0.161 C 
ATOM      2  C   LIG d   1       2.826  85.281 112.073  0.00  0.00     0.016 C 
ATOM      3  C   LIG d   1       2.001  86.401 111.818  0.00  0.00     0.038 C 
ATOM      4  C   LIG d   1       0.690  86.262 111.339  0.00  0.00     0.028 C 
ATOM      5  C   LIG d   1       0.478  84.999 110.512  0.00  0.00    -0.047 C 
ATOM      6  C   LIG d   1       0.997  83.782 111.312  0.00  0.00     0.091 C 
ENDROOT
BRANCH   1   7
ATOM      7  O   LIG d   1       2.795  83.076 112.821  0.00  0.00    -0.368 OA
BRANCH   7   8
ATOM      8  C   LIG d   1       3.698  81.988 112.506  0.00  0.00     0.119 C 
BRANCH   8   9
ATOM      9  C   LIG d   1       4.756  81.926 113.624  0.00  0.00     0.028 C 
ATOM     10  C   LIG d   1       5.184  83.323 114.106  0.00  0.00     0.006 C 
ENDBRANCH   8   9
BRANCH   8  11
ATOM     11  C   LIG d   1       4.483  82.269 111.221  0.00  0.00     0.028 C 
ATOM     12  C   LIG d   1       4.399  81.117 110.207  0.00  0.00     0.006 C 
ENDBRANCH   8  11
ENDBRANCH   7   8
ENDBRANCH   1   7
BRANCH   6  13
ATOM     13  N   LIG d   1       0.905  82.515 110.541  0.00  0.00    -0.311 N 
ATOM     14  C   LIG d   1       0.307  81.418 111.003  0.00  0.00     0.210 C 
ATOM     15  C   LIG d   1       0.342  80.215 110.055  0.00  0.00     0.109 C 
ATOM     16  O   LIG d   1      -0.275  81.336 112.095  0.00  0.00    -0.276 OA
ATOM     17  H   LIG d   1       1.324  82.503 109.632  0.00  0.00     0.149 HD
ENDBRANCH   6  13
BRANCH   5  18
ATOM     18  N   LIG d   1      -0.960  84.910 110.194  0.00  0.00     0.381 N 
ATOM     19  H   LIG d   1      -1.083  84.475 109.302  0.00  0.00    -0.090 HD
ATOM     20  H   LIG d   1      -1.340  85.839 110.147  0.00  0.00    -0.090 HD
ATOM     21  H   LIG d   1      -1.433  84.385 110.896  0.00  0.00    -0.090 HD
ENDBRANCH   5  18
BRANCH   3  22
ATOM     22  C   LIG d   1       2.502  87.680 112.005  0.00  0.00     0.382 C 
ATOM     23  O   LIG d   1       3.698  87.842 112.348  0.00  0.00    -0.241 OA
ATOM     24  O   LIG d   1       1.761  88.674 111.878  0.00  0.00    -0.241 OA
ENDBRANCH   3  22
TORSDOF 7
ENDMDL
MODEL 4
REMARK VINA RESULT:      -5.0      1.641      4.987
REMARK  7 active torsions:
REMARK  status: ('A' for Active; 'I' for Inactive)
REMARK    1  A    between atoms: C_2  and  C_3 
REMARK    2  A    between atoms: C_3  and  O_6 
REMARK    3  A    between atoms: C_3  and  C_4 
REMARK    4  A    between atoms: C_7  and  O_6 
REMARK    5  A    between atoms: C_9  and  C_10 
REMARK    6  A    between atoms: N_15  and  C_14 
REMARK    7  A    between atoms: N_20  and  C_19 
REMARK       I    between atoms: C_22  and  N_20 
ROOT
ATOM      1  C   LIG d   1       2.357  84.569 113.356  0.00  0.00     0.161 C 
ATOM      2  C   LIG d   1       1.351  83.627 113.083  0.00  0.00     0.016 C 
ATOM      3  C   LIG d   1       0.293  83.860 112.174  0.00  0.00     0.038 C 
ATOM      4  C   LIG d   1       0.254  85.000 111.358  0.00  0.00     0.028 C 
ATOM      5  C   LIG d   1       0.971  86.202 111.962  0.00  0.00    -0.047 C 
ATOM      6  C   LIG d   1       2.393  85.774 112.393  0.00  0.00     0.091 C 
ENDROOT
BRANCH   1   7
ATOM      7  O   LIG d   1       3.641  83.916 113.389  0.00  0.00    -0.368 OA
BRANCH   7   8
ATOM      8  C   LIG d   1       3.629  82.477 113.227  0.00  0.00     0.119 C 
BRANCH   8   9
ATOM      9  C   LIG d   1       4.803  81.908 114.049  0.00  0.00     0.028 C 
ATOM     10  C   LIG d   1       5.598  83.007 114.774  0.00  0.00     0.006 C 
ENDBRANCH   8   9
BRANCH   8  11
ATOM     11  C   LIG d   1       3.917  82.076 111.777  0.00  0.00     0.028 C 
ATOM     12  C   LIG d   1       4.802  83.096 111.043  0.00  0.00     0.006 C 
ENDBRANCH   8  11
ENDBRANCH   7   8
ENDBRANCH   1   7
BRANCH   6  13
ATOM     13  N   LIG d   1       3.134  86.870 113.071  0.00  0.00    -0.311 N 
ATOM     14  C   LIG d   1       4.244  87.417 112.580  0.00  0.00     0.210 C 
ATOM     15  C   LIG d   1       4.860  88.519 113.448  0.00  0.00     0.109 C 
ATOM     16  O   LIG d   1       4.759  87.117 111.492  0.00  0.00    -0.276 OA
ATOM     17  H   LIG d   1       2.768  87.196 113.944  0.00  0.00     0.149 HD
ENDBRANCH   6  13
BRANCH   5  18
ATOM     18  N   LIG d   1       0.972  87.276 110.951  0.00  0.00     0.381 N 
ATOM     19  H   LIG d   1       1.521  86.997 110.162  0.00  0.00    -0.090 HD
ATOM     20  H   LIG d   1       1.388  88.098 111.350  0.00  0.00    -0.090 HD
ATOM     21  H   LIG d   1       0.039  87.473 110.662  0.00  0.00    -0.090 HD
ENDBRANCH   5  18
BRANCH   3  22
ATOM     22  C   LIG d   1      -0.762  82.963 112.104  0.00  0.00     0.382 C 
ATOM     23  O   LIG d   1      -1.146  82.364 113.138  0.00  0.00    -0.241 OA
ATOM     24  O   LIG d   1      -1.307  82.712 111.012  0.00  0.00    -0.241 OA
ENDBRANCH   3  22
TORSDOF 7
ENDMDL
MODEL 5
REMARK VINA RESULT:      -4.9      1.321      1.613
REMARK  7 active torsions:
REMARK  status: ('A' for Active; 'I' for Inactive)
REMARK    1  A    between atoms: C_2  and  C_3 
REMARK    2  A    between atoms: C_3  and  O_6 
REMARK    3  A    between atoms: C_3  and  C_4 
REMARK    4  A    between atoms: C_7  and  O_6 
REMARK    5  A    between atoms: C_9  and  C_10 
REMARK    6  A    between atoms: N_15  and  C_14 
REMARK    7  A    between atoms: N_20  and  C_19 
REMARK       I    between atoms: C_22  and  N_20 
ROOT
ATOM      1  C   LIG d   1       3.686  85.281 112.712  0.00  0.00     0.161 C 
ATOM      2  C   LIG d   1       4.303  86.478 113.112  0.00  0.00     0.016 C 
ATOM      3  C   LIG d   1       3.795  87.759 112.796  0.00  0.00     0.038 C 
ATOM      4  C   LIG d   1       2.545  87.930 112.183  0.00  0.00     0.028 C 
ATOM      5  C   LIG d   1       2.130  86.747 111.314  0.00  0.00    -0.047 C 
ATOM      6  C   LIG d   1       2.263  85.447 112.139  0.00  0.00     0.091 C 
ENDROOT
BRANCH   1   7
ATOM      7  O   LIG d   1       3.679  84.346 113.809  0.00  0.00    -0.368 OA
BRANCH   7   8
ATOM      8  C   LIG d   1       4.922  84.211 114.541  0.00  0.00     0.119 C 
BRANCH   8   9
ATOM      9  C   LIG d   1       5.526  82.841 114.180  0.00  0.00     0.028 C 
ATOM     10  C   LIG d   1       4.522  81.930 113.452  0.00  0.00     0.006 C 
ENDBRANCH   8   9
BRANCH   8  11
ATOM     11  C   LIG d   1       4.676  84.161 116.052  0.00  0.00     0.028 C 
ATOM     12  C   LIG d   1       3.256  84.602 116.440  0.00  0.00     0.006 C 
ENDBRANCH   8  11
ENDBRANCH   7   8
ENDBRANCH   1   7
BRANCH   6  13
ATOM     13  N   LIG d   1       1.957  84.233 111.338  0.00  0.00    -0.311 N 
ATOM     14  C   LIG d   1       0.751  83.670 111.292  0.00  0.00     0.210 C 
ATOM     15  C   LIG d   1       0.656  82.414 110.421  0.00  0.00     0.109 C 
ATOM     16  O   LIG d   1      -0.257  84.111 111.865  0.00  0.00    -0.276 OA
ATOM     17  H   LIG d   1       2.710  83.828 110.817  0.00  0.00     0.149 HD
ENDBRANCH   6  13
BRANCH   5  18
ATOM     18  N   LIG d   1       0.752  86.998 110.849  0.00  0.00     0.381 N 
ATOM     19  H   LIG d   1       0.773  87.515 109.992  0.00  0.00    -0.090 HD
ATOM     20  H   LIG d   1       0.272  87.549 111.538  0.00  0.00    -0.090 HD
ATOM     21  H   LIG d   1       0.276  86.134 110.713  0.00  0.00    -0.090 HD
ENDBRANCH   5  18
BRANCH   3  22
ATOM     22  C   LIG d   1       4.560  88.886 113.058  0.00  0.00     0.382 C 
ATOM     23  O   LIG d   1       5.755  88.934 112.680  0.00  0.00    -0.241 OA
ATOM     24  O   LIG d   1       4.083  89.836 113.706  0.00  0.00    -0.241 OA
ENDBRANCH   3  22
TORSDOF 7
ENDMDL
MODEL 6
REMARK VINA RESULT:      -4.7      2.997      6.056
REMARK  7 active torsions:
REMARK  status: ('A' for Active; 'I' for Inactive)
REMARK    1  A    between atoms: C_2  and  C_3 
REMARK    2  A    between atoms: C_3  and  O_6 
REMARK    3  A    between atoms: C_3  and  C_4 
REMARK    4  A    between atoms: C_7  and  O_6 
REMARK    5  A    between atoms: C_9  and  C_10 
REMARK    6  A    between atoms: N_15  and  C_14 
REMARK    7  A    between atoms: N_20  and  C_19 
REMARK       I    between atoms: C_22  and  N_20 
ROOT
ATOM      1  C   LIG d   1       1.102  85.441 113.105  0.00  0.00     0.161 C 
ATOM      2  C   LIG d   1       0.046  84.519 113.007  0.00  0.00     0.016 C 
ATOM      3  C   LIG d   1       0.158  83.276 112.342  0.00  0.00     0.038 C 
ATOM      4  C   LIG d   1       1.387  82.802 111.858  0.00  0.00     0.028 C 
ATOM      5  C   LIG d   1       2.362  83.914 111.489  0.00  0.00    -0.047 C 
ATOM      6  C   LIG d   1       2.480  84.893 112.680  0.00  0.00     0.091 C 
ENDROOT
BRANCH   1   7
ATOM      7  O   LIG d   1       1.164  85.970 114.444  0.00  0.00    -0.368 OA
BRANCH   7   8
ATOM      8  C   LIG d   1       0.599  85.138 115.486  0.00  0.00     0.119 C 
BRANCH   8   9
ATOM      9  C   LIG d   1      -0.051  86.073 116.525  0.00  0.00     0.028 C 
ATOM     10  C   LIG d   1       0.772  86.173 117.820  0.00  0.00     0.006 C 
ENDBRANCH   8   9
BRANCH   8  11
ATOM     11  C   LIG d   1       1.690  84.381 116.249  0.00  0.00     0.028 C 
ATOM     12  C   LIG d   1       1.744  82.888 115.887  0.00  0.00     0.006 C 
ENDBRANCH   8  11
ENDBRANCH   7   8
ENDBRANCH   1   7
BRANCH   6  13
ATOM     13  N   LIG d   1       3.351  86.058 112.372  0.00  0.00    -0.311 N 
ATOM     14  C   LIG d   1       4.333  86.470 113.171  0.00  0.00     0.210 C 
ATOM     15  C   LIG d   1       5.096  87.703 112.675  0.00  0.00     0.109 C 
ATOM     16  O   LIG d   1       4.666  85.913 114.228  0.00  0.00    -0.276 OA
ATOM     17  H   LIG d   1       3.171  86.549 111.518  0.00  0.00     0.149 HD
ENDBRANCH   6  13
BRANCH   5  18
ATOM     18  N   LIG d   1       3.646  83.282 111.132  0.00  0.00     0.381 N 
ATOM     19  H   LIG d   1       3.555  82.802 110.259  0.00  0.00    -0.090 HD
ATOM     20  H   LIG d   1       3.884  82.608 111.838  0.00  0.00    -0.090 HD
ATOM     21  H   LIG d   1       4.360  83.973 111.067  0.00  0.00    -0.090 HD
ENDBRANCH   5  18
BRANCH   3  22
ATOM     22  C   LIG d   1      -0.976  82.510 112.122  0.00  0.00     0.382 C 
ATOM     23  O   LIG d   1      -1.954  82.598 112.903  0.00  0.00    -0.241 OA
ATOM     24  O   LIG d   1      -1.017  81.700 111.177  0.00  0.00    -0.241 OA
ENDBRANCH   3  22
TORSDOF 7
ENDMDL
MODEL 7
REMARK VINA RESULT:      -4.7      2.446      5.041
REMARK  7 active torsions:
REMARK  status: ('A' for Active; 'I' for Inactive)
REMARK    1  A    between atoms: C_2  and  C_3 
REMARK    2  A    between atoms: C_3  and  O_6 
REMARK    3  A    between atoms: C_3  and  C_4 
REMARK    4  A    between atoms: C_7  and  O_6 
REMARK    5  A    between atoms: C_9  and  C_10 
REMARK    6  A    between atoms: N_15  and  C_14 
REMARK    7  A    between atoms: N_20  and  C_19 
REMARK       I    between atoms: C_22  and  N_20 
ROOT
ATOM      1  C   LIG d   1       1.912  85.743 113.216  0.00  0.00     0.161 C 
ATOM      2  C   LIG d   1       0.690  85.286 112.693  0.00  0.00     0.016 C 
ATOM      3  C   LIG d   1       0.572  84.642 111.440  0.00  0.00     0.038 C 
ATOM      4  C   LIG d   1       1.697  84.272 110.688  0.00  0.00     0.028 C 
ATOM      5  C   LIG d   1       2.911  85.161 110.938  0.00  0.00    -0.047 C 
ATOM      6  C   LIG d   1       3.163  85.250 112.460  0.00  0.00     0.091 C 
ENDROOT
BRANCH   1   7
ATOM      7  O   LIG d   1       2.003  85.401 114.613  0.00  0.00    -0.368 OA
BRANCH   7   8
ATOM      8  C   LIG d   1       2.662  84.148 114.921  0.00  0.00     0.119 C 
BRANCH   8   9
ATOM      9  C   LIG d   1       1.592  83.185 115.470  0.00  0.00     0.028 C 
ATOM     10  C   LIG d   1       1.154  82.139 114.430  0.00  0.00     0.006 C 
ENDBRANCH   8   9
BRANCH   8  11
ATOM     11  C   LIG d   1       3.677  84.316 116.056  0.00  0.00     0.028 C 
ATOM     12  C   LIG d   1       5.112  83.972 115.627  0.00  0.00     0.006 C 
ENDBRANCH   8  11
ENDBRANCH   7   8
ENDBRANCH   1   7
BRANCH   6  13
ATOM     13  N   LIG d   1       4.283  86.167 112.797  0.00  0.00    -0.311 N 
ATOM     14  C   LIG d   1       4.258  87.476 112.548  0.00  0.00     0.210 C 
ATOM     15  C   LIG d   1       5.524  88.235 112.957  0.00  0.00     0.109 C 
ATOM     16  O   LIG d   1       3.296  88.084 112.057  0.00  0.00    -0.276 OA
ATOM     17  H   LIG d   1       5.091  85.762 113.227  0.00  0.00     0.149 HD
ENDBRANCH   6  13
BRANCH   5  18
ATOM     18  N   LIG d   1       4.048  84.581 110.196  0.00  0.00     0.381 N 
ATOM     19  H   LIG d   1       4.774  85.263 110.103  0.00  0.00    -0.090 HD
ATOM     20  H   LIG d   1       3.737  84.322 109.276  0.00  0.00    -0.090 HD
ATOM     21  H   LIG d   1       4.394  83.780 110.676  0.00  0.00    -0.090 HD
ENDBRANCH   5  18
BRANCH   3  22
ATOM     22  C   LIG d   1      -0.685  84.396 110.909  0.00  0.00     0.382 C 
ATOM     23  O   LIG d   1      -1.133  83.224 110.876  0.00  0.00    -0.241 OA
ATOM     24  O   LIG d   1      -1.358  85.324 110.423  0.00  0.00    -0.241 OA
ENDBRANCH   3  22
TORSDOF 7
ENDMDL
MODEL 8
REMARK VINA RESULT:      -4.6     26.538     28.979
REMARK  7 active torsions:
REMARK  status: ('A' for Active; 'I' for Inactive)
REMARK    1  A    between atoms: C_2  and  C_3 
REMARK    2  A    between atoms: C_3  and  O_6 
REMARK    3  A    between atoms: C_3  and  C_4 
REMARK    4  A    between atoms: C_7  and  O_6 
REMARK    5  A    between atoms: C_9  and  C_10 
REMARK    6  A    between atoms: N_15  and  C_14 
REMARK    7  A    between atoms: N_20  and  C_19 
REMARK       I    between atoms: C_22  and  N_20 
ROOT
ATOM      1  C   LIG d   1     -25.793  85.463 113.895  0.00  0.00     0.161 C 
ATOM      2  C   LIG d   1     -24.653  86.264 113.710  0.00  0.00     0.016 C 
ATOM      3  C   LIG d   1     -23.357  85.737 113.508  0.00  0.00     0.038 C 
ATOM      4  C   LIG d   1     -23.135  84.364 113.324  0.00  0.00     0.028 C 
ATOM      5  C   LIG d   1     -24.179  83.485 114.004  0.00  0.00    -0.047 C 
ATOM      6  C   LIG d   1     -25.588  83.965 113.587  0.00  0.00     0.091 C 
ENDROOT
BRANCH   1   7
ATOM      7  O   LIG d   1     -26.889  85.989 113.121  0.00  0.00    -0.368 OA
BRANCH   7   8
ATOM      8  C   LIG d   1     -26.551  87.002 112.142  0.00  0.00     0.119 C 
BRANCH   8   9
ATOM      9  C   LIG d   1     -27.517  88.185 112.347  0.00  0.00     0.028 C 
ATOM     10  C   LIG d   1     -27.227  89.353 111.389  0.00  0.00     0.006 C 
ENDBRANCH   8   9
BRANCH   8  11
ATOM     11  C   LIG d   1     -26.810  86.509 110.716  0.00  0.00     0.028 C 
ATOM     12  C   LIG d   1     -25.675  85.624 110.176  0.00  0.00     0.006 C 
ENDBRANCH   8  11
ENDBRANCH   7   8
ENDBRANCH   1   7
BRANCH   6  13
ATOM     13  N   LIG d   1     -26.670  83.213 114.273  0.00  0.00    -0.311 N 
ATOM     14  C   LIG d   1     -27.261  82.139 113.752  0.00  0.00     0.210 C 
ATOM     15  C   LIG d   1     -28.366  81.525 114.617  0.00  0.00     0.109 C 
ATOM     16  O   LIG d   1     -26.952  81.617 112.671  0.00  0.00    -0.276 OA
ATOM     17  H   LIG d   1     -26.961  83.549 115.170  0.00  0.00     0.149 HD
ENDBRANCH   6  13
BRANCH   5  18
ATOM     18  N   LIG d   1     -23.906  82.088 113.617  0.00  0.00     0.381 N 
ATOM     19  H   LIG d   1     -23.421  81.620 114.357  0.00  0.00    -0.090 HD
ATOM     20  H   LIG d   1     -23.318  82.085 112.803  0.00  0.00    -0.090 HD
ATOM     21  H   LIG d   1     -24.761  81.616 113.420  0.00  0.00    -0.090 HD
ENDBRANCH   5  18
BRANCH   3  22
ATOM     22  C   LIG d   1     -22.260  86.584 113.527  0.00  0.00     0.382 C 
ATOM     23  O   LIG d   1     -21.238  86.303 112.856  0.00  0.00    -0.241 OA
ATOM     24  O   LIG d   1     -22.262  87.604 114.242  0.00  0.00    -0.241 OA
ENDBRANCH   3  22
TORSDOF 7
ENDMDL
MODEL 9
REMARK VINA RESULT:      -4.6      3.796      5.988
REMARK  7 active torsions:
REMARK  status: ('A' for Active; 'I' for Inactive)
REMARK    1  A    between atoms: C_2  and  C_3 
REMARK    2  A    between atoms: C_3  and  O_6 
REMARK    3  A    between atoms: C_3  and  C_4 
REMARK    4  A    between atoms: C_7  and  O_6 
REMARK    5  A    between atoms: C_9  and  C_10 
REMARK    6  A    between atoms: N_15  and  C_14 
REMARK    7  A    between atoms: N_20  and  C_19 
REMARK       I    between atoms: C_22  and  N_20 
ROOT
ATOM      1  C   LIG d   1       4.052  87.460 115.118  0.00  0.00     0.161 C 
ATOM      2  C   LIG d   1       3.563  86.742 114.014  0.00  0.00     0.016 C 
ATOM      3  C   LIG d   1       4.051  86.911 112.698  0.00  0.00     0.038 C 
ATOM      4  C   LIG d   1       5.173  87.706 112.419  0.00  0.00     0.028 C 
ATOM      5  C   LIG d   1       5.377  88.837 113.422  0.00  0.00    -0.047 C 
ATOM      6  C   LIG d   1       5.350  88.250 114.852  0.00  0.00     0.091 C 
ENDROOT
BRANCH   1   7
ATOM      7  O   LIG d   1       4.227  86.572 116.240  0.00  0.00    -0.368 OA
BRANCH   7   8
ATOM      8  C   LIG d   1       5.392  85.712 116.196  0.00  0.00     0.119 C 
BRANCH   8   9
ATOM      9  C   LIG d   1       4.890  84.256 116.137  0.00  0.00     0.028 C 
ATOM     10  C   LIG d   1       5.559  83.450 115.010  0.00  0.00     0.006 C 
ENDBRANCH   8   9
BRANCH   8  11
ATOM     11  C   LIG d   1       6.205  85.808 117.491  0.00  0.00     0.028 C 
ATOM     12  C   LIG d   1       7.712  85.965 117.237  0.00  0.00     0.006 C 
ENDBRANCH   8  11
ENDBRANCH   7   8
ENDBRANCH   1   7
BRANCH   6  13
ATOM     13  N   LIG d   1       5.459  89.301 115.898  0.00  0.00    -0.311 N 
ATOM     14  C   LIG d   1       6.617  89.690 116.428  0.00  0.00     0.210 C 
ATOM     15  C   LIG d   1       6.503  90.773 117.506  0.00  0.00     0.109 C 
ATOM     16  O   LIG d   1       7.730  89.264 116.085  0.00  0.00    -0.276 OA
ATOM     17  H   LIG d   1       4.607  89.722 116.212  0.00  0.00     0.149 HD
ENDBRANCH   6  13
BRANCH   5  18
ATOM     18  N   LIG d   1       6.654  89.499 113.093  0.00  0.00     0.381 N 
ATOM     19  H   LIG d   1       6.824  89.436 112.109  0.00  0.00    -0.090 HD
ATOM     20  H   LIG d   1       7.399  89.025 113.573  0.00  0.00    -0.090 HD
ATOM     21  H   LIG d   1       6.624  90.455 113.372  0.00  0.00    -0.090 HD
ENDBRANCH   5  18
BRANCH   3  22
ATOM     22  C   LIG d   1       3.390  86.310 111.637  0.00  0.00     0.382 C 
ATOM     23  O   LIG d   1       3.825  85.237 111.154  0.00  0.00    -0.241 OA
ATOM     24  O   LIG d   1       2.390  86.852 111.128  0.00  0.00    -0.241 OA
ENDBRANCH   3  22
TORSDOF 7
ENDMDL
