MODEL 1
REMARK VINA RESULT:      -5.5      0.000      0.000
REMARK  7 active torsions:
REMARK  status: ('A' for Active; 'I' for Inactive)
REMARK    1  A    between atoms: C_2  and  C_3 
REMARK    2  A    between atoms: C_3  and  O_6 
REMARK    3  A    between atoms: C_3  and  C_4 
REMARK    4  A    between atoms: C_7  and  O_6 
REMARK    5  A    between atoms: C_9  and  C_10 
REMARK    6  A    between atoms: N_15  and  C_14 
REMARK    7  A    between atoms: N_20  and  C_19 
REMARK       I    between atoms: C_22  and  N_20 
ROOT
ATOM      1  C   LIG d   1       3.294  85.080 112.479  0.00  0.00     0.161 C 
ATOM      2  C   LIG d   1       3.838  86.367 112.626  0.00  0.00     0.016 C 
ATOM      3  C   LIG d   1       3.907  87.045 113.865  0.00  0.00     0.038 C 
ATOM      4  C   LIG d   1       3.571  86.418 115.074  0.00  0.00     0.028 C 
ATOM      5  C   LIG d   1       2.546  85.301 114.912  0.00  0.00    -0.047 C 
ATOM      6  C   LIG d   1       3.025  84.336 113.804  0.00  0.00     0.091 C 
ENDROOT
BRANCH   1   7
ATOM      7  O   LIG d   1       4.139  84.287 111.622  0.00  0.00    -0.368 OA
BRANCH   7   8
ATOM      8  C   LIG d   1       3.612  83.990 110.305  0.00  0.00     0.119 C 
BRANCH   8   9
ATOM      9  C   LIG d   1       2.146  84.465 110.275  0.00  0.00     0.028 C 
ATOM     10  C   LIG d   1       1.159  83.307 110.056  0.00  0.00     0.006 C 
ENDBRANCH   8   9
BRANCH   8  11
ATOM     11  C   LIG d   1       3.554  82.480 110.055  0.00  0.00     0.028 C 
ATOM     12  C   LIG d   1       4.862  81.764 110.430  0.00  0.00     0.006 C 
ENDBRANCH   8  11
ENDBRANCH   7   8
ENDBRANCH   1   7
BRANCH   6  13
ATOM     13  N   LIG d   1       2.038  83.260 113.524  0.00  0.00    -0.311 N 
ATOM     14  C   LIG d   1       2.358  81.969 113.467  0.00  0.00     0.210 C 
ATOM     15  C   LIG d   1       1.194  81.027 113.145  0.00  0.00     0.109 C 
ATOM     16  O   LIG d   1       3.490  81.510 113.684  0.00  0.00    -0.276 OA
ATOM     17  H   LIG d   1       1.090  83.541 113.366  0.00  0.00     0.149 HD
ENDBRANCH   6  13
BRANCH   5  18
ATOM     18  N   LIG d   1       2.392  84.644 116.224  0.00  0.00     0.381 N 
ATOM     19  H   LIG d   1       2.685  83.689 116.161  0.00  0.00    -0.090 HD
ATOM     20  H   LIG d   1       1.422  84.660 116.484  0.00  0.00    -0.090 HD
ATOM     21  H   LIG d   1       2.935  85.121 116.910  0.00  0.00    -0.090 HD
ENDBRANCH   5  18
BRANCH   3  22
ATOM     22  C   LIG d   1       4.278  88.381 113.897  0.00  0.00     0.382 C 
ATOM     23  O   LIG d   1       3.723  89.167 114.703  0.00  0.00    -0.241 OA
ATOM     24  O   LIG d   1       5.128  88.820 113.099  0.00  0.00    -0.241 OA
ENDBRANCH   3  22
TORSDOF 7
ENDMDL
MODEL 2
REMARK VINA RESULT:      -5.4      7.080     10.087
REMARK  7 active torsions:
REMARK  status: ('A' for Active; 'I' for Inactive)
REMARK    1  A    between atoms: C_2  and  C_3 
REMARK    2  A    between atoms: C_3  and  O_6 
REMARK    3  A    between atoms: C_3  and  C_4 
REMARK    4  A    between atoms: C_7  and  O_6 
REMARK    5  A    between atoms: C_9  and  C_10 
REMARK    6  A    between atoms: N_15  and  C_14 
REMARK    7  A    between atoms: N_20  and  C_19 
REMARK       I    between atoms: C_22  and  N_20 
ROOT
ATOM      1  C   LIG d   1      -3.066  77.736 114.509  0.00  0.00     0.161 C 
ATOM      2  C   LIG d   1      -3.194  78.869 113.689  0.00  0.00     0.016 C 
ATOM      3  C   LIG d   1      -2.119  79.736 113.386  0.00  0.00     0.038 C 
ATOM      4  C   LIG d   1      -0.800  79.441 113.763  0.00  0.00     0.028 C 
ATOM      5  C   LIG d   1      -0.707  78.577 115.016  0.00  0.00    -0.047 C 
ATOM      6  C   LIG d   1      -1.613  77.337 114.838  0.00  0.00     0.091 C 
ENDROOT
BRANCH   1   7
ATOM      7  O   LIG d   1      -3.770  76.625 113.919  0.00  0.00    -0.368 OA
BRANCH   7   8
ATOM      8  C   LIG d   1      -5.125  76.410 114.384  0.00  0.00     0.119 C 
BRANCH   8   9
ATOM      9  C   LIG d   1      -5.082  75.281 115.432  0.00  0.00     0.028 C 
ATOM     10  C   LIG d   1      -6.181  74.229 115.207  0.00  0.00     0.006 C 
ENDBRANCH   8   9
BRANCH   8  11
ATOM     11  C   LIG d   1      -6.023  75.885 113.259  0.00  0.00     0.028 C 
ATOM     12  C   LIG d   1      -6.428  76.981 112.260  0.00  0.00     0.006 C 
ENDBRANCH   8  11
ENDBRANCH   7   8
ENDBRANCH   1   7
BRANCH   6  13
ATOM     13  N   LIG d   1      -1.646  76.480 116.052  0.00  0.00    -0.311 N 
ATOM     14  C   LIG d   1      -1.470  75.160 116.023  0.00  0.00     0.210 C 
ATOM     15  C   LIG d   1      -1.562  74.465 117.385  0.00  0.00     0.109 C 
ATOM     16  O   LIG d   1      -1.214  74.503 115.003  0.00  0.00    -0.276 OA
ATOM     17  H   LIG d   1      -1.816  76.936 116.927  0.00  0.00     0.149 HD
ENDBRANCH   6  13
BRANCH   5  18
ATOM     18  N   LIG d   1       0.713  78.232 115.215  0.00  0.00     0.381 N 
ATOM     19  H   LIG d   1       1.286  78.798 114.621  0.00  0.00    -0.090 HD
ATOM     20  H   LIG d   1       0.852  77.269 114.962  0.00  0.00    -0.090 HD
ATOM     21  H   LIG d   1       0.968  78.373 116.168  0.00  0.00    -0.090 HD
ENDBRANCH   5  18
BRANCH   3  22
ATOM     22  C   LIG d   1      -2.365  80.934 112.732  0.00  0.00     0.382 C 
ATOM     23  O   LIG d   1      -1.407  81.633 112.323  0.00  0.00    -0.241 OA
ATOM     24  O   LIG d   1      -3.531  81.346 112.586  0.00  0.00    -0.241 OA
ENDBRANCH   3  22
TORSDOF 7
ENDMDL
MODEL 3
REMARK VINA RESULT:      -5.1      1.453      1.629
REMARK  7 active torsions:
REMARK  status: ('A' for Active; 'I' for Inactive)
REMARK    1  A    between atoms: C_2  and  C_3 
REMARK    2  A    between atoms: C_3  and  O_6 
REMARK    3  A    between atoms: C_3  and  C_4 
REMARK    4  A    between atoms: C_7  and  O_6 
REMARK    5  A    between atoms: C_9  and  C_10 
REMARK    6  A    between atoms: N_15  and  C_14 
REMARK    7  A    between atoms: N_20  and  C_19 
REMARK       I    between atoms: C_22  and  N_20 
ROOT
ATOM      1  C   LIG d   1       2.563  84.941 113.865  0.00  0.00     0.161 C 
ATOM      2  C   LIG d   1       2.961  86.258 113.580  0.00  0.00     0.016 C 
ATOM      3  C   LIG d   1       3.941  86.953 114.326  0.00  0.00     0.038 C 
ATOM      4  C   LIG d   1       4.703  86.320 115.319  0.00  0.00     0.028 C 
ATOM      5  C   LIG d   1       3.986  85.146 115.977  0.00  0.00    -0.047 C 
ATOM      6  C   LIG d   1       3.462  84.197 114.875  0.00  0.00     0.091 C 
ENDROOT
BRANCH   1   7
ATOM      7  O   LIG d   1       2.455  84.188 112.641  0.00  0.00    -0.368 OA
BRANCH   7   8
ATOM      8  C   LIG d   1       3.703  83.870 111.976  0.00  0.00     0.119 C 
BRANCH   8   9
ATOM      9  C   LIG d   1       3.667  84.529 110.584  0.00  0.00     0.028 C 
ATOM     10  C   LIG d   1       2.232  84.759 110.080  0.00  0.00     0.006 C 
ENDBRANCH   8   9
BRANCH   8  11
ATOM     11  C   LIG d   1       3.825  82.367 111.710  0.00  0.00     0.028 C 
ATOM     12  C   LIG d   1       4.907  82.032 110.671  0.00  0.00     0.006 C 
ENDBRANCH   8  11
ENDBRANCH   7   8
ENDBRANCH   1   7
BRANCH   6  13
ATOM     13  N   LIG d   1       2.675  83.065 115.429  0.00  0.00    -0.311 N 
ATOM     14  C   LIG d   1       3.108  81.806 115.437  0.00  0.00     0.210 C 
ATOM     15  C   LIG d   1       2.131  80.790 116.037  0.00  0.00     0.109 C 
ATOM     16  O   LIG d   1       4.222  81.438 115.034  0.00  0.00    -0.276 OA
ATOM     17  H   LIG d   1       1.772  83.278 115.805  0.00  0.00     0.149 HD
ENDBRANCH   6  13
BRANCH   5  18
ATOM     18  N   LIG d   1       4.943  84.496 116.892  0.00  0.00     0.381 N 
ATOM     19  H   LIG d   1       5.849  84.906 116.783  0.00  0.00    -0.090 HD
ATOM     20  H   LIG d   1       5.007  83.521 116.656  0.00  0.00    -0.090 HD
ATOM     21  H   LIG d   1       4.636  84.597 117.835  0.00  0.00    -0.090 HD
ENDBRANCH   5  18
BRANCH   3  22
ATOM     22  C   LIG d   1       4.139  88.307 114.106  0.00  0.00     0.382 C 
ATOM     23  O   LIG d   1       3.605  89.150 114.866  0.00  0.00    -0.241 OA
ATOM     24  O   LIG d   1       4.810  88.698 113.131  0.00  0.00    -0.241 OA
ENDBRANCH   3  22
TORSDOF 7
ENDMDL
MODEL 4
REMARK VINA RESULT:      -5.1      1.126      1.921
REMARK  7 active torsions:
REMARK  status: ('A' for Active; 'I' for Inactive)
REMARK    1  A    between atoms: C_2  and  C_3 
REMARK    2  A    between atoms: C_3  and  O_6 
REMARK    3  A    between atoms: C_3  and  C_4 
REMARK    4  A    between atoms: C_7  and  O_6 
REMARK    5  A    between atoms: C_9  and  C_10 
REMARK    6  A    between atoms: N_15  and  C_14 
REMARK    7  A    between atoms: N_20  and  C_19 
REMARK       I    between atoms: C_22  and  N_20 
ROOT
ATOM      1  C   LIG d   1       3.089  84.872 113.318  0.00  0.00     0.161 C 
ATOM      2  C   LIG d   1       3.544  86.189 113.140  0.00  0.00     0.016 C 
ATOM      3  C   LIG d   1       4.095  86.970 114.182  0.00  0.00     0.038 C 
ATOM      4  C   LIG d   1       4.369  86.430 115.447  0.00  0.00     0.028 C 
ATOM      5  C   LIG d   1       3.462  85.260 115.816  0.00  0.00    -0.047 C 
ATOM      6  C   LIG d   1       3.481  84.229 114.665  0.00  0.00     0.091 C 
ENDROOT
BRANCH   1   7
ATOM      7  O   LIG d   1       3.532  84.049 112.221  0.00  0.00    -0.368 OA
BRANCH   7   8
ATOM      8  C   LIG d   1       2.498  83.562 111.331  0.00  0.00     0.119 C 
BRANCH   8   9
ATOM      9  C   LIG d   1       2.949  82.184 110.808  0.00  0.00     0.028 C 
ATOM     10  C   LIG d   1       4.455  81.943 111.012  0.00  0.00     0.006 C 
ENDBRANCH   8   9
BRANCH   8  11
ATOM     11  C   LIG d   1       2.371  84.446 110.087  0.00  0.00     0.028 C 
ATOM     12  C   LIG d   1       1.058  85.244 110.055  0.00  0.00     0.006 C 
ENDBRANCH   8  11
ENDBRANCH   7   8
ENDBRANCH   1   7
BRANCH   6  13
ATOM     13  N   LIG d   1       2.555  83.092 114.907  0.00  0.00    -0.311 N 
ATOM     14  C   LIG d   1       2.946  81.819 114.926  0.00  0.00     0.210 C 
ATOM     15  C   LIG d   1       1.828  80.802 115.173  0.00  0.00     0.109 C 
ATOM     16  O   LIG d   1       4.119  81.437 114.793  0.00  0.00    -0.276 OA
ATOM     17  H   LIG d   1       1.590  83.313 115.055  0.00  0.00     0.149 HD
ENDBRANCH   6  13
BRANCH   5  18
ATOM     18  N   LIG d   1       3.946  84.707 117.095  0.00  0.00     0.381 N 
ATOM     19  H   LIG d   1       3.758  83.725 117.133  0.00  0.00    -0.090 HD
ATOM     20  H   LIG d   1       3.452  85.152 117.849  0.00  0.00    -0.090 HD
ATOM     21  H   LIG d   1       4.925  84.869 117.188  0.00  0.00    -0.090 HD
ENDBRANCH   5  18
BRANCH   3  22
ATOM     22  C   LIG d   1       4.341  88.318 113.974  0.00  0.00     0.382 C 
ATOM     23  O   LIG d   1       3.771  89.177 114.689  0.00  0.00    -0.241 OA
ATOM     24  O   LIG d   1       5.092  88.688 113.052  0.00  0.00    -0.241 OA
ENDBRANCH   3  22
TORSDOF 7
ENDMDL
MODEL 5
REMARK VINA RESULT:      -4.9      8.583     10.882
REMARK  7 active torsions:
REMARK  status: ('A' for Active; 'I' for Inactive)
REMARK    1  A    between atoms: C_2  and  C_3 
REMARK    2  A    between atoms: C_3  and  O_6 
REMARK    3  A    between atoms: C_3  and  C_4 
REMARK    4  A    between atoms: C_7  and  O_6 
REMARK    5  A    between atoms: C_9  and  C_10 
REMARK    6  A    between atoms: N_15  and  C_14 
REMARK    7  A    between atoms: N_20  and  C_19 
REMARK       I    between atoms: C_22  and  N_20 
ROOT
ATOM      1  C   LIG d   1      -2.540  77.107 115.783  0.00  0.00     0.161 C 
ATOM      2  C   LIG d   1      -2.899  77.970 114.734  0.00  0.00     0.016 C 
ATOM      3  C   LIG d   1      -2.137  78.119 113.553  0.00  0.00     0.038 C 
ATOM      4  C   LIG d   1      -1.036  77.295 113.273  0.00  0.00     0.028 C 
ATOM      5  C   LIG d   1      -0.344  76.763 114.523  0.00  0.00    -0.047 C 
ATOM      6  C   LIG d   1      -1.403  76.120 115.447  0.00  0.00     0.091 C 
ENDROOT
BRANCH   1   7
ATOM      7  O   LIG d   1      -3.703  76.393 116.248  0.00  0.00    -0.368 OA
BRANCH   7   8
ATOM      8  C   LIG d   1      -4.985  76.988 115.930  0.00  0.00     0.119 C 
BRANCH   8   9
ATOM      9  C   LIG d   1      -5.611  77.474 117.252  0.00  0.00     0.028 C 
ATOM     10  C   LIG d   1      -7.148  77.471 117.210  0.00  0.00     0.006 C 
ENDBRANCH   8   9
BRANCH   8  11
ATOM     11  C   LIG d   1      -5.962  75.945 115.379  0.00  0.00     0.028 C 
ATOM     12  C   LIG d   1      -5.903  75.823 113.848  0.00  0.00     0.006 C 
ENDBRANCH   8  11
ENDBRANCH   7   8
ENDBRANCH   1   7
BRANCH   6  13
ATOM     13  N   LIG d   1      -0.823  75.648 116.732  0.00  0.00    -0.311 N 
ATOM     14  C   LIG d   1      -0.284  74.441 116.894  0.00  0.00     0.210 C 
ATOM     15  C   LIG d   1       0.238  74.149 118.304  0.00  0.00     0.109 C 
ATOM     16  O   LIG d   1      -0.160  73.596 115.995  0.00  0.00    -0.276 OA
ATOM     17  H   LIG d   1      -0.854  76.282 117.506  0.00  0.00     0.149 HD
ENDBRANCH   6  13
BRANCH   5  18
ATOM     18  N   LIG d   1       0.696  75.812 114.087  0.00  0.00     0.381 N 
ATOM     19  H   LIG d   1       0.414  74.878 114.305  0.00  0.00    -0.090 HD
ATOM     20  H   LIG d   1       1.546  76.009 114.585  0.00  0.00    -0.090 HD
ATOM     21  H   LIG d   1       0.849  75.901 113.106  0.00  0.00    -0.090 HD
ENDBRANCH   5  18
BRANCH   3  22
ATOM     22  C   LIG d   1      -2.450  79.127 112.655  0.00  0.00     0.382 C 
ATOM     23  O   LIG d   1      -3.255  80.032 112.984  0.00  0.00    -0.241 OA
ATOM     24  O   LIG d   1      -1.973  79.119 111.504  0.00  0.00    -0.241 OA
ENDBRANCH   3  22
TORSDOF 7
ENDMDL
MODEL 6
REMARK VINA RESULT:      -4.9     27.556     28.881
REMARK  7 active torsions:
REMARK  status: ('A' for Active; 'I' for Inactive)
REMARK    1  A    between atoms: C_2  and  C_3 
REMARK    2  A    between atoms: C_3  and  O_6 
REMARK    3  A    between atoms: C_3  and  C_4 
REMARK    4  A    between atoms: C_7  and  O_6 
REMARK    5  A    between atoms: C_9  and  C_10 
REMARK    6  A    between atoms: N_15  and  C_14 
REMARK    7  A    between atoms: N_20  and  C_19 
REMARK       I    between atoms: C_22  and  N_20 
ROOT
ATOM      1  C   LIG d   1     -25.766  86.074 114.125  0.00  0.00     0.161 C 
ATOM      2  C   LIG d   1     -24.641  86.916 114.132  0.00  0.00     0.016 C 
ATOM      3  C   LIG d   1     -23.349  86.492 113.745  0.00  0.00     0.038 C 
ATOM      4  C   LIG d   1     -23.122  85.230 113.177  0.00  0.00     0.028 C 
ATOM      5  C   LIG d   1     -24.131  84.176 113.620  0.00  0.00    -0.047 C 
ATOM      6  C   LIG d   1     -25.559  84.726 113.403  0.00  0.00     0.091 C 
ENDROOT
BRANCH   1   7
ATOM      7  O   LIG d   1     -26.896  86.773 113.567  0.00  0.00    -0.368 OA
BRANCH   7   8
ATOM      8  C   LIG d   1     -26.609  87.678 112.473  0.00  0.00     0.119 C 
BRANCH   8   9
ATOM      9  C   LIG d   1     -27.500  88.922 112.656  0.00  0.00     0.028 C 
ATOM     10  C   LIG d   1     -27.391  89.901 111.474  0.00  0.00     0.006 C 
ENDBRANCH   8   9
BRANCH   8  11
ATOM     11  C   LIG d   1     -27.026  87.075 111.128  0.00  0.00     0.028 C 
ATOM     12  C   LIG d   1     -28.303  86.225 111.226  0.00  0.00     0.006 C 
ENDBRANCH   8  11
ENDBRANCH   7   8
ENDBRANCH   1   7
BRANCH   6  13
ATOM     13  N   LIG d   1     -26.607  83.790 113.889  0.00  0.00    -0.311 N 
ATOM     14  C   LIG d   1     -27.200  82.886 113.112  0.00  0.00     0.210 C 
ATOM     15  C   LIG d   1     -28.267  82.035 113.808  0.00  0.00     0.109 C 
ATOM     16  O   LIG d   1     -26.920  82.685 111.920  0.00  0.00    -0.276 OA
ATOM     17  H   LIG d   1     -26.873  83.863 114.852  0.00  0.00     0.149 HD
ENDBRANCH   6  13
BRANCH   5  18
ATOM     18  N   LIG d   1     -23.861  82.948 112.848  0.00  0.00     0.381 N 
ATOM     19  H   LIG d   1     -23.583  83.187 111.917  0.00  0.00    -0.090 HD
ATOM     20  H   LIG d   1     -24.705  82.405 112.796  0.00  0.00    -0.090 HD
ATOM     21  H   LIG d   1     -23.143  82.418 113.291  0.00  0.00    -0.090 HD
ENDBRANCH   5  18
BRANCH   3  22
ATOM     22  C   LIG d   1     -22.260  87.322 113.962  0.00  0.00     0.382 C 
ATOM     23  O   LIG d   1     -22.301  88.185 114.872  0.00  0.00    -0.241 OA
ATOM     24  O   LIG d   1     -21.254  87.248 113.232  0.00  0.00    -0.241 OA
ENDBRANCH   3  22
TORSDOF 7
ENDMDL
MODEL 7
REMARK VINA RESULT:      -4.9      5.664      9.564
REMARK  7 active torsions:
REMARK  status: ('A' for Active; 'I' for Inactive)
REMARK    1  A    between atoms: C_2  and  C_3 
REMARK    2  A    between atoms: C_3  and  O_6 
REMARK    3  A    between atoms: C_3  and  C_4 
REMARK    4  A    between atoms: C_7  and  O_6 
REMARK    5  A    between atoms: C_9  and  C_10 
REMARK    6  A    between atoms: N_15  and  C_14 
REMARK    7  A    between atoms: N_20  and  C_19 
REMARK       I    between atoms: C_22  and  N_20 
ROOT
ATOM      1  C   LIG d   1      -1.659  79.613 114.086  0.00  0.00     0.161 C 
ATOM      2  C   LIG d   1      -2.534  78.530 114.276  0.00  0.00     0.016 C 
ATOM      3  C   LIG d   1      -2.854  77.601 113.260  0.00  0.00     0.038 C 
ATOM      4  C   LIG d   1      -2.198  77.603 112.020  0.00  0.00     0.028 C 
ATOM      5  C   LIG d   1      -1.681  78.978 111.611  0.00  0.00    -0.047 C 
ATOM      6  C   LIG d   1      -0.849  79.567 112.773  0.00  0.00     0.091 C 
ENDROOT
BRANCH   1   7
ATOM      7  O   LIG d   1      -0.773  79.730 115.217  0.00  0.00    -0.368 OA
BRANCH   7   8
ATOM      8  C   LIG d   1      -0.908  78.713 116.240  0.00  0.00     0.119 C 
BRANCH   8   9
ATOM      9  C   LIG d   1      -1.083  79.436 117.590  0.00  0.00     0.028 C 
ATOM     10  C   LIG d   1      -2.549  79.473 118.051  0.00  0.00     0.006 C 
ENDBRANCH   8   9
BRANCH   8  11
ATOM     11  C   LIG d   1       0.376  77.892 116.383  0.00  0.00     0.028 C 
ATOM     12  C   LIG d   1       0.395  76.652 115.475  0.00  0.00     0.006 C 
ENDBRANCH   8  11
ENDBRANCH   7   8
ENDBRANCH   1   7
BRANCH   6  13
ATOM     13  N   LIG d   1      -0.375  80.947 112.489  0.00  0.00    -0.311 N 
ATOM     14  C   LIG d   1      -1.195  81.981 112.307  0.00  0.00     0.210 C 
ATOM     15  C   LIG d   1      -0.500  83.312 112.005  0.00  0.00     0.109 C 
ATOM     16  O   LIG d   1      -2.431  81.928 112.399  0.00  0.00    -0.276 OA
ATOM     17  H   LIG d   1       0.614  81.086 112.428  0.00  0.00     0.149 HD
ENDBRANCH   6  13
BRANCH   5  18
ATOM     18  N   LIG d   1      -0.902  78.810 110.370  0.00  0.00     0.381 N 
ATOM     19  H   LIG d   1      -1.335  79.321 109.626  0.00  0.00    -0.090 HD
ATOM     20  H   LIG d   1      -0.894  77.837 110.120  0.00  0.00    -0.090 HD
ATOM     21  H   LIG d   1       0.030  79.133 110.506  0.00  0.00    -0.090 HD
ENDBRANCH   5  18
BRANCH   3  22
ATOM     22  C   LIG d   1      -3.868  76.679 113.467  0.00  0.00     0.382 C 
ATOM     23  O   LIG d   1      -3.615  75.581 114.019  0.00  0.00    -0.241 OA
ATOM     24  O   LIG d   1      -5.025  76.913 113.070  0.00  0.00    -0.241 OA
ENDBRANCH   3  22
TORSDOF 7
ENDMDL
MODEL 8
REMARK VINA RESULT:      -4.8      8.753     11.335
REMARK  7 active torsions:
REMARK  status: ('A' for Active; 'I' for Inactive)
REMARK    1  A    between atoms: C_2  and  C_3 
REMARK    2  A    between atoms: C_3  and  O_6 
REMARK    3  A    between atoms: C_3  and  C_4 
REMARK    4  A    between atoms: C_7  and  O_6 
REMARK    5  A    between atoms: C_9  and  C_10 
REMARK    6  A    between atoms: N_15  and  C_14 
REMARK    7  A    between atoms: N_20  and  C_19 
REMARK       I    between atoms: C_22  and  N_20 
ROOT
ATOM      1  C   LIG d   1      -3.012  76.447 114.332  0.00  0.00     0.161 C 
ATOM      2  C   LIG d   1      -2.833  75.577 115.420  0.00  0.00     0.016 C 
ATOM      3  C   LIG d   1      -1.714  75.630 116.283  0.00  0.00     0.038 C 
ATOM      4  C   LIG d   1      -0.766  76.661 116.205  0.00  0.00     0.028 C 
ATOM      5  C   LIG d   1      -0.638  77.262 114.810  0.00  0.00    -0.047 C 
ATOM      6  C   LIG d   1      -2.044  77.649 114.299  0.00  0.00     0.091 C 
ENDROOT
BRANCH   1   7
ATOM      7  O   LIG d   1      -4.379  76.903 114.291  0.00  0.00    -0.368 OA
BRANCH   7   8
ATOM      8  C   LIG d   1      -5.384  75.884 114.071  0.00  0.00     0.119 C 
BRANCH   8   9
ATOM      9  C   LIG d   1      -6.442  76.474 113.118  0.00  0.00     0.028 C 
ATOM     10  C   LIG d   1      -5.810  77.227 111.935  0.00  0.00     0.006 C 
ENDBRANCH   8   9
BRANCH   8  11
ATOM     11  C   LIG d   1      -6.139  75.558 115.363  0.00  0.00     0.028 C 
ATOM     12  C   LIG d   1      -6.451  76.808 116.202  0.00  0.00     0.006 C 
ENDBRANCH   8  11
ENDBRANCH   7   8
ENDBRANCH   1   7
BRANCH   6  13
ATOM     13  N   LIG d   1      -2.019  78.167 112.906  0.00  0.00    -0.311 N 
ATOM     14  C   LIG d   1      -1.334  77.589 111.921  0.00  0.00     0.210 C 
ATOM     15  C   LIG d   1      -1.428  78.297 110.566  0.00  0.00     0.109 C 
ATOM     16  O   LIG d   1      -0.685  76.538 112.033  0.00  0.00    -0.276 OA
ATOM     17  H   LIG d   1      -2.544  78.999 112.719  0.00  0.00     0.149 HD
ENDBRANCH   6  13
BRANCH   5  18
ATOM     18  N   LIG d   1       0.280  78.413 114.903  0.00  0.00     0.381 N 
ATOM     19  H   LIG d   1       0.696  78.442 115.812  0.00  0.00    -0.090 HD
ATOM     20  H   LIG d   1      -0.245  79.259 114.769  0.00  0.00    -0.090 HD
ATOM     21  H   LIG d   1       0.990  78.340 114.207  0.00  0.00    -0.090 HD
ENDBRANCH   5  18
BRANCH   3  22
ATOM     22  C   LIG d   1      -1.514  74.620 117.211  0.00  0.00     0.382 C 
ATOM     23  O   LIG d   1      -0.617  73.763 117.022  0.00  0.00    -0.241 OA
ATOM     24  O   LIG d   1      -2.248  74.528 118.214  0.00  0.00    -0.241 OA
ENDBRANCH   3  22
TORSDOF 7
ENDMDL
MODEL 9
REMARK VINA RESULT:      -4.7      7.396     10.049
REMARK  7 active torsions:
REMARK  status: ('A' for Active; 'I' for Inactive)
REMARK    1  A    between atoms: C_2  and  C_3 
REMARK    2  A    between atoms: C_3  and  O_6 
REMARK    3  A    between atoms: C_3  and  C_4 
REMARK    4  A    between atoms: C_7  and  O_6 
REMARK    5  A    between atoms: C_9  and  C_10 
REMARK    6  A    between atoms: N_15  and  C_14 
REMARK    7  A    between atoms: N_20  and  C_19 
REMARK       I    between atoms: C_22  and  N_20 
ROOT
ATOM      1  C   LIG d   1      -2.676  77.907 114.633  0.00  0.00     0.161 C 
ATOM      2  C   LIG d   1      -2.939  79.203 114.160  0.00  0.00     0.016 C 
ATOM      3  C   LIG d   1      -2.369  79.731 112.979  0.00  0.00     0.038 C 
ATOM      4  C   LIG d   1      -1.611  78.940 112.103  0.00  0.00     0.028 C 
ATOM      5  C   LIG d   1      -0.906  77.777 112.794  0.00  0.00    -0.047 C 
ATOM      6  C   LIG d   1      -1.939  76.991 113.633  0.00  0.00     0.091 C 
ENDROOT
BRANCH   1   7
ATOM      7  O   LIG d   1      -3.902  77.288 115.069  0.00  0.00    -0.368 OA
BRANCH   7   8
ATOM      8  C   LIG d   1      -4.139  77.280 116.499  0.00  0.00     0.119 C 
BRANCH   8   9
ATOM      9  C   LIG d   1      -3.544  75.974 117.060  0.00  0.00     0.028 C 
ATOM     10  C   LIG d   1      -2.656  76.215 118.292  0.00  0.00     0.006 C 
ENDBRANCH   8   9
BRANCH   8  11
ATOM     11  C   LIG d   1      -5.636  77.213 116.816  0.00  0.00     0.028 C 
ATOM     12  C   LIG d   1      -6.438  76.456 115.746  0.00  0.00     0.006 C 
ENDBRANCH   8  11
ENDBRANCH   7   8
ENDBRANCH   1   7
BRANCH   6  13
ATOM     13  N   LIG d   1      -1.317  75.887 114.409  0.00  0.00    -0.311 N 
ATOM     14  C   LIG d   1      -0.344  76.073 115.299  0.00  0.00     0.210 C 
ATOM     15  C   LIG d   1       0.170  74.797 115.973  0.00  0.00     0.109 C 
ATOM     16  O   LIG d   1       0.121  77.178 115.617  0.00  0.00    -0.276 OA
ATOM     17  H   LIG d   1      -1.656  74.960 114.236  0.00  0.00     0.149 HD
ENDBRANCH   6  13
BRANCH   5  18
ATOM     18  N   LIG d   1      -0.267  76.958 111.748  0.00  0.00     0.381 N 
ATOM     19  H   LIG d   1       0.694  76.802 111.979  0.00  0.00    -0.090 HD
ATOM     20  H   LIG d   1      -0.305  77.456 110.876  0.00  0.00    -0.090 HD
ATOM     21  H   LIG d   1      -0.740  76.085 111.661  0.00  0.00    -0.090 HD
ENDBRANCH   5  18
BRANCH   3  22
ATOM     22  C   LIG d   1      -2.523  81.077 112.683  0.00  0.00     0.382 C 
ATOM     23  O   LIG d   1      -1.526  81.766 112.358  0.00  0.00    -0.241 OA
ATOM     24  O   LIG d   1      -3.640  81.621 112.781  0.00  0.00    -0.241 OA
ENDBRANCH   3  22
TORSDOF 7
ENDMDL
