MODEL 1
REMARK VINA RESULT:      -5.5      0.000      0.000
REMARK  7 active torsions:
REMARK  status: ('A' for Active; 'I' for Inactive)
REMARK    1  A    between atoms: C_2  and  C_3 
REMARK    2  A    between atoms: C_3  and  O_6 
REMARK    3  A    between atoms: C_3  and  C_4 
REMARK    4  A    between atoms: C_7  and  O_6 
REMARK    5  A    between atoms: C_9  and  C_10 
REMARK    6  A    between atoms: N_15  and  C_14 
REMARK    7  A    between atoms: N_20  and  C_19 
REMARK       I    between atoms: C_22  and  N_20 
ROOT
ATOM      1  C   LIG d   1       4.108  85.153 112.967  0.00  0.00     0.161 C 
ATOM      2  C   LIG d   1       4.610  86.437 113.240  0.00  0.00     0.016 C 
ATOM      3  C   LIG d   1       4.062  87.619 112.692  0.00  0.00     0.038 C 
ATOM      4  C   LIG d   1       2.873  87.610 111.948  0.00  0.00     0.028 C 
ATOM      5  C   LIG d   1       2.619  86.289 111.229  0.00  0.00    -0.047 C 
ATOM      6  C   LIG d   1       2.744  85.132 112.246  0.00  0.00     0.091 C 
ENDROOT
BRANCH   1   7
ATOM      7  O   LIG d   1       4.044  84.384 114.185  0.00  0.00    -0.368 OA
BRANCH   7   8
ATOM      8  C   LIG d   1       3.848  85.139 115.406  0.00  0.00     0.119 C 
BRANCH   8   9
ATOM      9  C   LIG d   1       4.746  84.511 116.488  0.00  0.00     0.028 C 
ATOM     10  C   LIG d   1       6.080  85.259 116.652  0.00  0.00     0.006 C 
ENDBRANCH   8   9
BRANCH   8  11
ATOM     11  C   LIG d   1       2.417  84.990 115.930  0.00  0.00     0.028 C 
ATOM     12  C   LIG d   1       1.545  86.223 115.641  0.00  0.00     0.006 C 
ENDBRANCH   8  11
ENDBRANCH   7   8
ENDBRANCH   1   7
BRANCH   6  13
ATOM     13  N   LIG d   1       2.593  83.798 111.609  0.00  0.00    -0.311 N 
ATOM     14  C   LIG d   1       1.776  82.853 112.071  0.00  0.00     0.210 C 
ATOM     15  C   LIG d   1       1.787  81.543 111.276  0.00  0.00     0.109 C 
ATOM     16  O   LIG d   1       1.019  82.986 113.044  0.00  0.00    -0.276 OA
ATOM     17  H   LIG d   1       3.147  83.616 110.795  0.00  0.00     0.149 HD
ENDBRANCH   6  13
BRANCH   5  18
ATOM     18  N   LIG d   1       1.284  86.369 110.607  0.00  0.00     0.381 N 
ATOM     19  H   LIG d   1       0.862  85.462 110.591  0.00  0.00    -0.090 HD
ATOM     20  H   LIG d   1       1.385  86.686 109.659  0.00  0.00    -0.090 HD
ATOM     21  H   LIG d   1       0.708  87.003 111.117  0.00  0.00    -0.090 HD
ENDBRANCH   5  18
BRANCH   3  22
ATOM     22  C   LIG d   1       4.728  88.825 112.854  0.00  0.00     0.382 C 
ATOM     23  O   LIG d   1       4.077  89.877 113.066  0.00  0.00    -0.241 OA
ATOM     24  O   LIG d   1       5.967  88.881 112.747  0.00  0.00    -0.241 OA
ENDBRANCH   3  22
TORSDOF 7
ENDMDL
MODEL 2
REMARK VINA RESULT:      -5.1      2.421      4.699
REMARK  7 active torsions:
REMARK  status: ('A' for Active; 'I' for Inactive)
REMARK    1  A    between atoms: C_2  and  C_3 
REMARK    2  A    between atoms: C_3  and  O_6 
REMARK    3  A    between atoms: C_3  and  C_4 
REMARK    4  A    between atoms: C_7  and  O_6 
REMARK    5  A    between atoms: C_9  and  C_10 
REMARK    6  A    between atoms: N_15  and  C_14 
REMARK    7  A    between atoms: N_20  and  C_19 
REMARK       I    between atoms: C_22  and  N_20 
ROOT
ATOM      1  C   LIG d   1       1.836  84.979 113.980  0.00  0.00     0.161 C 
ATOM      2  C   LIG d   1       2.288  86.003 113.131  0.00  0.00     0.016 C 
ATOM      3  C   LIG d   1       3.584  86.562 113.207  0.00  0.00     0.038 C 
ATOM      4  C   LIG d   1       4.574  86.026 114.044  0.00  0.00     0.028 C 
ATOM      5  C   LIG d   1       4.012  85.323 115.275  0.00  0.00    -0.047 C 
ATOM      6  C   LIG d   1       2.938  84.306 114.825  0.00  0.00     0.091 C 
ENDROOT
BRANCH   1   7
ATOM      7  O   LIG d   1       1.118  83.991 113.215  0.00  0.00    -0.368 OA
BRANCH   7   8
ATOM      8  C   LIG d   1       1.249  84.082 111.775  0.00  0.00     0.119 C 
BRANCH   8   9
ATOM      9  C   LIG d   1      -0.156  83.894 111.170  0.00  0.00     0.028 C 
ATOM     10  C   LIG d   1      -0.727  85.202 110.595  0.00  0.00     0.006 C 
ENDBRANCH   8   9
BRANCH   8  11
ATOM     11  C   LIG d   1       2.088  82.928 111.218  0.00  0.00     0.028 C 
ATOM     12  C   LIG d   1       3.492  83.370 110.779  0.00  0.00     0.006 C 
ENDBRANCH   8  11
ENDBRANCH   7   8
ENDBRANCH   1   7
BRANCH   6  13
ATOM     13  N   LIG d   1       2.277  83.634 115.974  0.00  0.00    -0.311 N 
ATOM     14  C   LIG d   1       2.719  82.499 116.513  0.00  0.00     0.210 C 
ATOM     15  C   LIG d   1       1.879  81.966 117.677  0.00  0.00     0.109 C 
ATOM     16  O   LIG d   1       3.746  81.901 116.158  0.00  0.00    -0.276 OA
ATOM     17  H   LIG d   1       1.454  84.068 116.345  0.00  0.00     0.149 HD
ENDBRANCH   6  13
BRANCH   5  18
ATOM     18  N   LIG d   1       5.142  84.694 115.984  0.00  0.00     0.381 N 
ATOM     19  H   LIG d   1       5.687  84.153 115.342  0.00  0.00    -0.090 HD
ATOM     20  H   LIG d   1       4.780  84.076 116.689  0.00  0.00    -0.090 HD
ATOM     21  H   LIG d   1       5.712  85.394 116.406  0.00  0.00    -0.090 HD
ENDBRANCH   5  18
BRANCH   3  22
ATOM     22  C   LIG d   1       3.889  87.695 112.468  0.00  0.00     0.382 C 
ATOM     23  O   LIG d   1       5.030  87.827 111.964  0.00  0.00    -0.241 OA
ATOM     24  O   LIG d   1       3.051  88.607 112.337  0.00  0.00    -0.241 OA
ENDBRANCH   3  22
TORSDOF 7
ENDMDL
MODEL 3
REMARK VINA RESULT:      -5.1      2.329      4.520
REMARK  7 active torsions:
REMARK  status: ('A' for Active; 'I' for Inactive)
REMARK    1  A    between atoms: C_2  and  C_3 
REMARK    2  A    between atoms: C_3  and  O_6 
REMARK    3  A    between atoms: C_3  and  C_4 
REMARK    4  A    between atoms: C_7  and  O_6 
REMARK    5  A    between atoms: C_9  and  C_10 
REMARK    6  A    between atoms: N_15  and  C_14 
REMARK    7  A    between atoms: N_20  and  C_19 
REMARK       I    between atoms: C_22  and  N_20 
ROOT
ATOM      1  C   LIG d   1       2.353  86.322 114.159  0.00  0.00     0.161 C 
ATOM      2  C   LIG d   1       2.963  87.380 113.463  0.00  0.00     0.016 C 
ATOM      3  C   LIG d   1       4.325  87.727 113.613  0.00  0.00     0.038 C 
ATOM      4  C   LIG d   1       5.213  86.940 114.361  0.00  0.00     0.028 C 
ATOM      5  C   LIG d   1       4.534  86.158 115.481  0.00  0.00    -0.047 C 
ATOM      6  C   LIG d   1       3.332  85.383 114.894  0.00  0.00     0.091 C 
ENDROOT
BRANCH   1   7
ATOM      7  O   LIG d   1       1.513  85.568 113.263  0.00  0.00    -0.368 OA
BRANCH   7   8
ATOM      8  C   LIG d   1       1.557  85.958 111.868  0.00  0.00     0.119 C 
BRANCH   8   9
ATOM      9  C   LIG d   1       0.103  86.148 111.394  0.00  0.00     0.028 C 
ATOM     10  C   LIG d   1      -0.182  85.419 110.070  0.00  0.00     0.006 C 
ENDBRANCH   8   9
BRANCH   8  11
ATOM     11  C   LIG d   1       2.126  84.837 110.994  0.00  0.00     0.028 C 
ATOM     12  C   LIG d   1       3.634  84.988 110.736  0.00  0.00     0.006 C 
ENDBRANCH   8  11
ENDBRANCH   7   8
ENDBRANCH   1   7
BRANCH   6  13
ATOM     13  N   LIG d   1       2.561  84.658 115.938  0.00  0.00    -0.311 N 
ATOM     14  C   LIG d   1       2.824  83.406 116.307  0.00  0.00     0.210 C 
ATOM     15  C   LIG d   1       1.895  82.841 117.386  0.00  0.00     0.109 C 
ATOM     16  O   LIG d   1       3.759  82.721 115.866  0.00  0.00    -0.276 OA
ATOM     17  H   LIG d   1       1.804  85.151 116.370  0.00  0.00     0.149 HD
ENDBRANCH   6  13
BRANCH   5  18
ATOM     18  N   LIG d   1       5.549  85.278 116.089  0.00  0.00     0.381 N 
ATOM     19  H   LIG d   1       5.099  84.544 116.599  0.00  0.00    -0.090 HD
ATOM     20  H   LIG d   1       6.102  85.815 116.733  0.00  0.00    -0.090 HD
ATOM     21  H   LIG d   1       6.132  84.890 115.381  0.00  0.00    -0.090 HD
ENDBRANCH   5  18
BRANCH   3  22
ATOM     22  C   LIG d   1       4.803  88.897 113.043  0.00  0.00     0.382 C 
ATOM     23  O   LIG d   1       4.072  89.915 112.995  0.00  0.00    -0.241 OA
ATOM     24  O   LIG d   1       5.940  88.934 112.536  0.00  0.00    -0.241 OA
ENDBRANCH   3  22
TORSDOF 7
ENDMDL
MODEL 4
REMARK VINA RESULT:      -5.0      1.828      4.845
REMARK  7 active torsions:
REMARK  status: ('A' for Active; 'I' for Inactive)
REMARK    1  A    between atoms: C_2  and  C_3 
REMARK    2  A    between atoms: C_3  and  O_6 
REMARK    3  A    between atoms: C_3  and  C_4 
REMARK    4  A    between atoms: C_7  and  O_6 
REMARK    5  A    between atoms: C_9  and  C_10 
REMARK    6  A    between atoms: N_15  and  C_14 
REMARK    7  A    between atoms: N_20  and  C_19 
REMARK       I    between atoms: C_22  and  N_20 
ROOT
ATOM      1  C   LIG d   1       2.239  84.729 113.545  0.00  0.00     0.161 C 
ATOM      2  C   LIG d   1       1.298  83.733 113.235  0.00  0.00     0.016 C 
ATOM      3  C   LIG d   1       0.590  83.684 112.012  0.00  0.00     0.038 C 
ATOM      4  C   LIG d   1       0.887  84.549 110.948  0.00  0.00     0.028 C 
ATOM      5  C   LIG d   1       1.472  85.883 111.398  0.00  0.00    -0.047 C 
ATOM      6  C   LIG d   1       2.658  85.616 112.353  0.00  0.00     0.091 C 
ENDROOT
BRANCH   1   7
ATOM      7  O   LIG d   1       3.399  84.132 114.157  0.00  0.00    -0.368 OA
BRANCH   7   8
ATOM      8  C   LIG d   1       3.736  84.608 115.483  0.00  0.00     0.119 C 
BRANCH   8   9
ATOM      9  C   LIG d   1       5.140  85.238 115.406  0.00  0.00     0.028 C 
ATOM     10  C   LIG d   1       5.231  86.564 116.181  0.00  0.00     0.006 C 
ENDBRANCH   8   9
BRANCH   8  11
ATOM     11  C   LIG d   1       3.866  83.448 116.475  0.00  0.00     0.028 C 
ATOM     12  C   LIG d   1       2.877  82.307 116.190  0.00  0.00     0.006 C 
ENDBRANCH   8  11
ENDBRANCH   7   8
ENDBRANCH   1   7
BRANCH   6  13
ATOM     13  N   LIG d   1       3.234  86.869 112.906  0.00  0.00    -0.311 N 
ATOM     14  C   LIG d   1       4.288  87.488 112.376  0.00  0.00     0.210 C 
ATOM     15  C   LIG d   1       4.733  88.754 113.114  0.00  0.00     0.109 C 
ATOM     16  O   LIG d   1       4.876  87.125 111.346  0.00  0.00    -0.276 OA
ATOM     17  H   LIG d   1       2.799  87.250 113.723  0.00  0.00     0.149 HD
ENDBRANCH   6  13
BRANCH   5  18
ATOM     18  N   LIG d   1       1.863  86.629 110.187  0.00  0.00     0.381 N 
ATOM     19  H   LIG d   1       2.208  85.995 109.495  0.00  0.00    -0.090 HD
ATOM     20  H   LIG d   1       2.600  87.270 110.423  0.00  0.00    -0.090 HD
ATOM     21  H   LIG d   1       1.080  87.130 109.828  0.00  0.00    -0.090 HD
ENDBRANCH   5  18
BRANCH   3  22
ATOM     22  C   LIG d   1      -0.457  82.788 111.859  0.00  0.00     0.382 C 
ATOM     23  O   LIG d   1      -1.490  82.905 112.561  0.00  0.00    -0.241 OA
ATOM     24  O   LIG d   1      -0.363  81.837 111.060  0.00  0.00    -0.241 OA
ENDBRANCH   3  22
TORSDOF 7
ENDMDL
MODEL 5
REMARK VINA RESULT:      -4.9      3.232      5.393
REMARK  7 active torsions:
REMARK  status: ('A' for Active; 'I' for Inactive)
REMARK    1  A    between atoms: C_2  and  C_3 
REMARK    2  A    between atoms: C_3  and  O_6 
REMARK    3  A    between atoms: C_3  and  C_4 
REMARK    4  A    between atoms: C_7  and  O_6 
REMARK    5  A    between atoms: C_9  and  C_10 
REMARK    6  A    between atoms: N_15  and  C_14 
REMARK    7  A    between atoms: N_20  and  C_19 
REMARK       I    between atoms: C_22  and  N_20 
ROOT
ATOM      1  C   LIG d   1       3.439  87.930 115.123  0.00  0.00     0.161 C 
ATOM      2  C   LIG d   1       2.680  87.328 114.106  0.00  0.00     0.016 C 
ATOM      3  C   LIG d   1       3.083  87.293 112.751  0.00  0.00     0.038 C 
ATOM      4  C   LIG d   1       4.354  87.727 112.344  0.00  0.00     0.028 C 
ATOM      5  C   LIG d   1       4.947  88.800 113.252  0.00  0.00    -0.047 C 
ATOM      6  C   LIG d   1       4.878  88.311 114.717  0.00  0.00     0.091 C 
ENDROOT
BRANCH   1   7
ATOM      7  O   LIG d   1       3.455  87.081 116.288  0.00  0.00    -0.368 OA
BRANCH   7   8
ATOM      8  C   LIG d   1       4.246  85.872 116.184  0.00  0.00     0.119 C 
BRANCH   8   9
ATOM      9  C   LIG d   1       3.322  84.685 116.518  0.00  0.00     0.028 C 
ATOM     10  C   LIG d   1       3.023  83.809 115.289  0.00  0.00     0.006 C 
ENDBRANCH   8   9
BRANCH   8  11
ATOM     11  C   LIG d   1       5.351  85.836 117.244  0.00  0.00     0.028 C 
ATOM     12  C   LIG d   1       6.639  85.165 116.739  0.00  0.00     0.006 C 
ENDBRANCH   8  11
ENDBRANCH   7   8
ENDBRANCH   1   7
BRANCH   6  13
ATOM     13  N   LIG d   1       5.361  89.335 115.679  0.00  0.00    -0.311 N 
ATOM     14  C   LIG d   1       6.591  89.338 116.191  0.00  0.00     0.210 C 
ATOM     15  C   LIG d   1       6.876  90.472 117.181  0.00  0.00     0.109 C 
ATOM     16  O   LIG d   1       7.482  88.528 115.896  0.00  0.00    -0.276 OA
ATOM     17  H   LIG d   1       4.712  90.048 115.950  0.00  0.00     0.149 HD
ENDBRANCH   6  13
BRANCH   5  18
ATOM     18  N   LIG d   1       6.324  89.060 112.793  0.00  0.00     0.381 N 
ATOM     19  H   LIG d   1       6.526  90.037 112.865  0.00  0.00    -0.090 HD
ATOM     20  H   LIG d   1       6.401  88.793 111.828  0.00  0.00    -0.090 HD
ATOM     21  H   LIG d   1       6.971  88.539 113.343  0.00  0.00    -0.090 HD
ENDBRANCH   5  18
BRANCH   3  22
ATOM     22  C   LIG d   1       2.195  86.854 111.781  0.00  0.00     0.382 C 
ATOM     23  O   LIG d   1       2.578  86.723 110.593  0.00  0.00    -0.241 OA
ATOM     24  O   LIG d   1       1.004  86.631 112.069  0.00  0.00    -0.241 OA
ENDBRANCH   3  22
TORSDOF 7
ENDMDL
MODEL 6
REMARK VINA RESULT:      -4.9      8.286     10.125
REMARK  7 active torsions:
REMARK  status: ('A' for Active; 'I' for Inactive)
REMARK    1  A    between atoms: C_2  and  C_3 
REMARK    2  A    between atoms: C_3  and  O_6 
REMARK    3  A    between atoms: C_3  and  C_4 
REMARK    4  A    between atoms: C_7  and  O_6 
REMARK    5  A    between atoms: C_9  and  C_10 
REMARK    6  A    between atoms: N_15  and  C_14 
REMARK    7  A    between atoms: N_20  and  C_19 
REMARK       I    between atoms: C_22  and  N_20 
ROOT
ATOM      1  C   LIG d   1      -1.736  78.571 115.456  0.00  0.00     0.161 C 
ATOM      2  C   LIG d   1      -2.302  79.731 114.899  0.00  0.00     0.016 C 
ATOM      3  C   LIG d   1      -2.518  79.902 113.513  0.00  0.00     0.038 C 
ATOM      4  C   LIG d   1      -2.322  78.858 112.597  0.00  0.00     0.028 C 
ATOM      5  C   LIG d   1      -1.278  77.843 113.050  0.00  0.00    -0.047 C 
ATOM      6  C   LIG d   1      -1.619  77.378 114.484  0.00  0.00     0.091 C 
ENDROOT
BRANCH   1   7
ATOM      7  O   LIG d   1      -2.472  78.187 116.635  0.00  0.00    -0.368 OA
BRANCH   7   8
ATOM      8  C   LIG d   1      -3.847  77.784 116.425  0.00  0.00     0.119 C 
BRANCH   8   9
ATOM      9  C   LIG d   1      -4.738  78.729 117.254  0.00  0.00     0.028 C 
ATOM     10  C   LIG d   1      -3.932  79.553 118.272  0.00  0.00     0.006 C 
ENDBRANCH   8   9
BRANCH   8  11
ATOM     11  C   LIG d   1      -4.109  76.383 116.986  0.00  0.00     0.028 C 
ATOM     12  C   LIG d   1      -3.056  75.948 118.017  0.00  0.00     0.006 C 
ENDBRANCH   8  11
ENDBRANCH   7   8
ENDBRANCH   1   7
BRANCH   6  13
ATOM     13  N   LIG d   1      -0.600  76.448 115.036  0.00  0.00    -0.311 N 
ATOM     14  C   LIG d   1      -0.825  75.151 115.239  0.00  0.00     0.210 C 
ATOM     15  C   LIG d   1       0.354  74.375 115.834  0.00  0.00     0.109 C 
ATOM     16  O   LIG d   1      -1.879  74.562 114.951  0.00  0.00    -0.276 OA
ATOM     17  H   LIG d   1       0.294  76.835 115.268  0.00  0.00     0.149 HD
ENDBRANCH   6  13
BRANCH   5  18
ATOM     18  N   LIG d   1      -1.273  76.740 112.071  0.00  0.00     0.381 N 
ATOM     19  H   LIG d   1      -1.813  75.974 112.421  0.00  0.00    -0.090 HD
ATOM     20  H   LIG d   1      -0.328  76.426 111.939  0.00  0.00    -0.090 HD
ATOM     21  H   LIG d   1      -1.651  77.053 111.204  0.00  0.00    -0.090 HD
ENDBRANCH   5  18
BRANCH   3  22
ATOM     22  C   LIG d   1      -2.898  81.143 113.025  0.00  0.00     0.382 C 
ATOM     23  O   LIG d   1      -4.078  81.331 112.642  0.00  0.00    -0.241 OA
ATOM     24  O   LIG d   1      -2.066  82.063 112.921  0.00  0.00    -0.241 OA
ENDBRANCH   3  22
TORSDOF 7
ENDMDL
MODEL 7
REMARK VINA RESULT:      -4.9      9.691     12.406
REMARK  7 active torsions:
REMARK  status: ('A' for Active; 'I' for Inactive)
REMARK    1  A    between atoms: C_2  and  C_3 
REMARK    2  A    between atoms: C_3  and  O_6 
REMARK    3  A    between atoms: C_3  and  C_4 
REMARK    4  A    between atoms: C_7  and  O_6 
REMARK    5  A    between atoms: C_9  and  C_10 
REMARK    6  A    between atoms: N_15  and  C_14 
REMARK    7  A    between atoms: N_20  and  C_19 
REMARK       I    between atoms: C_22  and  N_20 
ROOT
ATOM      1  C   LIG d   1      -2.758  76.439 114.640  0.00  0.00     0.161 C 
ATOM      2  C   LIG d   1      -1.391  76.170 114.818  0.00  0.00     0.016 C 
ATOM      3  C   LIG d   1      -0.903  75.124 115.635  0.00  0.00     0.038 C 
ATOM      4  C   LIG d   1      -1.759  74.174 116.212  0.00  0.00     0.028 C 
ATOM      5  C   LIG d   1      -3.165  74.703 116.471  0.00  0.00    -0.047 C 
ATOM      6  C   LIG d   1      -3.707  75.344 115.172  0.00  0.00     0.091 C 
ENDROOT
BRANCH   1   7
ATOM      7  O   LIG d   1      -3.027  76.701 113.248  0.00  0.00    -0.368 OA
BRANCH   7   8
ATOM      8  C   LIG d   1      -2.267  77.776 112.644  0.00  0.00     0.119 C 
BRANCH   8   9
ATOM      9  C   LIG d   1      -3.036  79.087 112.899  0.00  0.00     0.028 C 
ATOM     10  C   LIG d   1      -2.217  80.097 113.721  0.00  0.00     0.006 C 
ENDBRANCH   8   9
BRANCH   8  11
ATOM     11  C   LIG d   1      -2.209  77.630 111.120  0.00  0.00     0.028 C 
ATOM     12  C   LIG d   1      -0.937  78.240 110.511  0.00  0.00     0.006 C 
ENDBRANCH   8  11
ENDBRANCH   7   8
ENDBRANCH   1   7
BRANCH   6  13
ATOM     13  N   LIG d   1      -5.045  75.962 115.361  0.00  0.00    -0.311 N 
ATOM     14  C   LIG d   1      -6.188  75.293 115.222  0.00  0.00     0.210 C 
ATOM     15  C   LIG d   1      -7.455  76.124 115.441  0.00  0.00     0.109 C 
ATOM     16  O   LIG d   1      -6.271  74.081 114.970  0.00  0.00    -0.276 OA
ATOM     17  H   LIG d   1      -5.069  76.935 115.598  0.00  0.00     0.149 HD
ENDBRANCH   6  13
BRANCH   5  18
ATOM     18  N   LIG d   1      -3.987  73.573 116.944  0.00  0.00     0.381 N 
ATOM     19  H   LIG d   1      -3.394  72.826 117.244  0.00  0.00    -0.090 HD
ATOM     20  H   LIG d   1      -4.552  73.241 116.182  0.00  0.00    -0.090 HD
ATOM     21  H   LIG d   1      -4.570  73.867 117.696  0.00  0.00    -0.090 HD
ENDBRANCH   5  18
BRANCH   3  22
ATOM     22  C   LIG d   1       0.453  75.044 115.913  0.00  0.00     0.382 C 
ATOM     23  O   LIG d   1       0.907  75.549 116.968  0.00  0.00    -0.241 OA
ATOM     24  O   LIG d   1       1.234  74.514 115.101  0.00  0.00    -0.241 OA
ENDBRANCH   3  22
TORSDOF 7
ENDMDL
MODEL 8
REMARK VINA RESULT:      -4.8      1.714      2.265
REMARK  7 active torsions:
REMARK  status: ('A' for Active; 'I' for Inactive)
REMARK    1  A    between atoms: C_2  and  C_3 
REMARK    2  A    between atoms: C_3  and  O_6 
REMARK    3  A    between atoms: C_3  and  C_4 
REMARK    4  A    between atoms: C_7  and  O_6 
REMARK    5  A    between atoms: C_9  and  C_10 
REMARK    6  A    between atoms: N_15  and  C_14 
REMARK    7  A    between atoms: N_20  and  C_19 
REMARK       I    between atoms: C_22  and  N_20 
ROOT
ATOM      1  C   LIG d   1       2.385  85.811 113.843  0.00  0.00     0.161 C 
ATOM      2  C   LIG d   1       3.222  86.934 113.951  0.00  0.00     0.016 C 
ATOM      3  C   LIG d   1       3.481  87.817 112.878  0.00  0.00     0.038 C 
ATOM      4  C   LIG d   1       2.797  87.722 111.657  0.00  0.00     0.028 C 
ATOM      5  C   LIG d   1       2.323  86.308 111.337  0.00  0.00    -0.047 C 
ATOM      6  C   LIG d   1       1.542  85.754 112.551  0.00  0.00     0.091 C 
ENDROOT
BRANCH   1   7
ATOM      7  O   LIG d   1       1.532  85.725 115.002  0.00  0.00    -0.368 OA
BRANCH   7   8
ATOM      8  C   LIG d   1       1.873  84.701 115.969  0.00  0.00     0.119 C 
BRANCH   8   9
ATOM      9  C   LIG d   1       2.206  85.411 117.296  0.00  0.00     0.028 C 
ATOM     10  C   LIG d   1       1.612  86.828 117.369  0.00  0.00     0.006 C 
ENDBRANCH   8   9
BRANCH   8  11
ATOM     11  C   LIG d   1       3.154  83.963 115.571  0.00  0.00     0.028 C 
ATOM     12  C   LIG d   1       3.767  83.164 116.732  0.00  0.00     0.006 C 
ENDBRANCH   8  11
ENDBRANCH   7   8
ENDBRANCH   1   7
BRANCH   6  13
ATOM     13  N   LIG d   1       1.115  84.345 112.355  0.00  0.00    -0.311 N 
ATOM     14  C   LIG d   1      -0.161  83.968 112.285  0.00  0.00     0.210 C 
ATOM     15  C   LIG d   1      -0.382  82.464 112.100  0.00  0.00     0.109 C 
ATOM     16  O   LIG d   1      -1.130  84.742 112.327  0.00  0.00    -0.276 OA
ATOM     17  H   LIG d   1       1.837  83.655 112.280  0.00  0.00     0.149 HD
ENDBRANCH   6  13
BRANCH   5  18
ATOM     18  N   LIG d   1       1.508  86.379 110.110  0.00  0.00     0.381 N 
ATOM     19  H   LIG d   1       0.761  87.032 110.236  0.00  0.00    -0.090 HD
ATOM     20  H   LIG d   1       1.108  85.474 109.932  0.00  0.00    -0.090 HD
ATOM     21  H   LIG d   1       2.075  86.656 109.339  0.00  0.00    -0.090 HD
ENDBRANCH   5  18
BRANCH   3  22
ATOM     22  C   LIG d   1       4.465  88.786 113.008  0.00  0.00     0.382 C 
ATOM     23  O   LIG d   1       5.617  88.574 112.559  0.00  0.00    -0.241 OA
ATOM     24  O   LIG d   1       4.227  89.852 113.606  0.00  0.00    -0.241 OA
ENDBRANCH   3  22
TORSDOF 7
ENDMDL
MODEL 9
REMARK VINA RESULT:      -4.8      2.194      4.687
REMARK  7 active torsions:
REMARK  status: ('A' for Active; 'I' for Inactive)
REMARK    1  A    between atoms: C_2  and  C_3 
REMARK    2  A    between atoms: C_3  and  O_6 
REMARK    3  A    between atoms: C_3  and  C_4 
REMARK    4  A    between atoms: C_7  and  O_6 
REMARK    5  A    between atoms: C_9  and  C_10 
REMARK    6  A    between atoms: N_15  and  C_14 
REMARK    7  A    between atoms: N_20  and  C_19 
REMARK       I    between atoms: C_22  and  N_20 
ROOT
ATOM      1  C   LIG d   1       2.408  86.117 114.124  0.00  0.00     0.161 C 
ATOM      2  C   LIG d   1       1.086  85.686 113.927  0.00  0.00     0.016 C 
ATOM      3  C   LIG d   1       0.617  85.146 112.707  0.00  0.00     0.038 C 
ATOM      4  C   LIG d   1       1.484  84.859 111.642  0.00  0.00     0.028 C 
ATOM      5  C   LIG d   1       2.726  85.742 111.616  0.00  0.00    -0.047 C 
ATOM      6  C   LIG d   1       3.395  85.708 113.010  0.00  0.00     0.091 C 
ENDROOT
BRANCH   1   7
ATOM      7  O   LIG d   1       2.884  85.662 115.406  0.00  0.00    -0.368 OA
BRANCH   7   8
ATOM      8  C   LIG d   1       2.994  86.671 116.440  0.00  0.00     0.119 C 
BRANCH   8   9
ATOM      9  C   LIG d   1       1.909  86.373 117.494  0.00  0.00     0.028 C 
ATOM     10  C   LIG d   1       1.622  84.868 117.631  0.00  0.00     0.006 C 
ENDBRANCH   8   9
BRANCH   8  11
ATOM     11  C   LIG d   1       2.660  88.063 115.897  0.00  0.00     0.028 C 
ATOM     12  C   LIG d   1       1.655  88.822 116.779  0.00  0.00     0.006 C 
ENDBRANCH   8  11
ENDBRANCH   7   8
ENDBRANCH   1   7
BRANCH   6  13
ATOM     13  N   LIG d   1       4.571  86.613 113.097  0.00  0.00    -0.311 N 
ATOM     14  C   LIG d   1       4.522  87.909 112.796  0.00  0.00     0.210 C 
ATOM     15  C   LIG d   1       5.853  88.655 112.935  0.00  0.00     0.109 C 
ATOM     16  O   LIG d   1       3.496  88.519 112.460  0.00  0.00    -0.276 OA
ATOM     17  H   LIG d   1       5.437  86.207 113.392  0.00  0.00     0.149 HD
ENDBRANCH   6  13
BRANCH   5  18
ATOM     18  N   LIG d   1       3.605  85.245 110.541  0.00  0.00     0.381 N 
ATOM     19  H   LIG d   1       3.878  84.302 110.736  0.00  0.00    -0.090 HD
ATOM     20  H   LIG d   1       4.433  85.813 110.509  0.00  0.00    -0.090 HD
ATOM     21  H   LIG d   1       3.131  85.286 109.666  0.00  0.00    -0.090 HD
ENDBRANCH   5  18
BRANCH   3  22
ATOM     22  C   LIG d   1      -0.740  84.925 112.530  0.00  0.00     0.382 C 
ATOM     23  O   LIG d   1      -1.513  85.894 112.335  0.00  0.00    -0.241 OA
ATOM     24  O   LIG d   1      -1.208  83.773 112.606  0.00  0.00    -0.241 OA
ENDBRANCH   3  22
TORSDOF 7
ENDMDL
