MODEL 1
REMARK VINA RESULT:      -5.9      0.000      0.000
REMARK  7 active torsions:
REMARK  status: ('A' for Active; 'I' for Inactive)
REMARK    1  A    between atoms: C_2  and  C_3 
REMARK    2  A    between atoms: C_3  and  O_6 
REMARK    3  A    between atoms: C_3  and  C_4 
REMARK    4  A    between atoms: C_7  and  O_6 
REMARK    5  A    between atoms: C_9  and  C_10 
REMARK    6  A    between atoms: N_15  and  C_14 
REMARK    7  A    between atoms: N_20  and  C_19 
REMARK       I    between atoms: C_22  and  N_20 
ROOT
ATOM      1  C   LIG d   1       0.140  83.610 112.320  0.00  0.00     0.161 C 
ATOM      2  C   LIG d   1      -1.061  83.127 112.865  0.00  0.00     0.016 C 
ATOM      3  C   LIG d   1      -1.494  81.788 112.728  0.00  0.00     0.038 C 
ATOM      4  C   LIG d   1      -0.676  80.798 112.162  0.00  0.00     0.028 C 
ATOM      5  C   LIG d   1       0.326  81.345 111.151  0.00  0.00    -0.047 C 
ATOM      6  C   LIG d   1       1.098  82.520 111.795  0.00  0.00     0.091 C 
ENDROOT
BRANCH   1   7
ATOM      7  O   LIG d   1       0.812  84.446 113.283  0.00  0.00    -0.368 OA
BRANCH   7   8
ATOM      8  C   LIG d   1       0.338  85.811 113.383  0.00  0.00     0.119 C 
BRANCH   8   9
ATOM      9  C   LIG d   1       0.729  86.534 112.080  0.00  0.00     0.028 C 
ATOM     10  C   LIG d   1      -0.487  87.129 111.351  0.00  0.00     0.006 C 
ENDBRANCH   8   9
BRANCH   8  11
ATOM     11  C   LIG d   1       1.059  86.571 114.500  0.00  0.00     0.028 C 
ATOM     12  C   LIG d   1       0.111  87.449 115.332  0.00  0.00     0.006 C 
ENDBRANCH   8  11
ENDBRANCH   7   8
ENDBRANCH   1   7
BRANCH   6  13
ATOM     13  N   LIG d   1       2.040  83.167 110.845  0.00  0.00    -0.311 N 
ATOM     14  C   LIG d   1       3.264  83.566 111.184  0.00  0.00     0.210 C 
ATOM     15  C   LIG d   1       4.064  84.229 110.058  0.00  0.00     0.109 C 
ATOM     16  O   LIG d   1       3.776  83.405 112.302  0.00  0.00    -0.276 OA
ATOM     17  H   LIG d   1       1.717  83.309 109.908  0.00  0.00     0.149 HD
ENDBRANCH   6  13
BRANCH   5  18
ATOM     18  N   LIG d   1       1.203  80.231 110.744  0.00  0.00     0.381 N 
ATOM     19  H   LIG d   1       0.966  79.408 111.261  0.00  0.00    -0.090 HD
ATOM     20  H   LIG d   1       2.155  80.473 110.955  0.00  0.00    -0.090 HD
ATOM     21  H   LIG d   1       1.104  80.058 109.768  0.00  0.00    -0.090 HD
ENDBRANCH   5  18
BRANCH   3  22
ATOM     22  C   LIG d   1      -2.775  81.436 113.125  0.00  0.00     0.382 C 
ATOM     23  O   LIG d   1      -2.938  80.591 114.038  0.00  0.00    -0.241 OA
ATOM     24  O   LIG d   1      -3.769  81.919 112.551  0.00  0.00    -0.241 OA
ENDBRANCH   3  22
TORSDOF 7
ENDMDL
MODEL 2
REMARK VINA RESULT:      -5.2      3.315      6.715
REMARK  7 active torsions:
REMARK  status: ('A' for Active; 'I' for Inactive)
REMARK    1  A    between atoms: C_2  and  C_3 
REMARK    2  A    between atoms: C_3  and  O_6 
REMARK    3  A    between atoms: C_3  and  C_4 
REMARK    4  A    between atoms: C_7  and  O_6 
REMARK    5  A    between atoms: C_9  and  C_10 
REMARK    6  A    between atoms: N_15  and  C_14 
REMARK    7  A    between atoms: N_20  and  C_19 
REMARK       I    between atoms: C_22  and  N_20 
ROOT
ATOM      1  C   LIG d   1       2.819  86.041 112.279  0.00  0.00     0.161 C 
ATOM      2  C   LIG d   1       3.394  87.320 112.181  0.00  0.00     0.016 C 
ATOM      3  C   LIG d   1       3.549  88.190 113.284  0.00  0.00     0.038 C 
ATOM      4  C   LIG d   1       3.277  87.778 114.597  0.00  0.00     0.028 C 
ATOM      5  C   LIG d   1       2.224  86.678 114.681  0.00  0.00    -0.047 C 
ATOM      6  C   LIG d   1       2.618  85.532 113.721  0.00  0.00     0.091 C 
ENDROOT
BRANCH   1   7
ATOM      7  O   LIG d   1       3.597  85.097 111.517  0.00  0.00    -0.368 OA
BRANCH   7   8
ATOM      8  C   LIG d   1       3.064  84.729 110.221  0.00  0.00     0.119 C 
BRANCH   8   9
ATOM      9  C   LIG d   1       1.599  85.205 110.172  0.00  0.00     0.028 C 
ATOM     10  C   LIG d   1       0.603  84.034 110.116  0.00  0.00     0.006 C 
ENDBRANCH   8   9
BRANCH   8  11
ATOM     11  C   LIG d   1       3.002  83.208 110.055  0.00  0.00     0.028 C 
ATOM     12  C   LIG d   1       4.392  82.552 110.055  0.00  0.00     0.006 C 
ENDBRANCH   8  11
ENDBRANCH   7   8
ENDBRANCH   1   7
BRANCH   6  13
ATOM     13  N   LIG d   1       1.598  84.452 113.679  0.00  0.00    -0.311 N 
ATOM     14  C   LIG d   1       1.873  83.174 113.933  0.00  0.00     0.210 C 
ATOM     15  C   LIG d   1       0.680  82.220 113.814  0.00  0.00     0.109 C 
ATOM     16  O   LIG d   1       2.984  82.744 114.277  0.00  0.00    -0.276 OA
ATOM     17  H   LIG d   1       0.663  84.717 113.439  0.00  0.00     0.149 HD
ENDBRANCH   6  13
BRANCH   5  18
ATOM     18  N   LIG d   1       2.139  86.249 116.090  0.00  0.00     0.381 N 
ATOM     19  H   LIG d   1       2.708  85.438 116.232  0.00  0.00    -0.090 HD
ATOM     20  H   LIG d   1       1.186  86.006 116.298  0.00  0.00    -0.090 HD
ATOM     21  H   LIG d   1       2.441  86.985 116.689  0.00  0.00    -0.090 HD
ENDBRANCH   5  18
BRANCH   3  22
ATOM     22  C   LIG d   1       3.945  89.502 113.074  0.00  0.00     0.382 C 
ATOM     23  O   LIG d   1       5.162  89.777 112.944  0.00  0.00    -0.241 OA
ATOM     24  O   LIG d   1       3.103  90.420 113.058  0.00  0.00    -0.241 OA
ENDBRANCH   3  22
TORSDOF 7
ENDMDL
MODEL 3
REMARK VINA RESULT:      -5.1      4.715      7.633
REMARK  7 active torsions:
REMARK  status: ('A' for Active; 'I' for Inactive)
REMARK    1  A    between atoms: C_2  and  C_3 
REMARK    2  A    between atoms: C_3  and  O_6 
REMARK    3  A    between atoms: C_3  and  C_4 
REMARK    4  A    between atoms: C_7  and  O_6 
REMARK    5  A    between atoms: C_9  and  C_10 
REMARK    6  A    between atoms: N_15  and  C_14 
REMARK    7  A    between atoms: N_20  and  C_19 
REMARK       I    between atoms: C_22  and  N_20 
ROOT
ATOM      1  C   LIG d   1       2.940  87.268 115.713  0.00  0.00     0.161 C 
ATOM      2  C   LIG d   1       2.522  88.537 115.278  0.00  0.00     0.016 C 
ATOM      3  C   LIG d   1       3.398  89.637 115.130  0.00  0.00     0.038 C 
ATOM      4  C   LIG d   1       4.787  89.501 115.264  0.00  0.00     0.028 C 
ATOM      5  C   LIG d   1       5.198  88.364 116.193  0.00  0.00    -0.047 C 
ATOM      6  C   LIG d   1       4.470  87.072 115.757  0.00  0.00     0.091 C 
ENDROOT
BRANCH   1   7
ATOM      7  O   LIG d   1       2.327  86.247 114.902  0.00  0.00    -0.368 OA
BRANCH   7   8
ATOM      8  C   LIG d   1       2.000  86.623 113.542  0.00  0.00     0.119 C 
BRANCH   8   9
ATOM      9  C   LIG d   1       0.612  86.037 113.220  0.00  0.00     0.028 C 
ATOM     10  C   LIG d   1      -0.527  86.819 113.895  0.00  0.00     0.006 C 
ENDBRANCH   8   9
BRANCH   8  11
ATOM     11  C   LIG d   1       2.958  85.974 112.538  0.00  0.00     0.028 C 
ATOM     12  C   LIG d   1       4.003  86.958 111.989  0.00  0.00     0.006 C 
ENDBRANCH   8  11
ENDBRANCH   7   8
ENDBRANCH   1   7
BRANCH   6  13
ATOM     13  N   LIG d   1       4.751  85.929 116.665  0.00  0.00    -0.311 N 
ATOM     14  C   LIG d   1       5.017  84.698 116.232  0.00  0.00     0.210 C 
ATOM     15  C   LIG d   1       5.258  83.663 117.336  0.00  0.00     0.109 C 
ATOM     16  O   LIG d   1       5.109  84.371 115.039  0.00  0.00    -0.276 OA
ATOM     17  H   LIG d   1       4.728  86.112 117.649  0.00  0.00     0.149 HD
ENDBRANCH   6  13
BRANCH   5  18
ATOM     18  N   LIG d   1       6.667  88.248 116.133  0.00  0.00     0.381 N 
ATOM     19  H   LIG d   1       7.008  88.686 115.301  0.00  0.00    -0.090 HD
ATOM     20  H   LIG d   1       6.916  87.275 116.101  0.00  0.00    -0.090 HD
ATOM     21  H   LIG d   1       7.077  88.676 116.934  0.00  0.00    -0.090 HD
ENDBRANCH   5  18
BRANCH   3  22
ATOM     22  C   LIG d   1       2.880  90.899 114.884  0.00  0.00     0.382 C 
ATOM     23  O   LIG d   1       2.640  91.676 115.840  0.00  0.00    -0.241 OA
ATOM     24  O   LIG d   1       2.608  91.255 113.722  0.00  0.00    -0.241 OA
ENDBRANCH   3  22
TORSDOF 7
ENDMDL
MODEL 4
REMARK VINA RESULT:      -4.9      3.855      6.550
REMARK  7 active torsions:
REMARK  status: ('A' for Active; 'I' for Inactive)
REMARK    1  A    between atoms: C_2  and  C_3 
REMARK    2  A    between atoms: C_3  and  O_6 
REMARK    3  A    between atoms: C_3  and  C_4 
REMARK    4  A    between atoms: C_7  and  O_6 
REMARK    5  A    between atoms: C_9  and  C_10 
REMARK    6  A    between atoms: N_15  and  C_14 
REMARK    7  A    between atoms: N_20  and  C_19 
REMARK       I    between atoms: C_22  and  N_20 
ROOT
ATOM      1  C   LIG d   1       1.563  86.585 114.395  0.00  0.00     0.161 C 
ATOM      2  C   LIG d   1       1.686  87.983 114.470  0.00  0.00     0.016 C 
ATOM      3  C   LIG d   1       2.658  88.637 115.262  0.00  0.00     0.038 C 
ATOM      4  C   LIG d   1       3.676  87.931 115.919  0.00  0.00     0.028 C 
ATOM      5  C   LIG d   1       3.287  86.501 116.279  0.00  0.00    -0.047 C 
ATOM      6  C   LIG d   1       2.735  85.798 115.018  0.00  0.00     0.091 C 
ENDROOT
BRANCH   1   7
ATOM      7  O   LIG d   1       1.363  86.185 113.025  0.00  0.00    -0.368 OA
BRANCH   7   8
ATOM      8  C   LIG d   1       1.917  87.065 112.017  0.00  0.00     0.119 C 
BRANCH   8   9
ATOM      9  C   LIG d   1       0.968  87.034 110.803  0.00  0.00     0.028 C 
ATOM     10  C   LIG d   1      -0.511  87.142 111.212  0.00  0.00     0.006 C 
ENDBRANCH   8   9
BRANCH   8  11
ATOM     11  C   LIG d   1       3.258  86.540 111.496  0.00  0.00     0.028 C 
ATOM     12  C   LIG d   1       4.461  87.306 112.070  0.00  0.00     0.006 C 
ENDBRANCH   8  11
ENDBRANCH   7   8
ENDBRANCH   1   7
BRANCH   6  13
ATOM     13  N   LIG d   1       2.253  84.422 115.302  0.00  0.00    -0.311 N 
ATOM     14  C   LIG d   1       2.558  83.368 114.547  0.00  0.00     0.210 C 
ATOM     15  C   LIG d   1       1.940  82.043 115.005  0.00  0.00     0.109 C 
ATOM     16  O   LIG d   1       3.309  83.398 113.560  0.00  0.00    -0.276 OA
ATOM     17  H   LIG d   1       1.663  84.301 116.102  0.00  0.00     0.149 HD
ENDBRANCH   6  13
BRANCH   5  18
ATOM     18  N   LIG d   1       4.483  85.840 116.833  0.00  0.00     0.381 N 
ATOM     19  H   LIG d   1       4.255  85.397 117.701  0.00  0.00    -0.090 HD
ATOM     20  H   LIG d   1       5.187  86.535 117.010  0.00  0.00    -0.090 HD
ATOM     21  H   LIG d   1       4.829  85.164 116.188  0.00  0.00    -0.090 HD
ENDBRANCH   5  18
BRANCH   3  22
ATOM     22  C   LIG d   1       2.592  90.011 115.434  0.00  0.00     0.382 C 
ATOM     23  O   LIG d   1       3.635  90.663 115.682  0.00  0.00    -0.241 OA
ATOM     24  O   LIG d   1       1.496  90.602 115.387  0.00  0.00    -0.241 OA
ENDBRANCH   3  22
TORSDOF 7
ENDMDL
MODEL 5
REMARK VINA RESULT:      -4.7     22.825     25.236
REMARK  7 active torsions:
REMARK  status: ('A' for Active; 'I' for Inactive)
REMARK    1  A    between atoms: C_2  and  C_3 
REMARK    2  A    between atoms: C_3  and  O_6 
REMARK    3  A    between atoms: C_3  and  C_4 
REMARK    4  A    between atoms: C_7  and  O_6 
REMARK    5  A    between atoms: C_9  and  C_10 
REMARK    6  A    between atoms: N_15  and  C_14 
REMARK    7  A    between atoms: N_20  and  C_19 
REMARK       I    between atoms: C_22  and  N_20 
ROOT
ATOM      1  C   LIG d   1     -23.718  83.788 114.729  0.00  0.00     0.161 C 
ATOM      2  C   LIG d   1     -22.736  84.791 114.776  0.00  0.00     0.016 C 
ATOM      3  C   LIG d   1     -22.869  86.042 114.130  0.00  0.00     0.038 C 
ATOM      4  C   LIG d   1     -24.067  86.434 113.514  0.00  0.00     0.028 C 
ATOM      5  C   LIG d   1     -24.900  85.261 113.008  0.00  0.00    -0.047 C 
ATOM      6  C   LIG d   1     -25.077  84.240 114.155  0.00  0.00     0.091 C 
ENDROOT
BRANCH   1   7
ATOM      7  O   LIG d   1     -23.894  83.214 116.039  0.00  0.00    -0.368 OA
BRANCH   7   8
ATOM      8  C   LIG d   1     -23.242  81.940 116.270  0.00  0.00     0.119 C 
BRANCH   8   9
ATOM      9  C   LIG d   1     -24.345  80.896 116.531  0.00  0.00     0.028 C 
ATOM     10  C   LIG d   1     -24.601  79.996 115.311  0.00  0.00     0.006 C 
ENDBRANCH   8   9
BRANCH   8  11
ATOM     11  C   LIG d   1     -22.400  81.969 117.549  0.00  0.00     0.028 C 
ATOM     12  C   LIG d   1     -22.241  83.384 118.126  0.00  0.00     0.006 C 
ENDBRANCH   8  11
ENDBRANCH   7   8
ENDBRANCH   1   7
BRANCH   6  13
ATOM     13  N   LIG d   1     -25.810  83.021 113.721  0.00  0.00    -0.311 N 
ATOM     14  C   LIG d   1     -27.123  82.863 113.873  0.00  0.00     0.210 C 
ATOM     15  C   LIG d   1     -27.675  81.523 113.375  0.00  0.00     0.109 C 
ATOM     16  O   LIG d   1     -27.889  83.717 114.343  0.00  0.00    -0.276 OA
ATOM     17  H   LIG d   1     -25.270  82.290 113.301  0.00  0.00     0.149 HD
ENDBRANCH   6  13
BRANCH   5  18
ATOM     18  N   LIG d   1     -26.180  85.804 112.515  0.00  0.00     0.381 N 
ATOM     19  H   LIG d   1     -26.475  85.293 111.706  0.00  0.00    -0.090 HD
ATOM     20  H   LIG d   1     -26.046  86.764 112.250  0.00  0.00    -0.090 HD
ATOM     21  H   LIG d   1     -26.874  85.742 113.227  0.00  0.00    -0.090 HD
ENDBRANCH   5  18
BRANCH   3  22
ATOM     22  C   LIG d   1     -21.782  86.899 114.062  0.00  0.00     0.382 C 
ATOM     23  O   LIG d   1     -21.818  88.005 114.653  0.00  0.00    -0.241 OA
ATOM     24  O   LIG d   1     -20.784  86.601 113.380  0.00  0.00    -0.241 OA
ENDBRANCH   3  22
TORSDOF 7
ENDMDL
MODEL 6
REMARK VINA RESULT:      -4.5     23.397     26.176
REMARK  7 active torsions:
REMARK  status: ('A' for Active; 'I' for Inactive)
REMARK    1  A    between atoms: C_2  and  C_3 
REMARK    2  A    between atoms: C_3  and  O_6 
REMARK    3  A    between atoms: C_3  and  C_4 
REMARK    4  A    between atoms: C_7  and  O_6 
REMARK    5  A    between atoms: C_9  and  C_10 
REMARK    6  A    between atoms: N_15  and  C_14 
REMARK    7  A    between atoms: N_20  and  C_19 
REMARK       I    between atoms: C_22  and  N_20 
ROOT
ATOM      1  C   LIG d   1     -25.384  85.937 113.607  0.00  0.00     0.161 C 
ATOM      2  C   LIG d   1     -24.191  86.681 113.610  0.00  0.00     0.016 C 
ATOM      3  C   LIG d   1     -22.919  86.108 113.837  0.00  0.00     0.038 C 
ATOM      4  C   LIG d   1     -22.735  84.720 113.926  0.00  0.00     0.028 C 
ATOM      5  C   LIG d   1     -23.967  83.977 114.432  0.00  0.00    -0.047 C 
ATOM      6  C   LIG d   1     -25.191  84.407 113.591  0.00  0.00     0.091 C 
ENDROOT
BRANCH   1   7
ATOM      7  O   LIG d   1     -26.213  86.349 112.502  0.00  0.00    -0.368 OA
BRANCH   7   8
ATOM      8  C   LIG d   1     -27.012  87.539 112.714  0.00  0.00     0.119 C 
BRANCH   8   9
ATOM      9  C   LIG d   1     -28.493  87.116 112.660  0.00  0.00     0.028 C 
ATOM     10  C   LIG d   1     -28.751  86.011 111.622  0.00  0.00     0.006 C 
ENDBRANCH   8   9
BRANCH   8  11
ATOM     11  C   LIG d   1     -26.835  88.541 111.569  0.00  0.00     0.028 C 
ATOM     12  C   LIG d   1     -26.694  89.990 112.062  0.00  0.00     0.006 C 
ENDBRANCH   8  11
ENDBRANCH   7   8
ENDBRANCH   1   7
BRANCH   6  13
ATOM     13  N   LIG d   1     -26.455  83.790 114.074  0.00  0.00    -0.311 N 
ATOM     14  C   LIG d   1     -27.232  83.021 113.314  0.00  0.00     0.210 C 
ATOM     15  C   LIG d   1     -28.499  82.503 114.002  0.00  0.00     0.109 C 
ATOM     16  O   LIG d   1     -26.977  82.693 112.146  0.00  0.00    -0.276 OA
ATOM     17  H   LIG d   1     -26.722  83.979 115.021  0.00  0.00     0.149 HD
ENDBRANCH   6  13
BRANCH   5  18
ATOM     18  N   LIG d   1     -23.683  82.533 114.344  0.00  0.00     0.381 N 
ATOM     19  H   LIG d   1     -24.298  82.106 113.680  0.00  0.00    -0.090 HD
ATOM     20  H   LIG d   1     -23.850  82.114 115.242  0.00  0.00    -0.090 HD
ATOM     21  H   LIG d   1     -22.736  82.387 114.072  0.00  0.00    -0.090 HD
ENDBRANCH   5  18
BRANCH   3  22
ATOM     22  C   LIG d   1     -21.817  86.931 114.017  0.00  0.00     0.382 C 
ATOM     23  O   LIG d   1     -21.914  87.962 114.726  0.00  0.00    -0.241 OA
ATOM     24  O   LIG d   1     -20.740  86.680 113.444  0.00  0.00    -0.241 OA
ENDBRANCH   3  22
TORSDOF 7
ENDMDL
MODEL 7
REMARK VINA RESULT:      -4.5     28.461     31.080
REMARK  7 active torsions:
REMARK  status: ('A' for Active; 'I' for Inactive)
REMARK    1  A    between atoms: C_2  and  C_3 
REMARK    2  A    between atoms: C_3  and  O_6 
REMARK    3  A    between atoms: C_3  and  C_4 
REMARK    4  A    between atoms: C_7  and  O_6 
REMARK    5  A    between atoms: C_9  and  C_10 
REMARK    6  A    between atoms: N_15  and  C_14 
REMARK    7  A    between atoms: N_20  and  C_19 
REMARK       I    between atoms: C_22  and  N_20 
ROOT
ATOM      1  C   LIG d   1     -13.332  56.098 114.980  0.00  0.00     0.161 C 
ATOM      2  C   LIG d   1     -14.626  55.961 115.509  0.00  0.00     0.016 C 
ATOM      3  C   LIG d   1     -14.884  55.633 116.860  0.00  0.00     0.038 C 
ATOM      4  C   LIG d   1     -13.859  55.569 117.816  0.00  0.00     0.028 C 
ATOM      5  C   LIG d   1     -12.502  55.203 117.225  0.00  0.00    -0.047 C 
ATOM      6  C   LIG d   1     -12.205  56.140 116.032  0.00  0.00     0.091 C 
ENDROOT
BRANCH   1   7
ATOM      7  O   LIG d   1     -13.271  57.263 114.133  0.00  0.00    -0.368 OA
BRANCH   7   8
ATOM      8  C   LIG d   1     -13.542  57.043 112.727  0.00  0.00     0.119 C 
BRANCH   8   9
ATOM      9  C   LIG d   1     -13.118  55.599 112.394  0.00  0.00     0.028 C 
ATOM     10  C   LIG d   1     -12.994  55.359 110.880  0.00  0.00     0.006 C 
ENDBRANCH   8   9
BRANCH   8  11
ATOM     11  C   LIG d   1     -12.665  57.937 111.844  0.00  0.00     0.028 C 
ATOM     12  C   LIG d   1     -11.379  58.393 112.551  0.00  0.00     0.006 C 
ENDBRANCH   8  11
ENDBRANCH   7   8
ENDBRANCH   1   7
BRANCH   6  13
ATOM     13  N   LIG d   1     -10.933  55.796 115.344  0.00  0.00    -0.311 N 
ATOM     14  C   LIG d   1     -10.644  54.571 114.909  0.00  0.00     0.210 C 
ATOM     15  C   LIG d   1      -9.271  54.428 114.244  0.00  0.00     0.109 C 
ATOM     16  O   LIG d   1     -11.407  53.596 114.981  0.00  0.00    -0.276 OA
ATOM     17  H   LIG d   1     -10.270  56.534 115.215  0.00  0.00     0.149 HD
ENDBRANCH   6  13
BRANCH   5  18
ATOM     18  N   LIG d   1     -11.503  55.306 118.305  0.00  0.00     0.381 N 
ATOM     19  H   LIG d   1     -10.708  55.822 117.983  0.00  0.00    -0.090 HD
ATOM     20  H   LIG d   1     -11.199  54.382 118.556  0.00  0.00    -0.090 HD
ATOM     21  H   LIG d   1     -11.903  55.758 119.097  0.00  0.00    -0.090 HD
ENDBRANCH   5  18
BRANCH   3  22
ATOM     22  C   LIG d   1     -16.177  55.327 117.258  0.00  0.00     0.382 C 
ATOM     23  O   LIG d   1     -17.095  56.168 117.105  0.00  0.00    -0.241 OA
ATOM     24  O   LIG d   1     -16.427  54.239 117.809  0.00  0.00    -0.241 OA
ENDBRANCH   3  22
TORSDOF 7
ENDMDL
MODEL 8
REMARK VINA RESULT:      -4.5     10.710     14.093
REMARK  7 active torsions:
REMARK  status: ('A' for Active; 'I' for Inactive)
REMARK    1  A    between atoms: C_2  and  C_3 
REMARK    2  A    between atoms: C_3  and  O_6 
REMARK    3  A    between atoms: C_3  and  C_4 
REMARK    4  A    between atoms: C_7  and  O_6 
REMARK    5  A    between atoms: C_9  and  C_10 
REMARK    6  A    between atoms: N_15  and  C_14 
REMARK    7  A    between atoms: N_20  and  C_19 
REMARK       I    between atoms: C_22  and  N_20 
ROOT
ATOM      1  C   LIG d   1      11.839  79.647 113.720  0.00  0.00     0.161 C 
ATOM      2  C   LIG d   1      13.047  80.360 113.639  0.00  0.00     0.016 C 
ATOM      3  C   LIG d   1      13.561  81.143 114.699  0.00  0.00     0.038 C 
ATOM      4  C   LIG d   1      12.973  81.145 115.972  0.00  0.00     0.028 C 
ATOM      5  C   LIG d   1      11.479  80.842 115.950  0.00  0.00    -0.047 C 
ATOM      6  C   LIG d   1      11.241  79.548 115.139  0.00  0.00     0.091 C 
ENDROOT
BRANCH   1   7
ATOM      7  O   LIG d   1      12.009  78.333 113.155  0.00  0.00    -0.368 OA
BRANCH   7   8
ATOM      8  C   LIG d   1      13.376  77.901 112.944  0.00  0.00     0.119 C 
BRANCH   8   9
ATOM      9  C   LIG d   1      13.506  77.480 111.467  0.00  0.00     0.028 C 
ATOM     10  C   LIG d   1      12.385  78.062 110.590  0.00  0.00     0.006 C 
ENDBRANCH   8   9
BRANCH   8  11
ATOM     11  C   LIG d   1      13.693  76.641 113.754  0.00  0.00     0.028 C 
ATOM     12  C   LIG d   1      12.443  76.008 114.386  0.00  0.00     0.006 C 
ENDBRANCH   8  11
ENDBRANCH   7   8
ENDBRANCH   1   7
BRANCH   6  13
ATOM     13  N   LIG d   1       9.797  79.225 114.997  0.00  0.00    -0.311 N 
ATOM     14  C   LIG d   1       9.135  78.438 115.844  0.00  0.00     0.210 C 
ATOM     15  C   LIG d   1       7.657  78.220 115.502  0.00  0.00     0.109 C 
ATOM     16  O   LIG d   1       9.623  77.927 116.863  0.00  0.00    -0.276 OA
ATOM     17  H   LIG d   1       9.315  79.624 114.215  0.00  0.00     0.149 HD
ENDBRANCH   6  13
BRANCH   5  18
ATOM     18  N   LIG d   1      11.024  80.739 117.350  0.00  0.00     0.381 N 
ATOM     19  H   LIG d   1      10.168  81.244 117.466  0.00  0.00    -0.090 HD
ATOM     20  H   LIG d   1      11.718  81.152 117.948  0.00  0.00    -0.090 HD
ATOM     21  H   LIG d   1      10.890  79.783 117.596  0.00  0.00    -0.090 HD
ENDBRANCH   5  18
BRANCH   3  22
ATOM     22  C   LIG d   1      14.653  81.968 114.476  0.00  0.00     0.382 C 
ATOM     23  O   LIG d   1      15.816  81.510 114.585  0.00  0.00    -0.241 OA
ATOM     24  O   LIG d   1      14.491  83.174 114.211  0.00  0.00    -0.241 OA
ENDBRANCH   3  22
TORSDOF 7
ENDMDL
MODEL 9
REMARK VINA RESULT:      -4.4     30.166     31.692
REMARK  7 active torsions:
REMARK  status: ('A' for Active; 'I' for Inactive)
REMARK    1  A    between atoms: C_2  and  C_3 
REMARK    2  A    between atoms: C_3  and  O_6 
REMARK    3  A    between atoms: C_3  and  C_4 
REMARK    4  A    between atoms: C_7  and  O_6 
REMARK    5  A    between atoms: C_9  and  C_10 
REMARK    6  A    between atoms: N_15  and  C_14 
REMARK    7  A    between atoms: N_20  and  C_19 
REMARK       I    between atoms: C_22  and  N_20 
ROOT
ATOM      1  C   LIG d   1     -13.893  54.450 113.870  0.00  0.00     0.161 C 
ATOM      2  C   LIG d   1     -12.777  54.317 114.713  0.00  0.00     0.016 C 
ATOM      3  C   LIG d   1     -11.534  54.942 114.464  0.00  0.00     0.038 C 
ATOM      4  C   LIG d   1     -11.366  55.872 113.427  0.00  0.00     0.028 C 
ATOM      5  C   LIG d   1     -12.317  55.650 112.256  0.00  0.00    -0.047 C 
ATOM      6  C   LIG d   1     -13.763  55.549 112.795  0.00  0.00     0.091 C 
ENDROOT
BRANCH   1   7
ATOM      7  O   LIG d   1     -15.080  54.661 114.660  0.00  0.00    -0.368 OA
BRANCH   7   8
ATOM      8  C   LIG d   1     -15.149  55.913 115.385  0.00  0.00     0.119 C 
BRANCH   8   9
ATOM      9  C   LIG d   1     -15.437  55.579 116.861  0.00  0.00     0.028 C 
ATOM     10  C   LIG d   1     -14.169  55.620 117.731  0.00  0.00     0.006 C 
ENDBRANCH   8   9
BRANCH   8  11
ATOM     11  C   LIG d   1     -16.339  56.760 114.922  0.00  0.00     0.028 C 
ATOM     12  C   LIG d   1     -17.409  55.935 114.191  0.00  0.00     0.006 C 
ENDBRANCH   8  11
ENDBRANCH   7   8
ENDBRANCH   1   7
BRANCH   6  13
ATOM     13  N   LIG d   1     -14.747  55.249 111.723  0.00  0.00    -0.311 N 
ATOM     14  C   LIG d   1     -15.484  56.181 111.121  0.00  0.00     0.210 C 
ATOM     15  C   LIG d   1     -16.452  55.654 110.057  0.00  0.00     0.109 C 
ATOM     16  O   LIG d   1     -15.404  57.398 111.345  0.00  0.00    -0.276 OA
ATOM     17  H   LIG d   1     -14.854  54.289 111.457  0.00  0.00     0.149 HD
ENDBRANCH   6  13
BRANCH   5  18
ATOM     18  N   LIG d   1     -12.129  56.768 111.312  0.00  0.00     0.381 N 
ATOM     19  H   LIG d   1     -11.195  57.118 111.383  0.00  0.00    -0.090 HD
ATOM     20  H   LIG d   1     -12.763  57.509 111.555  0.00  0.00    -0.090 HD
ATOM     21  H   LIG d   1     -12.306  56.462 110.380  0.00  0.00    -0.090 HD
ENDBRANCH   5  18
BRANCH   3  22
ATOM     22  C   LIG d   1     -10.430  54.608 115.234  0.00  0.00     0.382 C 
ATOM     23  O   LIG d   1      -9.283  54.631 114.728  0.00  0.00    -0.241 OA
ATOM     24  O   LIG d   1     -10.572  54.242 116.416  0.00  0.00    -0.241 OA
ENDBRANCH   3  22
TORSDOF 7
ENDMDL
