MODEL 1
REMARK VINA RESULT:      -5.7      0.000      0.000
REMARK  7 active torsions:
REMARK  status: ('A' for Active; 'I' for Inactive)
REMARK    1  A    between atoms: C_2  and  C_3 
REMARK    2  A    between atoms: C_3  and  O_6 
REMARK    3  A    between atoms: C_3  and  C_4 
REMARK    4  A    between atoms: C_7  and  O_6 
REMARK    5  A    between atoms: C_9  and  C_10 
REMARK    6  A    between atoms: N_15  and  C_14 
REMARK    7  A    between atoms: N_20  and  C_19 
REMARK       I    between atoms: C_22  and  N_20 
ROOT
ATOM      1  C   LIG d   1      -0.382  84.109 113.237  0.00  0.00     0.161 C 
ATOM      2  C   LIG d   1       0.347  85.243 112.843  0.00  0.00     0.016 C 
ATOM      3  C   LIG d   1       1.052  85.328 111.620  0.00  0.00     0.038 C 
ATOM      4  C   LIG d   1       0.951  84.335 110.635  0.00  0.00     0.028 C 
ATOM      5  C   LIG d   1       0.635  82.953 111.198  0.00  0.00    -0.047 C 
ATOM      6  C   LIG d   1      -0.596  83.059 112.127  0.00  0.00     0.091 C 
ENDROOT
BRANCH   1   7
ATOM      7  O   LIG d   1      -1.648  84.512 113.796  0.00  0.00    -0.368 OA
BRANCH   7   8
ATOM      8  C   LIG d   1      -1.779  84.388 115.233  0.00  0.00     0.119 C 
BRANCH   8   9
ATOM      9  C   LIG d   1      -0.495  83.716 115.759  0.00  0.00     0.028 C 
ATOM     10  C   LIG d   1       0.287  84.621 116.725  0.00  0.00     0.006 C 
ENDBRANCH   8   9
BRANCH   8  11
ATOM     11  C   LIG d   1      -2.918  83.435 115.609  0.00  0.00     0.028 C 
ATOM     12  C   LIG d   1      -2.449  82.261 116.484  0.00  0.00     0.006 C 
ENDBRANCH   8  11
ENDBRANCH   7   8
ENDBRANCH   1   7
BRANCH   6  13
ATOM     13  N   LIG d   1      -0.921  81.767 112.786  0.00  0.00    -0.311 N 
ATOM     14  C   LIG d   1      -2.151  81.258 112.834  0.00  0.00     0.210 C 
ATOM     15  C   LIG d   1      -2.270  79.925 113.580  0.00  0.00     0.109 C 
ATOM     16  O   LIG d   1      -3.149  81.768 112.303  0.00  0.00    -0.276 OA
ATOM     17  H   LIG d   1      -0.165  81.271 113.216  0.00  0.00     0.149 HD
ENDBRANCH   6  13
BRANCH   5  18
ATOM     18  N   LIG d   1       0.422  82.045 110.056  0.00  0.00     0.381 N 
ATOM     19  H   LIG d   1       1.044  81.265 110.122  0.00  0.00    -0.090 HD
ATOM     20  H   LIG d   1       0.625  82.539 109.205  0.00  0.00    -0.090 HD
ATOM     21  H   LIG d   1      -0.522  81.726 110.046  0.00  0.00    -0.090 HD
ENDBRANCH   5  18
BRANCH   3  22
ATOM     22  C   LIG d   1       1.902  86.400 111.390  0.00  0.00     0.382 C 
ATOM     23  O   LIG d   1       2.869  86.275 110.601  0.00  0.00    -0.241 OA
ATOM     24  O   LIG d   1       1.740  87.476 111.996  0.00  0.00    -0.241 OA
ENDBRANCH   3  22
TORSDOF 7
ENDMDL
MODEL 2
REMARK VINA RESULT:      -5.5      3.493      7.181
REMARK  7 active torsions:
REMARK  status: ('A' for Active; 'I' for Inactive)
REMARK    1  A    between atoms: C_2  and  C_3 
REMARK    2  A    between atoms: C_3  and  O_6 
REMARK    3  A    between atoms: C_3  and  C_4 
REMARK    4  A    between atoms: C_7  and  O_6 
REMARK    5  A    between atoms: C_9  and  C_10 
REMARK    6  A    between atoms: N_15  and  C_14 
REMARK    7  A    between atoms: N_20  and  C_19 
REMARK       I    between atoms: C_22  and  N_20 
ROOT
ATOM      1  C   LIG d   1       2.042  86.348 113.309  0.00  0.00     0.161 C 
ATOM      2  C   LIG d   1       0.950  85.596 113.774  0.00  0.00     0.016 C 
ATOM      3  C   LIG d   1       0.530  85.586 115.124  0.00  0.00     0.038 C 
ATOM      4  C   LIG d   1       1.085  86.450 116.080  0.00  0.00     0.028 C 
ATOM      5  C   LIG d   1       2.521  86.857 115.767  0.00  0.00    -0.047 C 
ATOM      6  C   LIG d   1       2.589  87.383 114.315  0.00  0.00     0.091 C 
ENDROOT
BRANCH   1   7
ATOM      7  O   LIG d   1       1.698  86.992 112.066  0.00  0.00    -0.368 OA
BRANCH   7   8
ATOM      8  C   LIG d   1       2.288  86.425 110.871  0.00  0.00     0.119 C 
BRANCH   8   9
ATOM      9  C   LIG d   1       1.367  85.284 110.396  0.00  0.00     0.028 C 
ATOM     10  C   LIG d   1      -0.077  85.757 110.157  0.00  0.00     0.006 C 
ENDBRANCH   8   9
BRANCH   8  11
ATOM     11  C   LIG d   1       3.633  85.759 111.175  0.00  0.00     0.028 C 
ATOM     12  C   LIG d   1       3.823  84.429 110.429  0.00  0.00     0.006 C 
ENDBRANCH   8  11
ENDBRANCH   7   8
ENDBRANCH   1   7
BRANCH   6  13
ATOM     13  N   LIG d   1       3.975  87.724 113.900  0.00  0.00    -0.311 N 
ATOM     14  C   LIG d   1       4.341  88.939 113.496  0.00  0.00     0.210 C 
ATOM     15  C   LIG d   1       5.813  89.070 113.094  0.00  0.00     0.109 C 
ATOM     16  O   LIG d   1       3.594  89.928 113.463  0.00  0.00    -0.276 OA
ATOM     17  H   LIG d   1       4.653  86.987 113.926  0.00  0.00     0.149 HD
ENDBRANCH   6  13
BRANCH   5  18
ATOM     18  N   LIG d   1       2.926  87.864 116.766  0.00  0.00     0.381 N 
ATOM     19  H   LIG d   1       2.803  87.495 117.688  0.00  0.00    -0.090 HD
ATOM     20  H   LIG d   1       2.339  88.673 116.669  0.00  0.00    -0.090 HD
ATOM     21  H   LIG d   1       3.880  88.117 116.627  0.00  0.00    -0.090 HD
ENDBRANCH   5  18
BRANCH   3  22
ATOM     22  C   LIG d   1      -0.429  84.674 115.538  0.00  0.00     0.382 C 
ATOM     23  O   LIG d   1      -1.248  84.206 114.711  0.00  0.00    -0.241 OA
ATOM     24  O   LIG d   1      -0.513  84.347 116.737  0.00  0.00    -0.241 OA
ENDBRANCH   3  22
TORSDOF 7
ENDMDL
MODEL 3
REMARK VINA RESULT:      -5.3      2.358      6.058
REMARK  7 active torsions:
REMARK  status: ('A' for Active; 'I' for Inactive)
REMARK    1  A    between atoms: C_2  and  C_3 
REMARK    2  A    between atoms: C_3  and  O_6 
REMARK    3  A    between atoms: C_3  and  C_4 
REMARK    4  A    between atoms: C_7  and  O_6 
REMARK    5  A    between atoms: C_9  and  C_10 
REMARK    6  A    between atoms: N_15  and  C_14 
REMARK    7  A    between atoms: N_20  and  C_19 
REMARK       I    between atoms: C_22  and  N_20 
ROOT
ATOM      1  C   LIG d   1       1.345  83.446 112.748  0.00  0.00     0.161 C 
ATOM      2  C   LIG d   1       0.296  82.627 112.299  0.00  0.00     0.016 C 
ATOM      3  C   LIG d   1      -0.956  82.539 112.949  0.00  0.00     0.038 C 
ATOM      4  C   LIG d   1      -1.299  83.386 114.014  0.00  0.00     0.028 C 
ATOM      5  C   LIG d   1      -0.096  83.869 114.815  0.00  0.00    -0.047 C 
ATOM      6  C   LIG d   1       0.951  84.459 113.843  0.00  0.00     0.091 C 
ENDROOT
BRANCH   1   7
ATOM      7  O   LIG d   1       1.947  84.127 111.629  0.00  0.00    -0.368 OA
BRANCH   7   8
ATOM      8  C   LIG d   1       1.540  85.502 111.425  0.00  0.00     0.119 C 
BRANCH   8   9
ATOM      9  C   LIG d   1       0.838  85.578 110.055  0.00  0.00     0.028 C 
ATOM     10  C   LIG d   1      -0.692  85.674 110.184  0.00  0.00     0.006 C 
ENDBRANCH   8   9
BRANCH   8  11
ATOM     11  C   LIG d   1       2.752  86.431 111.312  0.00  0.00     0.028 C 
ATOM     12  C   LIG d   1       4.085  85.669 111.261  0.00  0.00     0.006 C 
ENDBRANCH   8  11
ENDBRANCH   7   8
ENDBRANCH   1   7
BRANCH   6  13
ATOM     13  N   LIG d   1       2.196  84.879 114.537  0.00  0.00    -0.311 N 
ATOM     14  C   LIG d   1       2.425  86.128 114.940  0.00  0.00     0.210 C 
ATOM     15  C   LIG d   1       3.781  86.350 115.617  0.00  0.00     0.109 C 
ATOM     16  O   LIG d   1       1.621  87.065 114.831  0.00  0.00    -0.276 OA
ATOM     17  H   LIG d   1       2.890  84.175 114.694  0.00  0.00     0.149 HD
ENDBRANCH   6  13
BRANCH   5  18
ATOM     18  N   LIG d   1      -0.583  84.849 115.804  0.00  0.00     0.381 N 
ATOM     19  H   LIG d   1      -1.215  84.403 116.440  0.00  0.00    -0.090 HD
ATOM     20  H   LIG d   1      -1.081  85.577 115.323  0.00  0.00    -0.090 HD
ATOM     21  H   LIG d   1       0.185  85.238 116.306  0.00  0.00    -0.090 HD
ENDBRANCH   5  18
BRANCH   3  22
ATOM     22  C   LIG d   1      -1.866  81.569 112.559  0.00  0.00     0.382 C 
ATOM     23  O   LIG d   1      -1.460  80.494 112.056  0.00  0.00    -0.241 OA
ATOM     24  O   LIG d   1      -3.091  81.772 112.664  0.00  0.00    -0.241 OA
ENDBRANCH   3  22
TORSDOF 7
ENDMDL
MODEL 4
REMARK VINA RESULT:      -5.2      3.718      4.810
REMARK  7 active torsions:
REMARK  status: ('A' for Active; 'I' for Inactive)
REMARK    1  A    between atoms: C_2  and  C_3 
REMARK    2  A    between atoms: C_3  and  O_6 
REMARK    3  A    between atoms: C_3  and  C_4 
REMARK    4  A    between atoms: C_7  and  O_6 
REMARK    5  A    between atoms: C_9  and  C_10 
REMARK    6  A    between atoms: N_15  and  C_14 
REMARK    7  A    between atoms: N_20  and  C_19 
REMARK       I    between atoms: C_22  and  N_20 
ROOT
ATOM      1  C   LIG d   1       4.040  85.168 112.867  0.00  0.00     0.161 C 
ATOM      2  C   LIG d   1       3.922  86.447 113.436  0.00  0.00     0.016 C 
ATOM      3  C   LIG d   1       3.052  87.444 112.937  0.00  0.00     0.038 C 
ATOM      4  C   LIG d   1       2.124  87.176 111.919  0.00  0.00     0.028 C 
ATOM      5  C   LIG d   1       2.560  86.055 110.982  0.00  0.00    -0.047 C 
ATOM      6  C   LIG d   1       2.955  84.821 111.825  0.00  0.00     0.091 C 
ENDROOT
BRANCH   1   7
ATOM      7  O   LIG d   1       4.072  84.171 113.907  0.00  0.00    -0.368 OA
BRANCH   7   8
ATOM      8  C   LIG d   1       3.936  84.661 115.264  0.00  0.00     0.119 C 
BRANCH   8   9
ATOM      9  C   LIG d   1       5.173  84.189 116.053  0.00  0.00     0.028 C 
ATOM     10  C   LIG d   1       6.102  85.352 116.438  0.00  0.00     0.006 C 
ENDBRANCH   8   9
BRANCH   8  11
ATOM     11  C   LIG d   1       2.737  84.021 115.970  0.00  0.00     0.028 C 
ATOM     12  C   LIG d   1       1.441  84.117 115.148  0.00  0.00     0.006 C 
ENDBRANCH   8  11
ENDBRANCH   7   8
ENDBRANCH   1   7
BRANCH   6  13
ATOM     13  N   LIG d   1       3.473  83.706 110.990  0.00  0.00    -0.311 N 
ATOM     14  C   LIG d   1       2.931  82.490 110.972  0.00  0.00     0.210 C 
ATOM     15  C   LIG d   1       3.633  81.482 110.057  0.00  0.00     0.109 C 
ATOM     16  O   LIG d   1       1.916  82.159 111.603  0.00  0.00    -0.276 OA
ATOM     17  H   LIG d   1       4.276  83.896 110.423  0.00  0.00     0.149 HD
ENDBRANCH   6  13
BRANCH   5  18
ATOM     18  N   LIG d   1       1.442  85.789 110.057  0.00  0.00     0.381 N 
ATOM     19  H   LIG d   1       1.055  86.654 109.735  0.00  0.00    -0.090 HD
ATOM     20  H   LIG d   1       0.725  85.286 110.549  0.00  0.00    -0.090 HD
ATOM     21  H   LIG d   1       1.762  85.251 109.281  0.00  0.00    -0.090 HD
ENDBRANCH   5  18
BRANCH   3  22
ATOM     22  C   LIG d   1       3.134  88.737 113.431  0.00  0.00     0.382 C 
ATOM     23  O   LIG d   1       2.256  89.163 114.219  0.00  0.00    -0.241 OA
ATOM     24  O   LIG d   1       4.050  89.496 113.064  0.00  0.00    -0.241 OA
ENDBRANCH   3  22
TORSDOF 7
ENDMDL
MODEL 5
REMARK VINA RESULT:      -5.2      2.071      2.645
REMARK  7 active torsions:
REMARK  status: ('A' for Active; 'I' for Inactive)
REMARK    1  A    between atoms: C_2  and  C_3 
REMARK    2  A    between atoms: C_3  and  O_6 
REMARK    3  A    between atoms: C_3  and  C_4 
REMARK    4  A    between atoms: C_7  and  O_6 
REMARK    5  A    between atoms: C_9  and  C_10 
REMARK    6  A    between atoms: N_15  and  C_14 
REMARK    7  A    between atoms: N_20  and  C_19 
REMARK       I    between atoms: C_22  and  N_20 
ROOT
ATOM      1  C   LIG d   1       1.320  85.472 113.352  0.00  0.00     0.161 C 
ATOM      2  C   LIG d   1       2.075  86.656 113.419  0.00  0.00     0.016 C 
ATOM      3  C   LIG d   1       3.124  86.961 112.522  0.00  0.00     0.038 C 
ATOM      4  C   LIG d   1       3.392  86.168 111.397  0.00  0.00     0.028 C 
ATOM      5  C   LIG d   1       2.990  84.708 111.576  0.00  0.00    -0.047 C 
ATOM      6  C   LIG d   1       1.525  84.647 112.065  0.00  0.00     0.091 C 
ENDROOT
BRANCH   1   7
ATOM      7  O   LIG d   1      -0.077  85.772 113.538  0.00  0.00    -0.368 OA
BRANCH   7   8
ATOM      8  C   LIG d   1      -0.594  85.597 114.880  0.00  0.00     0.119 C 
BRANCH   8   9
ATOM      9  C   LIG d   1       0.284  84.541 115.580  0.00  0.00     0.028 C 
ATOM     10  C   LIG d   1       0.716  84.978 116.990  0.00  0.00     0.006 C 
ENDBRANCH   8   9
BRANCH   8  11
ATOM     11  C   LIG d   1      -2.005  85.003 114.861  0.00  0.00     0.028 C 
ATOM     12  C   LIG d   1      -2.006  83.467 114.898  0.00  0.00     0.006 C 
ENDBRANCH   8  11
ENDBRANCH   7   8
ENDBRANCH   1   7
BRANCH   6  13
ATOM     13  N   LIG d   1       1.079  83.257 112.346  0.00  0.00    -0.311 N 
ATOM     14  C   LIG d   1      -0.007  82.712 111.800  0.00  0.00     0.210 C 
ATOM     15  C   LIG d   1      -0.299  81.274 112.240  0.00  0.00     0.109 C 
ATOM     16  O   LIG d   1      -0.737  83.271 110.968  0.00  0.00    -0.276 OA
ATOM     17  H   LIG d   1       1.631  82.721 112.986  0.00  0.00     0.149 HD
ENDBRANCH   6  13
BRANCH   5  18
ATOM     18  N   LIG d   1       3.197  84.027 110.284  0.00  0.00     0.381 N 
ATOM     19  H   LIG d   1       3.817  83.251 110.405  0.00  0.00    -0.090 HD
ATOM     20  H   LIG d   1       3.622  84.672 109.641  0.00  0.00    -0.090 HD
ATOM     21  H   LIG d   1       2.325  83.711 109.921  0.00  0.00    -0.090 HD
ENDBRANCH   5  18
BRANCH   3  22
ATOM     22  C   LIG d   1       3.944  88.052 112.770  0.00  0.00     0.382 C 
ATOM     23  O   LIG d   1       3.452  89.119 113.210  0.00  0.00    -0.241 OA
ATOM     24  O   LIG d   1       5.162  87.996 112.517  0.00  0.00    -0.241 OA
ENDBRANCH   3  22
TORSDOF 7
ENDMDL
MODEL 6
REMARK VINA RESULT:      -5.0      3.694      5.917
REMARK  7 active torsions:
REMARK  status: ('A' for Active; 'I' for Inactive)
REMARK    1  A    between atoms: C_2  and  C_3 
REMARK    2  A    between atoms: C_3  and  O_6 
REMARK    3  A    between atoms: C_3  and  C_4 
REMARK    4  A    between atoms: C_7  and  O_6 
REMARK    5  A    between atoms: C_9  and  C_10 
REMARK    6  A    between atoms: N_15  and  C_14 
REMARK    7  A    between atoms: N_20  and  C_19 
REMARK       I    between atoms: C_22  and  N_20 
ROOT
ATOM      1  C   LIG d   1       2.608  87.678 113.124  0.00  0.00     0.161 C 
ATOM      2  C   LIG d   1       3.838  88.352 113.196  0.00  0.00     0.016 C 
ATOM      3  C   LIG d   1       4.821  88.077 114.175  0.00  0.00     0.038 C 
ATOM      4  C   LIG d   1       4.702  86.997 115.062  0.00  0.00     0.028 C 
ATOM      5  C   LIG d   1       3.256  86.610 115.353  0.00  0.00    -0.047 C 
ATOM      6  C   LIG d   1       2.507  86.421 114.014  0.00  0.00     0.091 C 
ENDROOT
BRANCH   1   7
ATOM      7  O   LIG d   1       2.312  87.345 111.753  0.00  0.00    -0.368 OA
BRANCH   7   8
ATOM      8  C   LIG d   1       2.398  85.942 111.405  0.00  0.00     0.119 C 
BRANCH   8   9
ATOM      9  C   LIG d   1       3.812  85.689 110.847  0.00  0.00     0.028 C 
ATOM     10  C   LIG d   1       4.113  84.192 110.666  0.00  0.00     0.006 C 
ENDBRANCH   8   9
BRANCH   8  11
ATOM     11  C   LIG d   1       1.442  85.592 110.261  0.00  0.00     0.028 C 
ATOM     12  C   LIG d   1      -0.036  85.775 110.642  0.00  0.00     0.006 C 
ENDBRANCH   8  11
ENDBRANCH   7   8
ENDBRANCH   1   7
BRANCH   6  13
ATOM     13  N   LIG d   1       1.064  86.123 114.209  0.00  0.00    -0.311 N 
ATOM     14  C   LIG d   1       0.572  84.886 114.264  0.00  0.00     0.210 C 
ATOM     15  C   LIG d   1      -0.946  84.802 114.450  0.00  0.00     0.109 C 
ATOM     16  O   LIG d   1       1.253  83.851 114.208  0.00  0.00    -0.276 OA
ATOM     17  H   LIG d   1       0.445  86.904 114.295  0.00  0.00     0.149 HD
ENDBRANCH   6  13
BRANCH   5  18
ATOM     18  N   LIG d   1       3.280  85.388 116.179  0.00  0.00     0.381 N 
ATOM     19  H   LIG d   1       2.571  84.755 115.868  0.00  0.00    -0.090 HD
ATOM     20  H   LIG d   1       3.085  85.636 117.133  0.00  0.00    -0.090 HD
ATOM     21  H   LIG d   1       4.174  84.952 116.118  0.00  0.00    -0.090 HD
ENDBRANCH   5  18
BRANCH   3  22
ATOM     22  C   LIG d   1       5.920  88.913 114.298  0.00  0.00     0.382 C 
ATOM     23  O   LIG d   1       6.412  89.139 115.430  0.00  0.00    -0.241 OA
ATOM     24  O   LIG d   1       6.399  89.480 113.297  0.00  0.00    -0.241 OA
ENDBRANCH   3  22
TORSDOF 7
ENDMDL
MODEL 7
REMARK VINA RESULT:      -5.0      2.200      4.972
REMARK  7 active torsions:
REMARK  status: ('A' for Active; 'I' for Inactive)
REMARK    1  A    between atoms: C_2  and  C_3 
REMARK    2  A    between atoms: C_3  and  O_6 
REMARK    3  A    between atoms: C_3  and  C_4 
REMARK    4  A    between atoms: C_7  and  O_6 
REMARK    5  A    between atoms: C_9  and  C_10 
REMARK    6  A    between atoms: N_15  and  C_14 
REMARK    7  A    between atoms: N_20  and  C_19 
REMARK       I    between atoms: C_22  and  N_20 
ROOT
ATOM      1  C   LIG d   1       0.054  83.585 112.257  0.00  0.00     0.161 C 
ATOM      2  C   LIG d   1      -1.086  82.868 112.657  0.00  0.00     0.016 C 
ATOM      3  C   LIG d   1      -1.217  81.469 112.504  0.00  0.00     0.038 C 
ATOM      4  C   LIG d   1      -0.149  80.666 112.077  0.00  0.00     0.028 C 
ATOM      5  C   LIG d   1       0.846  81.404 111.188  0.00  0.00    -0.047 C 
ATOM      6  C   LIG d   1       1.273  82.712 111.892  0.00  0.00     0.091 C 
ENDROOT
BRANCH   1   7
ATOM      7  O   LIG d   1       0.410  84.542 113.275  0.00  0.00    -0.368 OA
BRANCH   7   8
ATOM      8  C   LIG d   1       0.101  84.167 114.639  0.00  0.00     0.119 C 
BRANCH   8   9
ATOM      9  C   LIG d   1      -0.585  85.374 115.307  0.00  0.00     0.028 C 
ATOM     10  C   LIG d   1      -1.843  85.829 114.548  0.00  0.00     0.006 C 
ENDBRANCH   8   9
BRANCH   8  11
ATOM     11  C   LIG d   1       1.375  83.923 115.453  0.00  0.00     0.028 C 
ATOM     12  C   LIG d   1       1.105  83.801 116.961  0.00  0.00     0.006 C 
ENDBRANCH   8  11
ENDBRANCH   7   8
ENDBRANCH   1   7
BRANCH   6  13
ATOM     13  N   LIG d   1       2.181  83.537 111.053  0.00  0.00    -0.311 N 
ATOM     14  C   LIG d   1       3.288  84.112 111.519  0.00  0.00     0.210 C 
ATOM     15  C   LIG d   1       4.071  84.936 110.491  0.00  0.00     0.109 C 
ATOM     16  O   LIG d   1       3.714  83.993 112.678  0.00  0.00    -0.276 OA
ATOM     17  H   LIG d   1       1.929  83.660 110.092  0.00  0.00     0.149 HD
ENDBRANCH   6  13
BRANCH   5  18
ATOM     18  N   LIG d   1       1.975  80.491 110.930  0.00  0.00     0.381 N 
ATOM     19  H   LIG d   1       1.709  79.806 110.251  0.00  0.00    -0.090 HD
ATOM     20  H   LIG d   1       2.210  80.015 111.783  0.00  0.00    -0.090 HD
ATOM     21  H   LIG d   1       2.762  81.007 110.601  0.00  0.00    -0.090 HD
ENDBRANCH   5  18
BRANCH   3  22
ATOM     22  C   LIG d   1      -2.442  80.863 112.743  0.00  0.00     0.382 C 
ATOM     23  O   LIG d   1      -3.502  81.428 112.380  0.00  0.00    -0.241 OA
ATOM     24  O   LIG d   1      -2.503  79.781 113.356  0.00  0.00    -0.241 OA
ENDBRANCH   3  22
TORSDOF 7
ENDMDL
MODEL 8
REMARK VINA RESULT:      -4.9      2.191      5.003
REMARK  7 active torsions:
REMARK  status: ('A' for Active; 'I' for Inactive)
REMARK    1  A    between atoms: C_2  and  C_3 
REMARK    2  A    between atoms: C_3  and  O_6 
REMARK    3  A    between atoms: C_3  and  C_4 
REMARK    4  A    between atoms: C_7  and  O_6 
REMARK    5  A    between atoms: C_9  and  C_10 
REMARK    6  A    between atoms: N_15  and  C_14 
REMARK    7  A    between atoms: N_20  and  C_19 
REMARK       I    between atoms: C_22  and  N_20 
ROOT
ATOM      1  C   LIG d   1       0.526  84.226 113.687  0.00  0.00     0.161 C 
ATOM      2  C   LIG d   1      -0.619  83.456 113.952  0.00  0.00     0.016 C 
ATOM      3  C   LIG d   1      -1.106  82.458 113.077  0.00  0.00     0.038 C 
ATOM      4  C   LIG d   1      -0.389  82.055 111.940  0.00  0.00     0.028 C 
ATOM      5  C   LIG d   1       0.506  83.150 111.369  0.00  0.00    -0.047 C 
ATOM      6  C   LIG d   1       1.383  83.725 112.505  0.00  0.00     0.091 C 
ENDROOT
BRANCH   1   7
ATOM      7  O   LIG d   1       1.330  84.333 114.878  0.00  0.00    -0.368 OA
BRANCH   7   8
ATOM      8  C   LIG d   1       1.411  85.651 115.476  0.00  0.00     0.119 C 
BRANCH   8   9
ATOM      9  C   LIG d   1       2.854  86.157 115.287  0.00  0.00     0.028 C 
ATOM     10  C   LIG d   1       3.886  85.017 115.330  0.00  0.00     0.006 C 
ENDBRANCH   8   9
BRANCH   8  11
ATOM     11  C   LIG d   1       1.197  85.589 116.991  0.00  0.00     0.028 C 
ATOM     12  C   LIG d   1       0.284  84.428 117.418  0.00  0.00     0.006 C 
ENDBRANCH   8  11
ENDBRANCH   7   8
ENDBRANCH   1   7
BRANCH   6  13
ATOM     13  N   LIG d   1       2.229  84.859 112.050  0.00  0.00    -0.311 N 
ATOM     14  C   LIG d   1       3.483  84.714 111.628  0.00  0.00     0.210 C 
ATOM     15  C   LIG d   1       4.184  86.015 111.223  0.00  0.00     0.109 C 
ATOM     16  O   LIG d   1       4.072  83.628 111.520  0.00  0.00    -0.276 OA
ATOM     17  H   LIG d   1       1.819  85.772 112.075  0.00  0.00     0.149 HD
ENDBRANCH   6  13
BRANCH   5  18
ATOM     18  N   LIG d   1       1.295  82.554 110.275  0.00  0.00     0.381 N 
ATOM     19  H   LIG d   1       1.507  83.252 109.590  0.00  0.00    -0.090 HD
ATOM     20  H   LIG d   1       0.749  81.835 109.834  0.00  0.00    -0.090 HD
ATOM     21  H   LIG d   1       2.139  82.166 110.635  0.00  0.00    -0.090 HD
ENDBRANCH   5  18
BRANCH   3  22
ATOM     22  C   LIG d   1      -2.343  81.879 113.315  0.00  0.00     0.382 C 
ATOM     23  O   LIG d   1      -2.695  81.614 114.490  0.00  0.00    -0.241 OA
ATOM     24  O   LIG d   1      -3.093  81.578 112.367  0.00  0.00    -0.241 OA
ENDBRANCH   3  22
TORSDOF 7
ENDMDL
MODEL 9
REMARK VINA RESULT:      -4.8      2.522      3.682
REMARK  7 active torsions:
REMARK  status: ('A' for Active; 'I' for Inactive)
REMARK    1  A    between atoms: C_2  and  C_3 
REMARK    2  A    between atoms: C_3  and  O_6 
REMARK    3  A    between atoms: C_3  and  C_4 
REMARK    4  A    between atoms: C_7  and  O_6 
REMARK    5  A    between atoms: C_9  and  C_10 
REMARK    6  A    between atoms: N_15  and  C_14 
REMARK    7  A    between atoms: N_20  and  C_19 
REMARK       I    between atoms: C_22  and  N_20 
ROOT
ATOM      1  C   LIG d   1       1.661  85.844 114.437  0.00  0.00     0.161 C 
ATOM      2  C   LIG d   1       2.377  87.024 114.701  0.00  0.00     0.016 C 
ATOM      3  C   LIG d   1       2.842  87.895 113.689  0.00  0.00     0.038 C 
ATOM      4  C   LIG d   1       2.491  87.722 112.342  0.00  0.00     0.028 C 
ATOM      5  C   LIG d   1       2.196  86.271 111.975  0.00  0.00    -0.047 C 
ATOM      6  C   LIG d   1       1.172  85.697 112.980  0.00  0.00     0.091 C 
ENDROOT
BRANCH   1   7
ATOM      7  O   LIG d   1       0.553  85.730 115.351  0.00  0.00    -0.368 OA
BRANCH   7   8
ATOM      8  C   LIG d   1       0.536  84.547 116.187  0.00  0.00     0.119 C 
BRANCH   8   9
ATOM      9  C   LIG d   1      -0.814  83.839 115.960  0.00  0.00     0.028 C 
ATOM     10  C   LIG d   1      -1.803  84.704 115.160  0.00  0.00     0.006 C 
ENDBRANCH   8   9
BRANCH   8  11
ATOM     11  C   LIG d   1       0.556  84.914 117.673  0.00  0.00     0.028 C 
ATOM     12  C   LIG d   1       1.890  85.537 118.115  0.00  0.00     0.006 C 
ENDBRANCH   8  11
ENDBRANCH   7   8
ENDBRANCH   1   7
BRANCH   6  13
ATOM     13  N   LIG d   1       0.892  84.257 112.744  0.00  0.00    -0.311 N 
ATOM     14  C   LIG d   1      -0.154  83.819 112.044  0.00  0.00     0.210 C 
ATOM     15  C   LIG d   1      -0.268  82.295 111.938  0.00  0.00     0.109 C 
ATOM     16  O   LIG d   1      -0.979  84.548 111.475  0.00  0.00    -0.276 OA
ATOM     17  H   LIG d   1       1.529  83.596 113.144  0.00  0.00     0.149 HD
ENDBRANCH   6  13
BRANCH   5  18
ATOM     18  N   LIG d   1       1.710  86.254 110.582  0.00  0.00     0.381 N 
ATOM     19  H   LIG d   1       1.213  87.100 110.386  0.00  0.00    -0.090 HD
ATOM     20  H   LIG d   1       1.077  85.482 110.468  0.00  0.00    -0.090 HD
ATOM     21  H   LIG d   1       2.478  86.159 109.954  0.00  0.00    -0.090 HD
ENDBRANCH   5  18
BRANCH   3  22
ATOM     22  C   LIG d   1       3.703  88.931 114.017  0.00  0.00     0.382 C 
ATOM     23  O   LIG d   1       4.373  88.879 115.076  0.00  0.00    -0.241 OA
ATOM     24  O   LIG d   1       3.785  89.939 113.288  0.00  0.00    -0.241 OA
ENDBRANCH   3  22
TORSDOF 7
ENDMDL
