MODEL 1
REMARK VINA RESULT:      -5.7      0.000      0.000
REMARK  7 active torsions:
REMARK  status: ('A' for Active; 'I' for Inactive)
REMARK    1  A    between atoms: C_2  and  C_3 
REMARK    2  A    between atoms: C_3  and  O_6 
REMARK    3  A    between atoms: C_3  and  C_4 
REMARK    4  A    between atoms: C_7  and  O_6 
REMARK    5  A    between atoms: C_9  and  C_10 
REMARK    6  A    between atoms: N_15  and  C_14 
REMARK    7  A    between atoms: N_20  and  C_19 
REMARK       I    between atoms: C_22  and  N_20 
ROOT
ATOM      1  C   LIG d   1       2.704  86.385 112.357  0.00  0.00     0.161 C 
ATOM      2  C   LIG d   1       3.624  87.444 112.272  0.00  0.00     0.016 C 
ATOM      3  C   LIG d   1       4.297  87.981 113.394  0.00  0.00     0.038 C 
ATOM      4  C   LIG d   1       4.209  87.392 114.664  0.00  0.00     0.028 C 
ATOM      5  C   LIG d   1       2.904  86.637 114.892  0.00  0.00    -0.047 C 
ATOM      6  C   LIG d   1       2.679  85.657 113.717  0.00  0.00     0.091 C 
ENDROOT
BRANCH   1   7
ATOM      7  O   LIG d   1       2.941  85.446 111.290  0.00  0.00    -0.368 OA
BRANCH   7   8
ATOM      8  C   LIG d   1       1.937  85.399 110.246  0.00  0.00     0.119 C 
BRANCH   8   9
ATOM      9  C   LIG d   1       0.882  86.475 110.571  0.00  0.00     0.028 C 
ATOM     10  C   LIG d   1      -0.556  85.957 110.399  0.00  0.00     0.006 C 
ENDBRANCH   8   9
BRANCH   8  11
ATOM     11  C   LIG d   1       1.178  84.069 110.262  0.00  0.00     0.028 C 
ATOM     12  C   LIG d   1       2.013  82.914 110.837  0.00  0.00     0.006 C 
ENDBRANCH   8  11
ENDBRANCH   7   8
ENDBRANCH   1   7
BRANCH   6  13
ATOM     13  N   LIG d   1       1.382  84.939 113.818  0.00  0.00    -0.311 N 
ATOM     14  C   LIG d   1       1.246  83.751 114.407  0.00  0.00     0.210 C 
ATOM     15  C   LIG d   1      -0.174  83.178 114.384  0.00  0.00     0.109 C 
ATOM     16  O   LIG d   1       2.160  83.134 114.973  0.00  0.00    -0.276 OA
ATOM     17  H   LIG d   1       0.582  85.383 113.413  0.00  0.00     0.149 HD
ENDBRANCH   6  13
BRANCH   5  18
ATOM     18  N   LIG d   1       3.003  85.959 116.198  0.00  0.00     0.381 N 
ATOM     19  H   LIG d   1       3.154  86.635 116.920  0.00  0.00    -0.090 HD
ATOM     20  H   LIG d   1       3.791  85.335 116.182  0.00  0.00    -0.090 HD
ATOM     21  H   LIG d   1       2.169  85.447 116.381  0.00  0.00    -0.090 HD
ENDBRANCH   5  18
BRANCH   3  22
ATOM     22  C   LIG d   1       5.039  89.145 113.258  0.00  0.00     0.382 C 
ATOM     23  O   LIG d   1       4.574  90.236 113.667  0.00  0.00    -0.241 OA
ATOM     24  O   LIG d   1       6.147  89.125 112.690  0.00  0.00    -0.241 OA
ENDBRANCH   3  22
TORSDOF 7
ENDMDL
MODEL 2
REMARK VINA RESULT:      -5.4      3.993      6.560
REMARK  7 active torsions:
REMARK  status: ('A' for Active; 'I' for Inactive)
REMARK    1  A    between atoms: C_2  and  C_3 
REMARK    2  A    between atoms: C_3  and  O_6 
REMARK    3  A    between atoms: C_3  and  C_4 
REMARK    4  A    between atoms: C_7  and  O_6 
REMARK    5  A    between atoms: C_9  and  C_10 
REMARK    6  A    between atoms: N_15  and  C_14 
REMARK    7  A    between atoms: N_20  and  C_19 
REMARK       I    between atoms: C_22  and  N_20 
ROOT
ATOM      1  C   LIG d   1      -1.113  82.863 113.838  0.00  0.00     0.161 C 
ATOM      2  C   LIG d   1      -0.723  84.210 113.749  0.00  0.00     0.016 C 
ATOM      3  C   LIG d   1      -0.263  84.809 112.553  0.00  0.00     0.038 C 
ATOM      4  C   LIG d   1      -0.305  84.136 111.323  0.00  0.00     0.028 C 
ATOM      5  C   LIG d   1      -0.215  82.620 111.458  0.00  0.00    -0.047 C 
ATOM      6  C   LIG d   1      -1.271  82.144 112.482  0.00  0.00     0.091 C 
ENDROOT
BRANCH   1   7
ATOM      7  O   LIG d   1      -2.328  82.756 114.606  0.00  0.00    -0.368 OA
BRANCH   7   8
ATOM      8  C   LIG d   1      -2.185  82.253 115.957  0.00  0.00     0.119 C 
BRANCH   8   9
ATOM      9  C   LIG d   1      -0.750  81.709 116.100  0.00  0.00     0.028 C 
ATOM     10  C   LIG d   1      -0.047  82.232 117.363  0.00  0.00     0.006 C 
ENDBRANCH   8   9
BRANCH   8  11
ATOM     11  C   LIG d   1      -3.101  81.050 116.203  0.00  0.00     0.028 C 
ATOM     12  C   LIG d   1      -4.311  81.393 117.087  0.00  0.00     0.006 C 
ENDBRANCH   8  11
ENDBRANCH   7   8
ENDBRANCH   1   7
BRANCH   6  13
ATOM     13  N   LIG d   1      -1.195  80.682 112.737  0.00  0.00    -0.311 N 
ATOM     14  C   LIG d   1      -2.268  79.904 112.870  0.00  0.00     0.210 C 
ATOM     15  C   LIG d   1      -1.967  78.428 113.148  0.00  0.00     0.109 C 
ATOM     16  O   LIG d   1      -3.441  80.291 112.753  0.00  0.00    -0.276 OA
ATOM     17  H   LIG d   1      -0.282  80.279 112.815  0.00  0.00     0.149 HD
ENDBRANCH   6  13
BRANCH   5  18
ATOM     18  N   LIG d   1      -0.410  82.041 110.115  0.00  0.00     0.381 N 
ATOM     19  H   LIG d   1      -0.490  81.046 110.184  0.00  0.00    -0.090 HD
ATOM     20  H   LIG d   1       0.393  82.254 109.550  0.00  0.00    -0.090 HD
ATOM     21  H   LIG d   1      -1.231  82.419 109.696  0.00  0.00    -0.090 HD
ENDBRANCH   5  18
BRANCH   3  22
ATOM     22  C   LIG d   1       0.284  86.082 112.589  0.00  0.00     0.382 C 
ATOM     23  O   LIG d   1       0.244  86.752 113.650  0.00  0.00    -0.241 OA
ATOM     24  O   LIG d   1       0.778  86.587 111.563  0.00  0.00    -0.241 OA
ENDBRANCH   3  22
TORSDOF 7
ENDMDL
MODEL 3
REMARK VINA RESULT:      -5.3      3.982      5.870
REMARK  7 active torsions:
REMARK  status: ('A' for Active; 'I' for Inactive)
REMARK    1  A    between atoms: C_2  and  C_3 
REMARK    2  A    between atoms: C_3  and  O_6 
REMARK    3  A    between atoms: C_3  and  C_4 
REMARK    4  A    between atoms: C_7  and  O_6 
REMARK    5  A    between atoms: C_9  and  C_10 
REMARK    6  A    between atoms: N_15  and  C_14 
REMARK    7  A    between atoms: N_20  and  C_19 
REMARK       I    between atoms: C_22  and  N_20 
ROOT
ATOM      1  C   LIG d   1       2.065  88.993 115.487  0.00  0.00     0.161 C 
ATOM      2  C   LIG d   1       0.827  89.290 116.080  0.00  0.00     0.016 C 
ATOM      3  C   LIG d   1       0.628  90.375 116.964  0.00  0.00     0.038 C 
ATOM      4  C   LIG d   1       1.625  91.333 117.199  0.00  0.00     0.028 C 
ATOM      5  C   LIG d   1       3.039  90.792 117.019  0.00  0.00    -0.047 C 
ATOM      6  C   LIG d   1       3.137  90.092 115.644  0.00  0.00     0.091 C 
ENDROOT
BRANCH   1   7
ATOM      7  O   LIG d   1       1.876  88.674 114.094  0.00  0.00    -0.368 OA
BRANCH   7   8
ATOM      8  C   LIG d   1       2.148  87.303 113.712  0.00  0.00     0.119 C 
BRANCH   8   9
ATOM      9  C   LIG d   1       2.601  87.314 112.239  0.00  0.00     0.028 C 
ATOM     10  C   LIG d   1       4.069  86.885 112.073  0.00  0.00     0.006 C 
ENDBRANCH   8   9
BRANCH   8  11
ATOM     11  C   LIG d   1       0.874  86.453 113.738  0.00  0.00     0.028 C 
ATOM     12  C   LIG d   1       0.813  85.435 112.589  0.00  0.00     0.006 C 
ENDBRANCH   8  11
ENDBRANCH   7   8
ENDBRANCH   1   7
BRANCH   6  13
ATOM     13  N   LIG d   1       4.464  89.461 115.422  0.00  0.00    -0.311 N 
ATOM     14  C   LIG d   1       5.140  89.557 114.278  0.00  0.00     0.210 C 
ATOM     15  C   LIG d   1       6.480  88.814 114.254  0.00  0.00     0.109 C 
ATOM     16  O   LIG d   1       4.772  90.214 113.293  0.00  0.00    -0.276 OA
ATOM     17  H   LIG d   1       4.852  88.935 116.181  0.00  0.00     0.149 HD
ENDBRANCH   6  13
BRANCH   5  18
ATOM     18  N   LIG d   1       3.972  91.926 117.158  0.00  0.00     0.381 N 
ATOM     19  H   LIG d   1       3.812  92.390 118.030  0.00  0.00    -0.090 HD
ATOM     20  H   LIG d   1       3.800  92.581 116.416  0.00  0.00    -0.090 HD
ATOM     21  H   LIG d   1       4.913  91.602 117.114  0.00  0.00    -0.090 HD
ENDBRANCH   5  18
BRANCH   3  22
ATOM     22  C   LIG d   1      -0.569  90.486 117.656  0.00  0.00     0.382 C 
ATOM     23  O   LIG d   1      -1.259  89.464 117.884  0.00  0.00    -0.241 OA
ATOM     24  O   LIG d   1      -0.988  91.602 118.017  0.00  0.00    -0.241 OA
ENDBRANCH   3  22
TORSDOF 7
ENDMDL
MODEL 4
REMARK VINA RESULT:      -5.2      4.337      8.583
REMARK  7 active torsions:
REMARK  status: ('A' for Active; 'I' for Inactive)
REMARK    1  A    between atoms: C_2  and  C_3 
REMARK    2  A    between atoms: C_3  and  O_6 
REMARK    3  A    between atoms: C_3  and  C_4 
REMARK    4  A    between atoms: C_7  and  O_6 
REMARK    5  A    between atoms: C_9  and  C_10 
REMARK    6  A    between atoms: N_15  and  C_14 
REMARK    7  A    between atoms: N_20  and  C_19 
REMARK       I    between atoms: C_22  and  N_20 
ROOT
ATOM      1  C   LIG d   1      -2.472  81.713 113.442  0.00  0.00     0.161 C 
ATOM      2  C   LIG d   1      -2.796  80.381 113.134  0.00  0.00     0.016 C 
ATOM      3  C   LIG d   1      -1.906  79.492 112.490  0.00  0.00     0.038 C 
ATOM      4  C   LIG d   1      -0.567  79.832 112.244  0.00  0.00     0.028 C 
ATOM      5  C   LIG d   1      -0.344  81.331 112.080  0.00  0.00    -0.047 C 
ATOM      6  C   LIG d   1      -0.979  82.068 113.281  0.00  0.00     0.091 C 
ENDROOT
BRANCH   1   7
ATOM      7  O   LIG d   1      -2.922  82.030 114.774  0.00  0.00    -0.368 OA
BRANCH   7   8
ATOM      8  C   LIG d   1      -2.433  81.170 115.833  0.00  0.00     0.119 C 
BRANCH   8   9
ATOM      9  C   LIG d   1      -3.657  80.492 116.480  0.00  0.00     0.028 C 
ATOM     10  C   LIG d   1      -4.505  81.476 117.305  0.00  0.00     0.006 C 
ENDBRANCH   8   9
BRANCH   8  11
ATOM     11  C   LIG d   1      -1.780  81.984 116.955  0.00  0.00     0.028 C 
ATOM     12  C   LIG d   1      -0.245  81.964 116.889  0.00  0.00     0.006 C 
ENDBRANCH   8  11
ENDBRANCH   7   8
ENDBRANCH   1   7
BRANCH   6  13
ATOM     13  N   LIG d   1      -0.879  83.545 113.158  0.00  0.00    -0.311 N 
ATOM     14  C   LIG d   1       0.121  84.258 113.675  0.00  0.00     0.210 C 
ATOM     15  C   LIG d   1       0.020  85.770 113.450  0.00  0.00     0.109 C 
ATOM     16  O   LIG d   1       1.097  83.779 114.271  0.00  0.00    -0.276 OA
ATOM     17  H   LIG d   1      -1.613  84.012 112.663  0.00  0.00     0.149 HD
ENDBRANCH   6  13
BRANCH   5  18
ATOM     18  N   LIG d   1       1.110  81.556 111.967  0.00  0.00     0.381 N 
ATOM     19  H   LIG d   1       1.425  81.286 111.056  0.00  0.00    -0.090 HD
ATOM     20  H   LIG d   1       1.581  80.983 112.645  0.00  0.00    -0.090 HD
ATOM     21  H   LIG d   1       1.321  82.516 112.128  0.00  0.00    -0.090 HD
ENDBRANCH   5  18
BRANCH   3  22
ATOM     22  C   LIG d   1      -2.364  78.260 112.048  0.00  0.00     0.382 C 
ATOM     23  O   LIG d   1      -1.709  77.617 111.193  0.00  0.00    -0.241 OA
ATOM     24  O   LIG d   1      -3.447  77.803 112.462  0.00  0.00    -0.241 OA
ENDBRANCH   3  22
TORSDOF 7
ENDMDL
MODEL 5
REMARK VINA RESULT:      -5.2      2.976      6.019
REMARK  7 active torsions:
REMARK  status: ('A' for Active; 'I' for Inactive)
REMARK    1  A    between atoms: C_2  and  C_3 
REMARK    2  A    between atoms: C_3  and  O_6 
REMARK    3  A    between atoms: C_3  and  C_4 
REMARK    4  A    between atoms: C_7  and  O_6 
REMARK    5  A    between atoms: C_9  and  C_10 
REMARK    6  A    between atoms: N_15  and  C_14 
REMARK    7  A    between atoms: N_20  and  C_19 
REMARK       I    between atoms: C_22  and  N_20 
ROOT
ATOM      1  C   LIG d   1       3.842  87.751 115.061  0.00  0.00     0.161 C 
ATOM      2  C   LIG d   1       3.180  87.129 113.989  0.00  0.00     0.016 C 
ATOM      3  C   LIG d   1       3.663  87.147 112.661  0.00  0.00     0.038 C 
ATOM      4  C   LIG d   1       4.927  87.663 112.338  0.00  0.00     0.028 C 
ATOM      5  C   LIG d   1       5.402  88.747 113.300  0.00  0.00    -0.047 C 
ATOM      6  C   LIG d   1       5.277  88.223 114.748  0.00  0.00     0.091 C 
ENDROOT
BRANCH   1   7
ATOM      7  O   LIG d   1       3.840  86.879 116.209  0.00  0.00    -0.368 OA
BRANCH   7   8
ATOM      8  C   LIG d   1       4.273  85.517 115.975  0.00  0.00     0.119 C 
BRANCH   8   9
ATOM      9  C   LIG d   1       3.272  84.585 116.685  0.00  0.00     0.028 C 
ATOM     10  C   LIG d   1       2.285  83.927 115.706  0.00  0.00     0.006 C 
ENDBRANCH   8   9
BRANCH   8  11
ATOM     11  C   LIG d   1       5.625  85.240 116.638  0.00  0.00     0.028 C 
ATOM     12  C   LIG d   1       5.879  86.127 117.867  0.00  0.00     0.006 C 
ENDBRANCH   8  11
ENDBRANCH   7   8
ENDBRANCH   1   7
BRANCH   6  13
ATOM     13  N   LIG d   1       5.642  89.252 115.757  0.00  0.00    -0.311 N 
ATOM     14  C   LIG d   1       6.863  89.370 116.276  0.00  0.00     0.210 C 
ATOM     15  C   LIG d   1       7.019  90.485 117.314  0.00  0.00     0.109 C 
ATOM     16  O   LIG d   1       7.839  88.678 115.951  0.00  0.00    -0.276 OA
ATOM     17  H   LIG d   1       4.918  89.877 116.054  0.00  0.00     0.149 HD
ENDBRANCH   6  13
BRANCH   5  18
ATOM     18  N   LIG d   1       6.786  89.097 112.928  0.00  0.00     0.381 N 
ATOM     19  H   LIG d   1       6.860  90.085 112.790  0.00  0.00    -0.090 HD
ATOM     20  H   LIG d   1       7.017  88.639 112.064  0.00  0.00    -0.090 HD
ATOM     21  H   LIG d   1       7.415  88.807 113.645  0.00  0.00    -0.090 HD
ENDBRANCH   5  18
BRANCH   3  22
ATOM     22  C   LIG d   1       2.861  86.679 111.631  0.00  0.00     0.382 C 
ATOM     23  O   LIG d   1       3.079  85.551 111.129  0.00  0.00    -0.241 OA
ATOM     24  O   LIG d   1       1.948  87.390 111.169  0.00  0.00    -0.241 OA
ENDBRANCH   3  22
TORSDOF 7
ENDMDL
MODEL 6
REMARK VINA RESULT:      -5.2      1.555      2.079
REMARK  7 active torsions:
REMARK  status: ('A' for Active; 'I' for Inactive)
REMARK    1  A    between atoms: C_2  and  C_3 
REMARK    2  A    between atoms: C_3  and  O_6 
REMARK    3  A    between atoms: C_3  and  C_4 
REMARK    4  A    between atoms: C_7  and  O_6 
REMARK    5  A    between atoms: C_9  and  C_10 
REMARK    6  A    between atoms: N_15  and  C_14 
REMARK    7  A    between atoms: N_20  and  C_19 
REMARK       I    between atoms: C_22  and  N_20 
ROOT
ATOM      1  C   LIG d   1       1.294  85.482 112.791  0.00  0.00     0.161 C 
ATOM      2  C   LIG d   1       2.195  86.489 112.406  0.00  0.00     0.016 C 
ATOM      3  C   LIG d   1       3.371  86.797 113.127  0.00  0.00     0.038 C 
ATOM      4  C   LIG d   1       3.807  86.013 114.206  0.00  0.00     0.028 C 
ATOM      5  C   LIG d   1       2.672  85.302 114.935  0.00  0.00    -0.047 C 
ATOM      6  C   LIG d   1       1.809  84.543 113.902  0.00  0.00     0.091 C 
ENDROOT
BRANCH   1   7
ATOM      7  O   LIG d   1       0.891  84.719 111.637  0.00  0.00    -0.368 OA
BRANCH   7   8
ATOM      8  C   LIG d   1       1.703  83.561 111.323  0.00  0.00     0.119 C 
BRANCH   8   9
ATOM      9  C   LIG d   1       2.513  83.893 110.055  0.00  0.00     0.028 C 
ATOM     10  C   LIG d   1       4.030  83.782 110.282  0.00  0.00     0.006 C 
ENDBRANCH   8   9
BRANCH   8  11
ATOM     11  C   LIG d   1       0.835  82.357 110.946  0.00  0.00     0.028 C 
ATOM     12  C   LIG d   1       1.338  81.043 111.564  0.00  0.00     0.006 C 
ENDBRANCH   8  11
ENDBRANCH   7   8
ENDBRANCH   1   7
BRANCH   6  13
ATOM     13  N   LIG d   1       0.628  83.888 114.522  0.00  0.00    -0.311 N 
ATOM     14  C   LIG d   1       0.634  82.632 114.964  0.00  0.00     0.210 C 
ATOM     15  C   LIG d   1      -0.696  82.147 115.550  0.00  0.00     0.109 C 
ATOM     16  O   LIG d   1       1.623  81.884 114.956  0.00  0.00    -0.276 OA
ATOM     17  H   LIG d   1      -0.209  84.434 114.596  0.00  0.00     0.149 HD
ENDBRANCH   6  13
BRANCH   5  18
ATOM     18  N   LIG d   1       3.279  84.415 115.946  0.00  0.00     0.381 N 
ATOM     19  H   LIG d   1       4.091  83.973 115.564  0.00  0.00    -0.090 HD
ATOM     20  H   LIG d   1       2.616  83.700 116.190  0.00  0.00    -0.090 HD
ATOM     21  H   LIG d   1       3.527  84.939 116.755  0.00  0.00    -0.090 HD
ENDBRANCH   5  18
BRANCH   3  22
ATOM     22  C   LIG d   1       4.105  87.926 112.795  0.00  0.00     0.382 C 
ATOM     23  O   LIG d   1       3.629  89.068 113.005  0.00  0.00    -0.241 OA
ATOM     24  O   LIG d   1       5.218  87.817 112.247  0.00  0.00    -0.241 OA
ENDBRANCH   3  22
TORSDOF 7
ENDMDL
MODEL 7
REMARK VINA RESULT:      -5.1     10.129     11.723
REMARK  7 active torsions:
REMARK  status: ('A' for Active; 'I' for Inactive)
REMARK    1  A    between atoms: C_2  and  C_3 
REMARK    2  A    between atoms: C_3  and  O_6 
REMARK    3  A    between atoms: C_3  and  C_4 
REMARK    4  A    between atoms: C_7  and  O_6 
REMARK    5  A    between atoms: C_9  and  C_10 
REMARK    6  A    between atoms: N_15  and  C_14 
REMARK    7  A    between atoms: N_20  and  C_19 
REMARK       I    between atoms: C_22  and  N_20 
ROOT
ATOM      1  C   LIG d   1      10.398  79.417 114.547  0.00  0.00     0.161 C 
ATOM      2  C   LIG d   1       9.046  79.346 114.923  0.00  0.00     0.016 C 
ATOM      3  C   LIG d   1       8.433  78.167 115.403  0.00  0.00     0.038 C 
ATOM      4  C   LIG d   1       9.172  77.008 115.683  0.00  0.00     0.028 C 
ATOM      5  C   LIG d   1      10.439  76.879 114.844  0.00  0.00    -0.047 C 
ATOM      6  C   LIG d   1      11.246  78.193 114.950  0.00  0.00     0.091 C 
ENDROOT
BRANCH   1   7
ATOM      7  O   LIG d   1      10.987  80.627 115.063  0.00  0.00    -0.368 OA
BRANCH   7   8
ATOM      8  C   LIG d   1      11.205  81.690 114.103  0.00  0.00     0.119 C 
BRANCH   8   9
ATOM      9  C   LIG d   1       9.982  82.625 114.161  0.00  0.00     0.028 C 
ATOM     10  C   LIG d   1       9.636  83.050 115.598  0.00  0.00     0.006 C 
ENDBRANCH   8   9
BRANCH   8  11
ATOM     11  C   LIG d   1      11.234  81.149 112.670  0.00  0.00     0.028 C 
ATOM     12  C   LIG d   1      10.526  82.075 111.669  0.00  0.00     0.006 C 
ENDBRANCH   8  11
ENDBRANCH   7   8
ENDBRANCH   1   7
BRANCH   6  13
ATOM     13  N   LIG d   1      12.460  78.184 114.092  0.00  0.00    -0.311 N 
ATOM     14  C   LIG d   1      13.665  78.553 114.522  0.00  0.00     0.210 C 
ATOM     15  C   LIG d   1      14.775  78.487 113.468  0.00  0.00     0.109 C 
ATOM     16  O   LIG d   1      13.926  78.899 115.684  0.00  0.00    -0.276 OA
ATOM     17  H   LIG d   1      12.344  77.887 113.143  0.00  0.00     0.149 HD
ENDBRANCH   6  13
BRANCH   5  18
ATOM     18  N   LIG d   1      11.181  75.703 115.335  0.00  0.00     0.381 N 
ATOM     19  H   LIG d   1      10.538  74.993 115.623  0.00  0.00    -0.090 HD
ATOM     20  H   LIG d   1      11.730  75.974 116.131  0.00  0.00    -0.090 HD
ATOM     21  H   LIG d   1      11.775  75.351 114.617  0.00  0.00    -0.090 HD
ENDBRANCH   5  18
BRANCH   3  22
ATOM     22  C   LIG d   1       7.057  78.126 115.569  0.00  0.00     0.382 C 
ATOM     23  O   LIG d   1       6.553  77.385 116.447  0.00  0.00    -0.241 OA
ATOM     24  O   LIG d   1       6.311  78.788 114.823  0.00  0.00    -0.241 OA
ENDBRANCH   3  22
TORSDOF 7
ENDMDL
MODEL 8
REMARK VINA RESULT:      -4.8      1.980      2.366
REMARK  7 active torsions:
REMARK  status: ('A' for Active; 'I' for Inactive)
REMARK    1  A    between atoms: C_2  and  C_3 
REMARK    2  A    between atoms: C_3  and  O_6 
REMARK    3  A    between atoms: C_3  and  C_4 
REMARK    4  A    between atoms: C_7  and  O_6 
REMARK    5  A    between atoms: C_9  and  C_10 
REMARK    6  A    between atoms: N_15  and  C_14 
REMARK    7  A    between atoms: N_20  and  C_19 
REMARK       I    between atoms: C_22  and  N_20 
ROOT
ATOM      1  C   LIG d   1       0.831  85.570 113.614  0.00  0.00     0.161 C 
ATOM      2  C   LIG d   1       1.183  86.919 113.786  0.00  0.00     0.016 C 
ATOM      3  C   LIG d   1       2.187  87.352 114.683  0.00  0.00     0.038 C 
ATOM      4  C   LIG d   1       3.016  86.447 115.362  0.00  0.00     0.028 C 
ATOM      5  C   LIG d   1       2.363  85.090 115.602  0.00  0.00    -0.047 C 
ATOM      6  C   LIG d   1       1.800  84.560 114.263  0.00  0.00     0.091 C 
ENDROOT
BRANCH   1   7
ATOM      7  O   LIG d   1       0.674  85.282 112.210  0.00  0.00    -0.368 OA
BRANCH   7   8
ATOM      8  C   LIG d   1       1.425  86.121 111.299  0.00  0.00     0.119 C 
BRANCH   8   9
ATOM      9  C   LIG d   1       0.546  86.358 110.056  0.00  0.00     0.028 C 
ATOM     10  C   LIG d   1      -0.893  85.850 110.250  0.00  0.00     0.006 C 
ENDBRANCH   8   9
BRANCH   8  11
ATOM     11  C   LIG d   1       2.674  85.402 110.781  0.00  0.00     0.028 C 
ATOM     12  C   LIG d   1       3.967  85.900 111.447  0.00  0.00     0.006 C 
ENDBRANCH   8  11
ENDBRANCH   7   8
ENDBRANCH   1   7
BRANCH   6  13
ATOM     13  N   LIG d   1       1.070  83.276 114.424  0.00  0.00    -0.311 N 
ATOM     14  C   LIG d   1       1.071  82.312 113.505  0.00  0.00     0.210 C 
ATOM     15  C   LIG d   1       0.238  81.077 113.862  0.00  0.00     0.109 C 
ATOM     16  O   LIG d   1       1.709  82.349 112.442  0.00  0.00    -0.276 OA
ATOM     17  H   LIG d   1       0.551  83.149 115.271  0.00  0.00     0.149 HD
ENDBRANCH   6  13
BRANCH   5  18
ATOM     18  N   LIG d   1       3.382  84.203 116.193  0.00  0.00     0.381 N 
ATOM     19  H   LIG d   1       2.979  83.309 116.391  0.00  0.00    -0.090 HD
ATOM     20  H   LIG d   1       3.701  84.604 117.057  0.00  0.00    -0.090 HD
ATOM     21  H   LIG d   1       4.148  84.098 115.565  0.00  0.00    -0.090 HD
ENDBRANCH   5  18
BRANCH   3  22
ATOM     22  C   LIG d   1       2.342  88.706 114.938  0.00  0.00     0.382 C 
ATOM     23  O   LIG d   1       1.439  89.339 115.536  0.00  0.00    -0.241 OA
ATOM     24  O   LIG d   1       3.355  89.312 114.539  0.00  0.00    -0.241 OA
ENDBRANCH   3  22
TORSDOF 7
ENDMDL
MODEL 9
REMARK VINA RESULT:      -4.7     10.164     12.333
REMARK  7 active torsions:
REMARK  status: ('A' for Active; 'I' for Inactive)
REMARK    1  A    between atoms: C_2  and  C_3 
REMARK    2  A    between atoms: C_3  and  O_6 
REMARK    3  A    between atoms: C_3  and  C_4 
REMARK    4  A    between atoms: C_7  and  O_6 
REMARK    5  A    between atoms: C_9  and  C_10 
REMARK    6  A    between atoms: N_15  and  C_14 
REMARK    7  A    between atoms: N_20  and  C_19 
REMARK       I    between atoms: C_22  and  N_20 
ROOT
ATOM      1  C   LIG d   1      -3.644  76.687 116.163  0.00  0.00     0.161 C 
ATOM      2  C   LIG d   1      -2.807  75.768 115.508  0.00  0.00     0.016 C 
ATOM      3  C   LIG d   1      -1.418  75.671 115.751  0.00  0.00     0.038 C 
ATOM      4  C   LIG d   1      -0.793  76.389 116.782  0.00  0.00     0.028 C 
ATOM      5  C   LIG d   1      -1.503  77.694 117.127  0.00  0.00    -0.047 C 
ATOM      6  C   LIG d   1      -3.001  77.402 117.369  0.00  0.00     0.091 C 
ENDROOT
BRANCH   1   7
ATOM      7  O   LIG d   1      -4.868  76.037 116.559  0.00  0.00    -0.368 OA
BRANCH   7   8
ATOM      8  C   LIG d   1      -5.334  74.973 115.694  0.00  0.00     0.119 C 
BRANCH   8   9
ATOM      9  C   LIG d   1      -6.453  75.554 114.807  0.00  0.00     0.028 C 
ATOM     10  C   LIG d   1      -5.946  75.963 113.415  0.00  0.00     0.006 C 
ENDBRANCH   8   9
BRANCH   8  11
ATOM     11  C   LIG d   1      -5.996  73.850 116.498  0.00  0.00     0.028 C 
ATOM     12  C   LIG d   1      -7.187  73.214 115.764  0.00  0.00     0.006 C 
ENDBRANCH   8  11
ENDBRANCH   7   8
ENDBRANCH   1   7
BRANCH   6  13
ATOM     13  N   LIG d   1      -3.785  78.637 117.630  0.00  0.00    -0.311 N 
ATOM     14  C   LIG d   1      -3.793  79.687 116.810  0.00  0.00     0.210 C 
ATOM     15  C   LIG d   1      -4.652  80.866 117.278  0.00  0.00     0.109 C 
ATOM     16  O   LIG d   1      -3.195  79.741 115.725  0.00  0.00    -0.276 OA
ATOM     17  H   LIG d   1      -4.323  78.667 118.474  0.00  0.00     0.149 HD
ENDBRANCH   6  13
BRANCH   5  18
ATOM     18  N   LIG d   1      -0.828  78.270 118.305  0.00  0.00     0.381 N 
ATOM     19  H   LIG d   1      -0.909  77.645 119.081  0.00  0.00    -0.090 HD
ATOM     20  H   LIG d   1      -1.279  79.135 118.547  0.00  0.00    -0.090 HD
ATOM     21  H   LIG d   1       0.133  78.435 118.100  0.00  0.00    -0.090 HD
ENDBRANCH   5  18
BRANCH   3  22
ATOM     22  C   LIG d   1      -0.631  74.877 114.931  0.00  0.00     0.382 C 
ATOM     23  O   LIG d   1      -0.014  73.896 115.413  0.00  0.00    -0.241 OA
ATOM     24  O   LIG d   1      -0.495  75.154 113.724  0.00  0.00    -0.241 OA
ENDBRANCH   3  22
TORSDOF 7
ENDMDL
