MODEL 1
REMARK VINA RESULT:      -5.5      0.000      0.000
REMARK  7 active torsions:
REMARK  status: ('A' for Active; 'I' for Inactive)
REMARK    1  A    between atoms: C_2  and  C_3 
REMARK    2  A    between atoms: C_3  and  O_6 
REMARK    3  A    between atoms: C_3  and  C_4 
REMARK    4  A    between atoms: C_7  and  O_6 
REMARK    5  A    between atoms: C_9  and  C_10 
REMARK    6  A    between atoms: N_15  and  C_14 
REMARK    7  A    between atoms: N_20  and  C_19 
REMARK       I    between atoms: C_22  and  N_20 
ROOT
ATOM      1  C   LIG d   1      -2.749  76.323 114.665  0.00  0.00     0.161 C 
ATOM      2  C   LIG d   1      -2.643  75.378 115.699  0.00  0.00     0.016 C 
ATOM      3  C   LIG d   1      -1.660  75.442 116.713  0.00  0.00     0.038 C 
ATOM      4  C   LIG d   1      -0.806  76.546 116.849  0.00  0.00     0.028 C 
ATOM      5  C   LIG d   1      -0.543  77.275 115.535  0.00  0.00    -0.047 C 
ATOM      6  C   LIG d   1      -1.897  77.594 114.860  0.00  0.00     0.091 C 
ENDROOT
BRANCH   1   7
ATOM      7  O   LIG d   1      -4.133  76.673 114.463  0.00  0.00    -0.368 OA
BRANCH   7   8
ATOM      8  C   LIG d   1      -5.084  76.060 115.368  0.00  0.00     0.119 C 
BRANCH   8   9
ATOM      9  C   LIG d   1      -6.179  75.398 114.510  0.00  0.00     0.028 C 
ATOM     10  C   LIG d   1      -7.569  75.487 115.161  0.00  0.00     0.006 C 
ENDBRANCH   8   9
BRANCH   8  11
ATOM     11  C   LIG d   1      -5.811  77.113 116.210  0.00  0.00     0.028 C 
ATOM     12  C   LIG d   1      -4.850  77.982 117.037  0.00  0.00     0.006 C 
ENDBRANCH   8  11
ENDBRANCH   7   8
ENDBRANCH   1   7
BRANCH   6  13
ATOM     13  N   LIG d   1      -1.729  78.232 113.528  0.00  0.00    -0.311 N 
ATOM     14  C   LIG d   1      -2.353  79.352 113.167  0.00  0.00     0.210 C 
ATOM     15  C   LIG d   1      -2.055  79.829 111.742  0.00  0.00     0.109 C 
ATOM     16  O   LIG d   1      -3.099  80.014 113.904  0.00  0.00    -0.276 OA
ATOM     17  H   LIG d   1      -1.117  77.778 112.878  0.00  0.00     0.149 HD
ENDBRANCH   6  13
BRANCH   5  18
ATOM     18  N   LIG d   1       0.248  78.481 115.844  0.00  0.00     0.381 N 
ATOM     19  H   LIG d   1       0.514  78.937 114.995  0.00  0.00    -0.090 HD
ATOM     20  H   LIG d   1       1.083  78.206 116.330  0.00  0.00    -0.090 HD
ATOM     21  H   LIG d   1      -0.286  79.103 116.410  0.00  0.00    -0.090 HD
ENDBRANCH   5  18
BRANCH   3  22
ATOM     22  C   LIG d   1      -1.499  74.374 117.582  0.00  0.00     0.382 C 
ATOM     23  O   LIG d   1      -0.474  74.301 118.303  0.00  0.00    -0.241 OA
ATOM     24  O   LIG d   1      -2.343  73.459 117.622  0.00  0.00    -0.241 OA
ENDBRANCH   3  22
TORSDOF 7
ENDMDL
MODEL 2
REMARK VINA RESULT:      -5.5      8.541     11.958
REMARK  7 active torsions:
REMARK  status: ('A' for Active; 'I' for Inactive)
REMARK    1  A    between atoms: C_2  and  C_3 
REMARK    2  A    between atoms: C_3  and  O_6 
REMARK    3  A    between atoms: C_3  and  C_4 
REMARK    4  A    between atoms: C_7  and  O_6 
REMARK    5  A    between atoms: C_9  and  C_10 
REMARK    6  A    between atoms: N_15  and  C_14 
REMARK    7  A    between atoms: N_20  and  C_19 
REMARK       I    between atoms: C_22  and  N_20 
ROOT
ATOM      1  C   LIG d   1       3.751  85.213 112.472  0.00  0.00     0.161 C 
ATOM      2  C   LIG d   1       4.451  86.354 112.900  0.00  0.00     0.016 C 
ATOM      3  C   LIG d   1       4.026  87.675 112.628  0.00  0.00     0.038 C 
ATOM      4  C   LIG d   1       2.783  87.946 112.036  0.00  0.00     0.028 C 
ATOM      5  C   LIG d   1       2.281  86.821 111.138  0.00  0.00    -0.047 C 
ATOM      6  C   LIG d   1       2.337  85.490 111.922  0.00  0.00     0.091 C 
ENDROOT
BRANCH   1   7
ATOM      7  O   LIG d   1       3.693  84.247 113.541  0.00  0.00    -0.368 OA
BRANCH   7   8
ATOM      8  C   LIG d   1       4.386  82.996 113.307  0.00  0.00     0.119 C 
BRANCH   8   9
ATOM      9  C   LIG d   1       5.142  83.128 111.971  0.00  0.00     0.028 C 
ATOM     10  C   LIG d   1       4.762  82.024 110.970  0.00  0.00     0.006 C 
ENDBRANCH   8   9
BRANCH   8  11
ATOM     11  C   LIG d   1       3.400  81.842 113.103  0.00  0.00     0.028 C 
ATOM     12  C   LIG d   1       2.161  81.951 114.006  0.00  0.00     0.006 C 
ENDBRANCH   8  11
ENDBRANCH   7   8
ENDBRANCH   1   7
BRANCH   6  13
ATOM     13  N   LIG d   1       1.942  84.325 111.089  0.00  0.00    -0.311 N 
ATOM     14  C   LIG d   1       0.714  83.809 111.084  0.00  0.00     0.210 C 
ATOM     15  C   LIG d   1       0.525  82.596 110.168  0.00  0.00     0.109 C 
ATOM     16  O   LIG d   1      -0.246  84.262 111.727  0.00  0.00    -0.276 OA
ATOM     17  H   LIG d   1       2.651  83.915 110.513  0.00  0.00     0.149 HD
ENDBRANCH   6  13
BRANCH   5  18
ATOM     18  N   LIG d   1       0.919  87.177 110.698  0.00  0.00     0.381 N 
ATOM     19  H   LIG d   1       0.283  87.098 111.467  0.00  0.00    -0.090 HD
ATOM     20  H   LIG d   1       0.630  86.532 109.983  0.00  0.00    -0.090 HD
ATOM     21  H   LIG d   1       0.907  88.107 110.341  0.00  0.00    -0.090 HD
ENDBRANCH   5  18
BRANCH   3  22
ATOM     22  C   LIG d   1       4.866  88.740 112.914  0.00  0.00     0.382 C 
ATOM     23  O   LIG d   1       4.431  89.727 113.554  0.00  0.00    -0.241 OA
ATOM     24  O   LIG d   1       6.042  88.745 112.502  0.00  0.00    -0.241 OA
ENDBRANCH   3  22
TORSDOF 7
ENDMDL
MODEL 3
REMARK VINA RESULT:      -5.4      8.476     11.168
REMARK  7 active torsions:
REMARK  status: ('A' for Active; 'I' for Inactive)
REMARK    1  A    between atoms: C_2  and  C_3 
REMARK    2  A    between atoms: C_3  and  O_6 
REMARK    3  A    between atoms: C_3  and  C_4 
REMARK    4  A    between atoms: C_7  and  O_6 
REMARK    5  A    between atoms: C_9  and  C_10 
REMARK    6  A    between atoms: N_15  and  C_14 
REMARK    7  A    between atoms: N_20  and  C_19 
REMARK       I    between atoms: C_22  and  N_20 
ROOT
ATOM      1  C   LIG d   1       2.091  85.076 113.616  0.00  0.00     0.161 C 
ATOM      2  C   LIG d   1       1.107  84.112 113.339  0.00  0.00     0.016 C 
ATOM      3  C   LIG d   1       0.293  84.140 112.183  0.00  0.00     0.038 C 
ATOM      4  C   LIG d   1       0.511  85.058 111.145  0.00  0.00     0.028 C 
ATOM      5  C   LIG d   1       1.159  86.358 111.612  0.00  0.00    -0.047 C 
ATOM      6  C   LIG d   1       2.419  86.021 112.441  0.00  0.00     0.091 C 
ENDROOT
BRANCH   1   7
ATOM      7  O   LIG d   1       3.289  84.430 114.089  0.00  0.00    -0.368 OA
BRANCH   7   8
ATOM      8  C   LIG d   1       4.219  83.987 113.070  0.00  0.00     0.119 C 
BRANCH   8   9
ATOM      9  C   LIG d   1       4.289  82.450 113.143  0.00  0.00     0.028 C 
ATOM     10  C   LIG d   1       3.626  81.774 111.931  0.00  0.00     0.006 C 
ENDBRANCH   8   9
BRANCH   8  11
ATOM     11  C   LIG d   1       5.642  84.472 113.365  0.00  0.00     0.028 C 
ATOM     12  C   LIG d   1       5.745  85.242 114.691  0.00  0.00     0.006 C 
ENDBRANCH   8  11
ENDBRANCH   7   8
ENDBRANCH   1   7
BRANCH   6  13
ATOM     13  N   LIG d   1       3.066  87.234 113.007  0.00  0.00    -0.311 N 
ATOM     14  C   LIG d   1       4.150  87.800 112.480  0.00  0.00     0.210 C 
ATOM     15  C   LIG d   1       4.667  89.031 113.231  0.00  0.00     0.109 C 
ATOM     16  O   LIG d   1       4.714  87.418 111.443  0.00  0.00    -0.276 OA
ATOM     17  H   LIG d   1       2.655  87.628 113.831  0.00  0.00     0.149 HD
ENDBRANCH   6  13
BRANCH   5  18
ATOM     18  N   LIG d   1       1.454  87.164 110.412  0.00  0.00     0.381 N 
ATOM     19  H   LIG d   1       1.589  88.121 110.672  0.00  0.00    -0.090 HD
ATOM     20  H   LIG d   1       0.670  87.114 109.786  0.00  0.00    -0.090 HD
ATOM     21  H   LIG d   1       2.272  86.817 109.961  0.00  0.00    -0.090 HD
ENDBRANCH   5  18
BRANCH   3  22
ATOM     22  C   LIG d   1      -0.780  83.268 112.077  0.00  0.00     0.382 C 
ATOM     23  O   LIG d   1      -1.510  83.048 113.073  0.00  0.00    -0.241 OA
ATOM     24  O   LIG d   1      -1.000  82.665 111.009  0.00  0.00    -0.241 OA
ENDBRANCH   3  22
TORSDOF 7
ENDMDL
MODEL 4
REMARK VINA RESULT:      -5.2      7.818     10.883
REMARK  7 active torsions:
REMARK  status: ('A' for Active; 'I' for Inactive)
REMARK    1  A    between atoms: C_2  and  C_3 
REMARK    2  A    between atoms: C_3  and  O_6 
REMARK    3  A    between atoms: C_3  and  C_4 
REMARK    4  A    between atoms: C_7  and  O_6 
REMARK    5  A    between atoms: C_9  and  C_10 
REMARK    6  A    between atoms: N_15  and  C_14 
REMARK    7  A    between atoms: N_20  and  C_19 
REMARK       I    between atoms: C_22  and  N_20 
ROOT
ATOM      1  C   LIG d   1       2.198  84.279 113.535  0.00  0.00     0.161 C 
ATOM      2  C   LIG d   1       1.237  83.530 112.834  0.00  0.00     0.016 C 
ATOM      3  C   LIG d   1      -0.156  83.737 112.961  0.00  0.00     0.038 C 
ATOM      4  C   LIG d   1      -0.681  84.816 113.688  0.00  0.00     0.028 C 
ATOM      5  C   LIG d   1       0.230  85.289 114.815  0.00  0.00    -0.047 C 
ATOM      6  C   LIG d   1       1.647  85.532 114.246  0.00  0.00     0.091 C 
ENDROOT
BRANCH   1   7
ATOM      7  O   LIG d   1       3.277  84.638 112.650  0.00  0.00    -0.368 OA
BRANCH   7   8
ATOM      8  C   LIG d   1       2.923  85.469 111.517  0.00  0.00     0.119 C 
BRANCH   8   9
ATOM      9  C   LIG d   1       3.507  84.804 110.255  0.00  0.00     0.028 C 
ATOM     10  C   LIG d   1       4.200  83.466 110.564  0.00  0.00     0.006 C 
ENDBRANCH   8   9
BRANCH   8  11
ATOM     11  C   LIG d   1       3.596  86.842 111.600  0.00  0.00     0.028 C 
ATOM     12  C   LIG d   1       4.864  86.832 112.469  0.00  0.00     0.006 C 
ENDBRANCH   8  11
ENDBRANCH   7   8
ENDBRANCH   1   7
BRANCH   6  13
ATOM     13  N   LIG d   1       2.622  85.917 115.300  0.00  0.00    -0.311 N 
ATOM     14  C   LIG d   1       2.930  87.180 115.588  0.00  0.00     0.210 C 
ATOM     15  C   LIG d   1       3.975  87.354 116.695  0.00  0.00     0.109 C 
ATOM     16  O   LIG d   1       2.414  88.173 115.055  0.00  0.00    -0.276 OA
ATOM     17  H   LIG d   1       3.066  85.174 115.804  0.00  0.00     0.149 HD
ENDBRANCH   6  13
BRANCH   5  18
ATOM     18  N   LIG d   1      -0.375  86.501 115.399  0.00  0.00     0.381 N 
ATOM     19  H   LIG d   1      -1.372  86.434 115.360  0.00  0.00    -0.090 HD
ATOM     20  H   LIG d   1      -0.091  87.299 114.858  0.00  0.00    -0.090 HD
ATOM     21  H   LIG d   1      -0.078  86.609 116.344  0.00  0.00    -0.090 HD
ENDBRANCH   5  18
BRANCH   3  22
ATOM     22  C   LIG d   1      -1.040  82.836 112.389  0.00  0.00     0.382 C 
ATOM     23  O   LIG d   1      -0.889  82.481 111.195  0.00  0.00    -0.241 OA
ATOM     24  O   LIG d   1      -2.012  82.406 113.038  0.00  0.00    -0.241 OA
ENDBRANCH   3  22
TORSDOF 7
ENDMDL
MODEL 5
REMARK VINA RESULT:      -5.2      2.359      4.845
REMARK  7 active torsions:
REMARK  status: ('A' for Active; 'I' for Inactive)
REMARK    1  A    between atoms: C_2  and  C_3 
REMARK    2  A    between atoms: C_3  and  O_6 
REMARK    3  A    between atoms: C_3  and  C_4 
REMARK    4  A    between atoms: C_7  and  O_6 
REMARK    5  A    between atoms: C_9  and  C_10 
REMARK    6  A    between atoms: N_15  and  C_14 
REMARK    7  A    between atoms: N_20  and  C_19 
REMARK       I    between atoms: C_22  and  N_20 
ROOT
ATOM      1  C   LIG d   1      -3.013  77.908 115.423  0.00  0.00     0.161 C 
ATOM      2  C   LIG d   1      -1.726  78.287 115.840  0.00  0.00     0.016 C 
ATOM      3  C   LIG d   1      -0.841  77.418 116.519  0.00  0.00     0.038 C 
ATOM      4  C   LIG d   1      -1.128  76.056 116.695  0.00  0.00     0.028 C 
ATOM      5  C   LIG d   1      -2.621  75.753 116.740  0.00  0.00    -0.047 C 
ATOM      6  C   LIG d   1      -3.300  76.394 115.508  0.00  0.00     0.091 C 
ENDROOT
BRANCH   1   7
ATOM      7  O   LIG d   1      -3.256  78.389 114.087  0.00  0.00    -0.368 OA
BRANCH   7   8
ATOM      8  C   LIG d   1      -2.171  79.125 113.467  0.00  0.00     0.119 C 
BRANCH   8   9
ATOM      9  C   LIG d   1      -2.776  80.390 112.828  0.00  0.00     0.028 C 
ATOM     10  C   LIG d   1      -1.733  81.502 112.629  0.00  0.00     0.006 C 
ENDBRANCH   8   9
BRANCH   8  11
ATOM     11  C   LIG d   1      -1.556  78.338 112.307  0.00  0.00     0.028 C 
ATOM     12  C   LIG d   1      -2.498  78.224 111.098  0.00  0.00     0.006 C 
ENDBRANCH   8  11
ENDBRANCH   7   8
ENDBRANCH   1   7
BRANCH   6  13
ATOM     13  N   LIG d   1      -4.776  76.216 115.518  0.00  0.00    -0.311 N 
ATOM     14  C   LIG d   1      -5.431  75.472 114.628  0.00  0.00     0.210 C 
ATOM     15  C   LIG d   1      -6.952  75.440 114.807  0.00  0.00     0.109 C 
ATOM     16  O   LIG d   1      -4.893  74.809 113.728  0.00  0.00    -0.276 OA
ATOM     17  H   LIG d   1      -5.288  76.694 116.234  0.00  0.00     0.149 HD
ENDBRANCH   6  13
BRANCH   5  18
ATOM     18  N   LIG d   1      -2.777  74.287 116.788  0.00  0.00     0.381 N 
ATOM     19  H   LIG d   1      -3.599  74.017 116.287  0.00  0.00    -0.090 HD
ATOM     20  H   LIG d   1      -2.884  74.003 117.746  0.00  0.00    -0.090 HD
ATOM     21  H   LIG d   1      -1.977  73.846 116.391  0.00  0.00    -0.090 HD
ENDBRANCH   5  18
BRANCH   3  22
ATOM     22  C   LIG d   1       0.330  77.921 117.066  0.00  0.00     0.382 C 
ATOM     23  O   LIG d   1       1.132  77.150 117.646  0.00  0.00    -0.241 OA
ATOM     24  O   LIG d   1       0.574  79.142 117.025  0.00  0.00    -0.241 OA
ENDBRANCH   3  22
TORSDOF 7
ENDMDL
MODEL 6
REMARK VINA RESULT:      -5.1      8.666     12.159
REMARK  7 active torsions:
REMARK  status: ('A' for Active; 'I' for Inactive)
REMARK    1  A    between atoms: C_2  and  C_3 
REMARK    2  A    between atoms: C_3  and  O_6 
REMARK    3  A    between atoms: C_3  and  C_4 
REMARK    4  A    between atoms: C_7  and  O_6 
REMARK    5  A    between atoms: C_9  and  C_10 
REMARK    6  A    between atoms: N_15  and  C_14 
REMARK    7  A    between atoms: N_20  and  C_19 
REMARK       I    between atoms: C_22  and  N_20 
ROOT
ATOM      1  C   LIG d   1       2.475  86.074 113.466  0.00  0.00     0.161 C 
ATOM      2  C   LIG d   1       2.995  87.367 113.291  0.00  0.00     0.016 C 
ATOM      3  C   LIG d   1       4.299  87.742 113.687  0.00  0.00     0.038 C 
ATOM      4  C   LIG d   1       5.232  86.802 114.150  0.00  0.00     0.028 C 
ATOM      5  C   LIG d   1       4.591  85.589 114.815  0.00  0.00    -0.047 C 
ATOM      6  C   LIG d   1       3.516  85.008 113.868  0.00  0.00     0.091 C 
ENDROOT
BRANCH   1   7
ATOM      7  O   LIG d   1       1.772  85.664 112.277  0.00  0.00    -0.368 OA
BRANCH   7   8
ATOM      8  C   LIG d   1       2.359  86.073 111.017  0.00  0.00     0.119 C 
BRANCH   8   9
ATOM      9  C   LIG d   1       1.203  86.410 110.055  0.00  0.00     0.028 C 
ATOM     10  C   LIG d   1      -0.129  86.630 110.793  0.00  0.00     0.006 C 
ENDBRANCH   8   9
BRANCH   8  11
ATOM     11  C   LIG d   1       3.115  84.918 110.353  0.00  0.00     0.028 C 
ATOM     12  C   LIG d   1       2.393  83.569 110.504  0.00  0.00     0.006 C 
ENDBRANCH   8  11
ENDBRANCH   7   8
ENDBRANCH   1   7
BRANCH   6  13
ATOM     13  N   LIG d   1       2.781  83.868 114.477  0.00  0.00    -0.311 N 
ATOM     14  C   LIG d   1       3.079  82.592 114.238  0.00  0.00     0.210 C 
ATOM     15  C   LIG d   1       2.184  81.575 114.952  0.00  0.00     0.109 C 
ATOM     16  O   LIG d   1       4.021  82.207 113.529  0.00  0.00    -0.276 OA
ATOM     17  H   LIG d   1       2.022  84.091 115.090  0.00  0.00     0.149 HD
ENDBRANCH   6  13
BRANCH   5  18
ATOM     18  N   LIG d   1       5.668  84.630 115.125  0.00  0.00     0.381 N 
ATOM     19  H   LIG d   1       5.361  83.994 115.834  0.00  0.00    -0.090 HD
ATOM     20  H   LIG d   1       6.462  85.135 115.477  0.00  0.00    -0.090 HD
ATOM     21  H   LIG d   1       5.923  84.126 114.304  0.00  0.00    -0.090 HD
ENDBRANCH   5  18
BRANCH   3  22
ATOM     22  C   LIG d   1       4.669  89.078 113.657  0.00  0.00     0.382 C 
ATOM     23  O   LIG d   1       5.141  89.620 114.686  0.00  0.00    -0.241 OA
ATOM     24  O   LIG d   1       4.495  89.759 112.629  0.00  0.00    -0.241 OA
ENDBRANCH   3  22
TORSDOF 7
ENDMDL
MODEL 7
REMARK VINA RESULT:      -5.1      7.805     11.164
REMARK  7 active torsions:
REMARK  status: ('A' for Active; 'I' for Inactive)
REMARK    1  A    between atoms: C_2  and  C_3 
REMARK    2  A    between atoms: C_3  and  O_6 
REMARK    3  A    between atoms: C_3  and  C_4 
REMARK    4  A    between atoms: C_7  and  O_6 
REMARK    5  A    between atoms: C_9  and  C_10 
REMARK    6  A    between atoms: N_15  and  C_14 
REMARK    7  A    between atoms: N_20  and  C_19 
REMARK       I    between atoms: C_22  and  N_20 
ROOT
ATOM      1  C   LIG d   1       2.880  83.879 111.604  0.00  0.00     0.161 C 
ATOM      2  C   LIG d   1       3.353  85.164 111.918  0.00  0.00     0.016 C 
ATOM      3  C   LIG d   1       2.617  86.346 111.671  0.00  0.00     0.038 C 
ATOM      4  C   LIG d   1       1.287  86.312 111.228  0.00  0.00     0.028 C 
ATOM      5  C   LIG d   1       0.949  85.062 110.422  0.00  0.00    -0.047 C 
ATOM      6  C   LIG d   1       1.387  83.815 111.222  0.00  0.00     0.091 C 
ENDROOT
BRANCH   1   7
ATOM      7  O   LIG d   1       3.159  82.976 112.692  0.00  0.00    -0.368 OA
BRANCH   7   8
ATOM      8  C   LIG d   1       4.046  81.870 112.391  0.00  0.00     0.119 C 
BRANCH   8   9
ATOM      9  C   LIG d   1       5.148  81.855 113.468  0.00  0.00     0.028 C 
ATOM     10  C   LIG d   1       4.590  81.587 114.876  0.00  0.00     0.006 C 
ENDBRANCH   8   9
BRANCH   8  11
ATOM     11  C   LIG d   1       4.778  82.087 111.064  0.00  0.00     0.028 C 
ATOM     12  C   LIG d   1       4.531  80.954 110.055  0.00  0.00     0.006 C 
ENDBRANCH   8  11
ENDBRANCH   7   8
ENDBRANCH   1   7
BRANCH   6  13
ATOM     13  N   LIG d   1       1.168  82.552 110.469  0.00  0.00    -0.311 N 
ATOM     14  C   LIG d   1       0.601  81.470 111.000  0.00  0.00     0.210 C 
ATOM     15  C   LIG d   1       0.490  80.269 110.056  0.00  0.00     0.109 C 
ATOM     16  O   LIG d   1       0.151  81.402 112.153  0.00  0.00    -0.276 OA
ATOM     17  H   LIG d   1       1.476  82.531 109.516  0.00  0.00     0.149 HD
ENDBRANCH   6  13
BRANCH   5  18
ATOM     18  N   LIG d   1      -0.500  85.091 110.142  0.00  0.00     0.381 N 
ATOM     19  H   LIG d   1      -1.006  84.782 110.947  0.00  0.00    -0.090 HD
ATOM     20  H   LIG d   1      -0.697  84.461 109.384  0.00  0.00    -0.090 HD
ATOM     21  H   LIG d   1      -0.782  86.015 109.898  0.00  0.00    -0.090 HD
ENDBRANCH   5  18
BRANCH   3  22
ATOM     22  C   LIG d   1       3.228  87.581 111.829  0.00  0.00     0.382 C 
ATOM     23  O   LIG d   1       4.479  87.661 111.876  0.00  0.00    -0.241 OA
ATOM     24  O   LIG d   1       2.541  88.611 111.971  0.00  0.00    -0.241 OA
ENDBRANCH   3  22
TORSDOF 7
ENDMDL
MODEL 8
REMARK VINA RESULT:      -4.9     10.076     12.633
REMARK  7 active torsions:
REMARK  status: ('A' for Active; 'I' for Inactive)
REMARK    1  A    between atoms: C_2  and  C_3 
REMARK    2  A    between atoms: C_3  and  O_6 
REMARK    3  A    between atoms: C_3  and  C_4 
REMARK    4  A    between atoms: C_7  and  O_6 
REMARK    5  A    between atoms: C_9  and  C_10 
REMARK    6  A    between atoms: N_15  and  C_14 
REMARK    7  A    between atoms: N_20  and  C_19 
REMARK       I    between atoms: C_22  and  N_20 
ROOT
ATOM      1  C   LIG d   1       5.190  85.369 113.046  0.00  0.00     0.161 C 
ATOM      2  C   LIG d   1       5.089  86.687 113.521  0.00  0.00     0.016 C 
ATOM      3  C   LIG d   1       4.137  87.616 113.040  0.00  0.00     0.038 C 
ATOM      4  C   LIG d   1       3.117  87.241 112.154  0.00  0.00     0.028 C 
ATOM      5  C   LIG d   1       3.490  86.057 111.267  0.00  0.00    -0.047 C 
ATOM      6  C   LIG d   1       4.015  84.909 112.159  0.00  0.00     0.091 C 
ENDROOT
BRANCH   1   7
ATOM      7  O   LIG d   1       5.367  84.463 114.153  0.00  0.00    -0.368 OA
BRANCH   7   8
ATOM      8  C   LIG d   1       4.960  84.958 115.453  0.00  0.00     0.119 C 
BRANCH   8   9
ATOM      9  C   LIG d   1       6.049  84.553 116.464  0.00  0.00     0.028 C 
ATOM     10  C   LIG d   1       7.385  85.270 116.208  0.00  0.00     0.006 C 
ENDBRANCH   8   9
BRANCH   8  11
ATOM     11  C   LIG d   1       3.681  84.268 115.936  0.00  0.00     0.028 C 
ATOM     12  C   LIG d   1       2.412  85.076 115.621  0.00  0.00     0.006 C 
ENDBRANCH   8  11
ENDBRANCH   7   8
ENDBRANCH   1   7
BRANCH   6  13
ATOM     13  N   LIG d   1       4.481  83.742 111.364  0.00  0.00    -0.311 N 
ATOM     14  C   LIG d   1       3.709  82.696 111.077  0.00  0.00     0.210 C 
ATOM     15  C   LIG d   1       4.393  81.592 110.263  0.00  0.00     0.109 C 
ATOM     16  O   LIG d   1       2.514  82.591 111.391  0.00  0.00    -0.276 OA
ATOM     17  H   LIG d   1       5.429  83.759 111.043  0.00  0.00     0.149 HD
ENDBRANCH   6  13
BRANCH   5  18
ATOM     18  N   LIG d   1       2.291  85.685 110.492  0.00  0.00     0.381 N 
ATOM     19  H   LIG d   1       1.890  84.849 110.868  0.00  0.00    -0.090 HD
ATOM     20  H   LIG d   1       2.561  85.506 109.541  0.00  0.00    -0.090 HD
ATOM     21  H   LIG d   1       1.623  86.424 110.522  0.00  0.00    -0.090 HD
ENDBRANCH   5  18
BRANCH   3  22
ATOM     22  C   LIG d   1       4.225  88.947 113.418  0.00  0.00     0.382 C 
ATOM     23  O   LIG d   1       4.778  89.779 112.659  0.00  0.00    -0.241 OA
ATOM     24  O   LIG d   1       3.797  89.319 114.527  0.00  0.00    -0.241 OA
ENDBRANCH   3  22
TORSDOF 7
ENDMDL
MODEL 9
REMARK VINA RESULT:      -4.9     10.486     13.068
REMARK  7 active torsions:
REMARK  status: ('A' for Active; 'I' for Inactive)
REMARK    1  A    between atoms: C_2  and  C_3 
REMARK    2  A    between atoms: C_3  and  O_6 
REMARK    3  A    between atoms: C_3  and  C_4 
REMARK    4  A    between atoms: C_7  and  O_6 
REMARK    5  A    between atoms: C_9  and  C_10 
REMARK    6  A    between atoms: N_15  and  C_14 
REMARK    7  A    between atoms: N_20  and  C_19 
REMARK       I    between atoms: C_22  and  N_20 
ROOT
ATOM      1  C   LIG d   1       4.938  85.212 113.885  0.00  0.00     0.161 C 
ATOM      2  C   LIG d   1       4.482  86.318 113.149  0.00  0.00     0.016 C 
ATOM      3  C   LIG d   1       4.767  87.657 113.499  0.00  0.00     0.038 C 
ATOM      4  C   LIG d   1       5.660  87.979 114.532  0.00  0.00     0.028 C 
ATOM      5  C   LIG d   1       5.744  86.910 115.616  0.00  0.00    -0.047 C 
ATOM      6  C   LIG d   1       6.006  85.540 114.950  0.00  0.00     0.091 C 
ENDROOT
BRANCH   1   7
ATOM      7  O   LIG d   1       5.422  84.193 112.987  0.00  0.00    -0.368 OA
BRANCH   7   8
ATOM      8  C   LIG d   1       4.429  83.272 112.474  0.00  0.00     0.119 C 
BRANCH   8   9
ATOM      9  C   LIG d   1       4.963  81.844 112.698  0.00  0.00     0.028 C 
ATOM     10  C   LIG d   1       5.061  81.482 114.190  0.00  0.00     0.006 C 
ENDBRANCH   8   9
BRANCH   8  11
ATOM     11  C   LIG d   1       4.271  83.412 110.957  0.00  0.00     0.028 C 
ATOM     12  C   LIG d   1       5.034  82.330 110.176  0.00  0.00     0.006 C 
ENDBRANCH   8  11
ENDBRANCH   7   8
ENDBRANCH   1   7
BRANCH   6  13
ATOM     13  N   LIG d   1       6.018  84.425 115.932  0.00  0.00    -0.311 N 
ATOM     14  C   LIG d   1       7.131  83.951 116.489  0.00  0.00     0.210 C 
ATOM     15  C   LIG d   1       6.922  82.785 117.461  0.00  0.00     0.109 C 
ATOM     16  O   LIG d   1       8.269  84.405 116.294  0.00  0.00    -0.276 OA
ATOM     17  H   LIG d   1       5.135  84.018 116.171  0.00  0.00     0.149 HD
ENDBRANCH   6  13
BRANCH   5  18
ATOM     18  N   LIG d   1       6.810  87.309 116.554  0.00  0.00     0.381 N 
ATOM     19  H   LIG d   1       7.437  87.945 116.104  0.00  0.00    -0.090 HD
ATOM     20  H   LIG d   1       7.329  86.492 116.824  0.00  0.00    -0.090 HD
ATOM     21  H   LIG d   1       6.411  87.739 117.360  0.00  0.00    -0.090 HD
ENDBRANCH   5  18
BRANCH   3  22
ATOM     22  C   LIG d   1       4.123  88.693 112.838  0.00  0.00     0.382 C 
ATOM     23  O   LIG d   1       4.669  89.820 112.758  0.00  0.00    -0.241 OA
ATOM     24  O   LIG d   1       2.985  88.526 112.361  0.00  0.00    -0.241 OA
ENDBRANCH   3  22
TORSDOF 7
ENDMDL
