MODEL 1
REMARK VINA RESULT:      -5.4      0.000      0.000
REMARK  7 active torsions:
REMARK  status: ('A' for Active; 'I' for Inactive)
REMARK    1  A    between atoms: C_2  and  C_3 
REMARK    2  A    between atoms: C_3  and  O_6 
REMARK    3  A    between atoms: C_3  and  C_4 
REMARK    4  A    between atoms: C_7  and  O_6 
REMARK    5  A    between atoms: C_9  and  C_10 
REMARK    6  A    between atoms: N_15  and  C_14 
REMARK    7  A    between atoms: N_20  and  C_19 
REMARK       I    between atoms: C_22  and  N_20 
ROOT
ATOM      1  C   LIG d   1       0.259  83.241 112.634  0.00  0.00     0.161 C 
ATOM      2  C   LIG d   1      -0.980  82.754 113.083  0.00  0.00     0.016 C 
ATOM      3  C   LIG d   1      -1.493  81.485 112.727  0.00  0.00     0.038 C 
ATOM      4  C   LIG d   1      -0.729  80.550 112.013  0.00  0.00     0.028 C 
ATOM      5  C   LIG d   1       0.323  81.188 111.113  0.00  0.00    -0.047 C 
ATOM      6  C   LIG d   1       1.155  82.190 111.946  0.00  0.00     0.091 C 
ENDROOT
BRANCH   1   7
ATOM      7  O   LIG d   1       0.964  83.864 113.726  0.00  0.00    -0.368 OA
BRANCH   7   8
ATOM      8  C   LIG d   1       1.146  85.298 113.631  0.00  0.00     0.119 C 
BRANCH   8   9
ATOM      9  C   LIG d   1       2.657  85.565 113.496  0.00  0.00     0.028 C 
ATOM     10  C   LIG d   1       3.007  86.316 112.200  0.00  0.00     0.006 C 
ENDBRANCH   8   9
BRANCH   8  11
ATOM     11  C   LIG d   1       0.724  85.999 114.926  0.00  0.00     0.028 C 
ATOM     12  C   LIG d   1      -0.374  85.238 115.686  0.00  0.00     0.006 C 
ENDBRANCH   8  11
ENDBRANCH   7   8
ENDBRANCH   1   7
BRANCH   6  13
ATOM     13  N   LIG d   1       2.153  82.921 111.122  0.00  0.00    -0.311 N 
ATOM     14  C   LIG d   1       3.396  82.488 110.920  0.00  0.00     0.210 C 
ATOM     15  C   LIG d   1       4.268  83.404 110.055  0.00  0.00     0.109 C 
ATOM     16  O   LIG d   1       3.850  81.416 111.349  0.00  0.00    -0.276 OA
ATOM     17  H   LIG d   1       1.859  83.786 110.710  0.00  0.00     0.149 HD
ENDBRANCH   6  13
BRANCH   5  18
ATOM     18  N   LIG d   1       1.136  80.101 110.537  0.00  0.00     0.381 N 
ATOM     19  H   LIG d   1       1.351  79.427 111.244  0.00  0.00    -0.090 HD
ATOM     20  H   LIG d   1       1.999  80.485 110.195  0.00  0.00    -0.090 HD
ATOM     21  H   LIG d   1       0.641  79.663 109.791  0.00  0.00    -0.090 HD
ENDBRANCH   5  18
BRANCH   3  22
ATOM     22  C   LIG d   1      -2.801  81.157 113.051  0.00  0.00     0.382 C 
ATOM     23  O   LIG d   1      -3.036  80.431 114.047  0.00  0.00    -0.241 OA
ATOM     24  O   LIG d   1      -3.745  81.541 112.335  0.00  0.00    -0.241 OA
ENDBRANCH   3  22
TORSDOF 7
ENDMDL
MODEL 2
REMARK VINA RESULT:      -5.3      4.426      7.679
REMARK  7 active torsions:
REMARK  status: ('A' for Active; 'I' for Inactive)
REMARK    1  A    between atoms: C_2  and  C_3 
REMARK    2  A    between atoms: C_3  and  O_6 
REMARK    3  A    between atoms: C_3  and  C_4 
REMARK    4  A    between atoms: C_7  and  O_6 
REMARK    5  A    between atoms: C_9  and  C_10 
REMARK    6  A    between atoms: N_15  and  C_14 
REMARK    7  A    between atoms: N_20  and  C_19 
REMARK       I    between atoms: C_22  and  N_20 
ROOT
ATOM      1  C   LIG d   1       3.083  87.690 114.748  0.00  0.00     0.161 C 
ATOM      2  C   LIG d   1       3.164  88.667 115.754  0.00  0.00     0.016 C 
ATOM      3  C   LIG d   1       4.136  89.694 115.766  0.00  0.00     0.038 C 
ATOM      4  C   LIG d   1       5.005  89.905 114.685  0.00  0.00     0.028 C 
ATOM      5  C   LIG d   1       5.293  88.639 113.884  0.00  0.00    -0.047 C 
ATOM      6  C   LIG d   1       3.953  87.970 113.504  0.00  0.00     0.091 C 
ENDROOT
BRANCH   1   7
ATOM      7  O   LIG d   1       1.708  87.496 114.364  0.00  0.00    -0.368 OA
BRANCH   7   8
ATOM      8  C   LIG d   1       1.023  86.383 114.990  0.00  0.00     0.119 C 
BRANCH   8   9
ATOM      9  C   LIG d   1       0.331  85.578 113.874  0.00  0.00     0.028 C 
ATOM     10  C   LIG d   1       1.019  84.228 113.611  0.00  0.00     0.006 C 
ENDBRANCH   8   9
BRANCH   8  11
ATOM     11  C   LIG d   1      -0.109  86.868 115.902  0.00  0.00     0.028 C 
ATOM     12  C   LIG d   1      -1.378  86.008 115.785  0.00  0.00     0.006 C 
ENDBRANCH   8  11
ENDBRANCH   7   8
ENDBRANCH   1   7
BRANCH   6  13
ATOM     13  N   LIG d   1       4.145  86.681 112.790  0.00  0.00    -0.311 N 
ATOM     14  C   LIG d   1       3.416  86.308 111.740  0.00  0.00     0.210 C 
ATOM     15  C   LIG d   1       3.766  84.931 111.166  0.00  0.00     0.109 C 
ATOM     16  O   LIG d   1       2.535  87.000 111.210  0.00  0.00    -0.276 OA
ATOM     17  H   LIG d   1       4.861  86.071 113.135  0.00  0.00     0.149 HD
ENDBRANCH   6  13
BRANCH   5  18
ATOM     18  N   LIG d   1       6.098  89.029 112.711  0.00  0.00     0.381 N 
ATOM     19  H   LIG d   1       6.677  88.263 112.429  0.00  0.00    -0.090 HD
ATOM     20  H   LIG d   1       6.694  89.797 112.966  0.00  0.00    -0.090 HD
ATOM     21  H   LIG d   1       5.501  89.297 111.961  0.00  0.00    -0.090 HD
ENDBRANCH   5  18
BRANCH   3  22
ATOM     22  C   LIG d   1       4.271  90.499 116.887  0.00  0.00     0.382 C 
ATOM     23  O   LIG d   1       4.465  89.980 118.012  0.00  0.00    -0.241 OA
ATOM     24  O   LIG d   1       4.157  91.736 116.793  0.00  0.00    -0.241 OA
ENDBRANCH   3  22
TORSDOF 7
ENDMDL
MODEL 3
REMARK VINA RESULT:      -5.3      2.764      6.196
REMARK  7 active torsions:
REMARK  status: ('A' for Active; 'I' for Inactive)
REMARK    1  A    between atoms: C_2  and  C_3 
REMARK    2  A    between atoms: C_3  and  O_6 
REMARK    3  A    between atoms: C_3  and  C_4 
REMARK    4  A    between atoms: C_7  and  O_6 
REMARK    5  A    between atoms: C_9  and  C_10 
REMARK    6  A    between atoms: N_15  and  C_14 
REMARK    7  A    between atoms: N_20  and  C_19 
REMARK       I    between atoms: C_22  and  N_20 
ROOT
ATOM      1  C   LIG d   1       1.668  86.082 114.288  0.00  0.00     0.161 C 
ATOM      2  C   LIG d   1       2.588  87.138 114.179  0.00  0.00     0.016 C 
ATOM      3  C   LIG d   1       3.282  87.445 112.986  0.00  0.00     0.038 C 
ATOM      4  C   LIG d   1       2.988  86.807 111.772  0.00  0.00     0.028 C 
ATOM      5  C   LIG d   1       2.431  85.398 111.947  0.00  0.00    -0.047 C 
ATOM      6  C   LIG d   1       1.252  85.446 112.945  0.00  0.00     0.091 C 
ENDROOT
BRANCH   1   7
ATOM      7  O   LIG d   1       0.504  86.522 115.016  0.00  0.00    -0.368 OA
BRANCH   7   8
ATOM      8  C   LIG d   1       0.380  86.035 116.374  0.00  0.00     0.119 C 
BRANCH   8   9
ATOM      9  C   LIG d   1      -0.966  85.292 116.479  0.00  0.00     0.028 C 
ATOM     10  C   LIG d   1      -1.923  85.646 115.328  0.00  0.00     0.006 C 
ENDBRANCH   8   9
BRANCH   8  11
ATOM     11  C   LIG d   1       0.285  87.190 117.375  0.00  0.00     0.028 C 
ATOM     12  C   LIG d   1       0.052  88.549 116.695  0.00  0.00     0.006 C 
ENDBRANCH   8  11
ENDBRANCH   7   8
ENDBRANCH   1   7
BRANCH   6  13
ATOM     13  N   LIG d   1       0.703  84.096 113.238  0.00  0.00    -0.311 N 
ATOM     14  C   LIG d   1      -0.346  83.577 112.602  0.00  0.00     0.210 C 
ATOM     15  C   LIG d   1      -0.761  82.180 113.072  0.00  0.00     0.109 C 
ATOM     16  O   LIG d   1      -0.952  84.129 111.671  0.00  0.00    -0.276 OA
ATOM     17  H   LIG d   1       1.153  83.567 113.959  0.00  0.00     0.149 HD
ENDBRANCH   6  13
BRANCH   5  18
ATOM     18  N   LIG d   1       2.041  84.904 110.613  0.00  0.00     0.381 N 
ATOM     19  H   LIG d   1       2.596  84.108 110.371  0.00  0.00    -0.090 HD
ATOM     20  H   LIG d   1       2.213  85.626 109.936  0.00  0.00    -0.090 HD
ATOM     21  H   LIG d   1       1.075  84.659 110.610  0.00  0.00    -0.090 HD
ENDBRANCH   5  18
BRANCH   3  22
ATOM     22  C   LIG d   1       4.311  88.374 113.010  0.00  0.00     0.382 C 
ATOM     23  O   LIG d   1       4.049  89.601 113.035  0.00  0.00    -0.241 OA
ATOM     24  O   LIG d   1       5.499  88.002 112.961  0.00  0.00    -0.241 OA
ENDBRANCH   3  22
TORSDOF 7
ENDMDL
MODEL 4
REMARK VINA RESULT:      -5.1      1.229      1.938
REMARK  7 active torsions:
REMARK  status: ('A' for Active; 'I' for Inactive)
REMARK    1  A    between atoms: C_2  and  C_3 
REMARK    2  A    between atoms: C_3  and  O_6 
REMARK    3  A    between atoms: C_3  and  C_4 
REMARK    4  A    between atoms: C_7  and  O_6 
REMARK    5  A    between atoms: C_9  and  C_10 
REMARK    6  A    between atoms: N_15  and  C_14 
REMARK    7  A    between atoms: N_20  and  C_19 
REMARK       I    between atoms: C_22  and  N_20 
ROOT
ATOM      1  C   LIG d   1       0.067  83.282 112.299  0.00  0.00     0.161 C 
ATOM      2  C   LIG d   1      -1.141  82.790 112.821  0.00  0.00     0.016 C 
ATOM      3  C   LIG d   1      -1.563  81.449 112.676  0.00  0.00     0.038 C 
ATOM      4  C   LIG d   1      -0.730  80.465 112.123  0.00  0.00     0.028 C 
ATOM      5  C   LIG d   1       0.287  81.020 111.131  0.00  0.00    -0.047 C 
ATOM      6  C   LIG d   1       1.040  82.198 111.790  0.00  0.00     0.091 C 
ENDROOT
BRANCH   1   7
ATOM      7  O   LIG d   1       0.716  84.120 113.275  0.00  0.00    -0.368 OA
BRANCH   7   8
ATOM      8  C   LIG d   1       0.391  83.854 114.662  0.00  0.00     0.119 C 
BRANCH   8   9
ATOM      9  C   LIG d   1       0.112  85.209 115.340  0.00  0.00     0.028 C 
ATOM     10  C   LIG d   1      -1.392  85.471 115.532  0.00  0.00     0.006 C 
ENDBRANCH   8   9
BRANCH   8  11
ATOM     11  C   LIG d   1       1.589  83.264 115.411  0.00  0.00     0.028 C 
ATOM     12  C   LIG d   1       1.382  83.233 116.934  0.00  0.00     0.006 C 
ENDBRANCH   8  11
ENDBRANCH   7   8
ENDBRANCH   1   7
BRANCH   6  13
ATOM     13  N   LIG d   1       1.995  82.853 110.859  0.00  0.00    -0.311 N 
ATOM     14  C   LIG d   1       3.279  83.057 111.148  0.00  0.00     0.210 C 
ATOM     15  C   LIG d   1       4.084  83.766 110.055  0.00  0.00     0.109 C 
ATOM     16  O   LIG d   1       3.835  82.689 112.194  0.00  0.00    -0.276 OA
ATOM     17  H   LIG d   1       1.635  83.155 109.975  0.00  0.00     0.149 HD
ENDBRANCH   6  13
BRANCH   5  18
ATOM     18  N   LIG d   1       1.178  79.911 110.739  0.00  0.00     0.381 N 
ATOM     19  H   LIG d   1       1.847  80.235 110.070  0.00  0.00    -0.090 HD
ATOM     20  H   LIG d   1       0.627  79.188 110.311  0.00  0.00    -0.090 HD
ATOM     21  H   LIG d   1       1.647  79.551 111.541  0.00  0.00    -0.090 HD
ENDBRANCH   5  18
BRANCH   3  22
ATOM     22  C   LIG d   1      -2.849  81.089 113.049  0.00  0.00     0.382 C 
ATOM     23  O   LIG d   1      -3.834  81.514 112.398  0.00  0.00    -0.241 OA
ATOM     24  O   LIG d   1      -3.040  80.380 114.055  0.00  0.00    -0.241 OA
ENDBRANCH   3  22
TORSDOF 7
ENDMDL
MODEL 5
REMARK VINA RESULT:      -5.0      2.945      6.546
REMARK  7 active torsions:
REMARK  status: ('A' for Active; 'I' for Inactive)
REMARK    1  A    between atoms: C_2  and  C_3 
REMARK    2  A    between atoms: C_3  and  O_6 
REMARK    3  A    between atoms: C_3  and  C_4 
REMARK    4  A    between atoms: C_7  and  O_6 
REMARK    5  A    between atoms: C_9  and  C_10 
REMARK    6  A    between atoms: N_15  and  C_14 
REMARK    7  A    between atoms: N_20  and  C_19 
REMARK       I    between atoms: C_22  and  N_20 
ROOT
ATOM      1  C   LIG d   1       2.363  86.101 111.819  0.00  0.00     0.161 C 
ATOM      2  C   LIG d   1       3.211  87.173 112.144  0.00  0.00     0.016 C 
ATOM      3  C   LIG d   1       3.360  87.677 113.457  0.00  0.00     0.038 C 
ATOM      4  C   LIG d   1       2.781  87.041 114.565  0.00  0.00     0.028 C 
ATOM      5  C   LIG d   1       1.515  86.262 114.224  0.00  0.00    -0.047 C 
ATOM      6  C   LIG d   1       1.809  85.324 113.032  0.00  0.00     0.091 C 
ENDROOT
BRANCH   1   7
ATOM      7  O   LIG d   1       3.035  85.204 110.913  0.00  0.00    -0.368 OA
BRANCH   7   8
ATOM      8  C   LIG d   1       3.567  83.989 111.497  0.00  0.00     0.119 C 
BRANCH   8   9
ATOM      9  C   LIG d   1       5.074  84.212 111.734  0.00  0.00     0.028 C 
ATOM     10  C   LIG d   1       5.394  84.542 113.202  0.00  0.00     0.006 C 
ENDBRANCH   8   9
BRANCH   8  11
ATOM     11  C   LIG d   1       3.480  82.815 110.518  0.00  0.00     0.028 C 
ATOM     12  C   LIG d   1       3.081  81.498 111.201  0.00  0.00     0.006 C 
ENDBRANCH   8  11
ENDBRANCH   7   8
ENDBRANCH   1   7
BRANCH   6  13
ATOM     13  N   LIG d   1       0.601  84.586 112.579  0.00  0.00    -0.311 N 
ATOM     14  C   LIG d   1       0.296  83.356 112.989  0.00  0.00     0.210 C 
ATOM     15  C   LIG d   1      -0.984  82.771 112.385  0.00  0.00     0.109 C 
ATOM     16  O   LIG d   1       0.948  82.706 113.821  0.00  0.00    -0.276 OA
ATOM     17  H   LIG d   1      -0.000  85.052 111.928  0.00  0.00     0.149 HD
ENDBRANCH   6  13
BRANCH   5  18
ATOM     18  N   LIG d   1       1.096  85.539 115.440  0.00  0.00     0.381 N 
ATOM     19  H   LIG d   1       0.148  85.769 115.661  0.00  0.00    -0.090 HD
ATOM     20  H   LIG d   1       1.678  85.827 116.206  0.00  0.00    -0.090 HD
ATOM     21  H   LIG d   1       1.182  84.556 115.298  0.00  0.00    -0.090 HD
ENDBRANCH   5  18
BRANCH   3  22
ATOM     22  C   LIG d   1       4.063  88.854 113.665  0.00  0.00     0.382 C 
ATOM     23  O   LIG d   1       4.069  89.745 112.782  0.00  0.00    -0.241 OA
ATOM     24  O   LIG d   1       4.726  89.017 114.707  0.00  0.00    -0.241 OA
ENDBRANCH   3  22
TORSDOF 7
ENDMDL
MODEL 6
REMARK VINA RESULT:      -4.8      2.563      4.624
REMARK  7 active torsions:
REMARK  status: ('A' for Active; 'I' for Inactive)
REMARK    1  A    between atoms: C_2  and  C_3 
REMARK    2  A    between atoms: C_3  and  O_6 
REMARK    3  A    between atoms: C_3  and  C_4 
REMARK    4  A    between atoms: C_7  and  O_6 
REMARK    5  A    between atoms: C_9  and  C_10 
REMARK    6  A    between atoms: N_15  and  C_14 
REMARK    7  A    between atoms: N_20  and  C_19 
REMARK       I    between atoms: C_22  and  N_20 
ROOT
ATOM      1  C   LIG d   1       2.259  83.673 113.596  0.00  0.00     0.161 C 
ATOM      2  C   LIG d   1       1.421  82.778 112.911  0.00  0.00     0.016 C 
ATOM      3  C   LIG d   1       0.028  82.973 112.763  0.00  0.00     0.038 C 
ATOM      4  C   LIG d   1      -0.600  84.162 113.163  0.00  0.00     0.028 C 
ATOM      5  C   LIG d   1       0.116  84.870 114.308  0.00  0.00    -0.047 C 
ATOM      6  C   LIG d   1       1.610  85.029 113.943  0.00  0.00     0.091 C 
ENDROOT
BRANCH   1   7
ATOM      7  O   LIG d   1       3.474  83.875 112.848  0.00  0.00    -0.368 OA
BRANCH   7   8
ATOM      8  C   LIG d   1       3.483  85.005 111.941  0.00  0.00     0.119 C 
BRANCH   8   9
ATOM      9  C   LIG d   1       3.191  84.466 110.527  0.00  0.00     0.028 C 
ATOM     10  C   LIG d   1       4.087  83.272 110.157  0.00  0.00     0.006 C 
ENDBRANCH   8   9
BRANCH   8  11
ATOM     11  C   LIG d   1       4.875  85.638 111.854  0.00  0.00     0.028 C 
ATOM     12  C   LIG d   1       4.976  86.963 112.627  0.00  0.00     0.006 C 
ENDBRANCH   8  11
ENDBRANCH   7   8
ENDBRANCH   1   7
BRANCH   6  13
ATOM     13  N   LIG d   1       2.401  85.637 115.045  0.00  0.00    -0.311 N 
ATOM     14  C   LIG d   1       2.564  86.951 115.192  0.00  0.00     0.210 C 
ATOM     15  C   LIG d   1       3.433  87.365 116.384  0.00  0.00     0.109 C 
ATOM     16  O   LIG d   1       2.045  87.813 114.467  0.00  0.00    -0.276 OA
ATOM     17  H   LIG d   1       2.831  85.011 115.697  0.00  0.00     0.149 HD
ENDBRANCH   6  13
BRANCH   5  18
ATOM     18  N   LIG d   1      -0.565  86.159 114.530  0.00  0.00     0.381 N 
ATOM     19  H   LIG d   1      -0.771  86.590 113.651  0.00  0.00    -0.090 HD
ATOM     20  H   LIG d   1       0.049  86.767 115.043  0.00  0.00    -0.090 HD
ATOM     21  H   LIG d   1      -1.407  86.016 115.044  0.00  0.00    -0.090 HD
ENDBRANCH   5  18
BRANCH   3  22
ATOM     22  C   LIG d   1      -0.758  81.956 112.244  0.00  0.00     0.382 C 
ATOM     23  O   LIG d   1      -1.991  82.131 112.092  0.00  0.00    -0.241 OA
ATOM     24  O   LIG d   1      -0.257  80.849 111.968  0.00  0.00    -0.241 OA
ENDBRANCH   3  22
TORSDOF 7
ENDMDL
MODEL 7
REMARK VINA RESULT:      -4.8      2.226      5.119
REMARK  7 active torsions:
REMARK  status: ('A' for Active; 'I' for Inactive)
REMARK    1  A    between atoms: C_2  and  C_3 
REMARK    2  A    between atoms: C_3  and  O_6 
REMARK    3  A    between atoms: C_3  and  C_4 
REMARK    4  A    between atoms: C_7  and  O_6 
REMARK    5  A    between atoms: C_9  and  C_10 
REMARK    6  A    between atoms: N_15  and  C_14 
REMARK    7  A    between atoms: N_20  and  C_19 
REMARK       I    between atoms: C_22  and  N_20 
ROOT
ATOM      1  C   LIG d   1       1.134  83.249 113.711  0.00  0.00     0.161 C 
ATOM      2  C   LIG d   1       1.864  84.434 113.522  0.00  0.00     0.016 C 
ATOM      3  C   LIG d   1       1.758  85.236 112.363  0.00  0.00     0.038 C 
ATOM      4  C   LIG d   1       0.797  84.985 111.372  0.00  0.00     0.028 C 
ATOM      5  C   LIG d   1       0.389  83.519 111.282  0.00  0.00    -0.047 C 
ATOM      6  C   LIG d   1      -0.001  83.019 112.691  0.00  0.00     0.091 C 
ENDROOT
BRANCH   1   7
ATOM      7  O   LIG d   1       0.616  83.203 115.056  0.00  0.00    -0.368 OA
BRANCH   7   8
ATOM      8  C   LIG d   1      -0.642  83.886 115.278  0.00  0.00     0.119 C 
BRANCH   8   9
ATOM      9  C   LIG d   1      -0.378  85.029 116.277  0.00  0.00     0.028 C 
ATOM     10  C   LIG d   1      -1.014  86.357 115.831  0.00  0.00     0.006 C 
ENDBRANCH   8   9
BRANCH   8  11
ATOM     11  C   LIG d   1      -1.659  82.971 115.968  0.00  0.00     0.028 C 
ATOM     12  C   LIG d   1      -3.108  83.271 115.553  0.00  0.00     0.006 C 
ENDBRANCH   8  11
ENDBRANCH   7   8
ENDBRANCH   1   7
BRANCH   6  13
ATOM     13  N   LIG d   1      -0.333  81.570 112.707  0.00  0.00    -0.311 N 
ATOM     14  C   LIG d   1      -1.572  81.100 112.569  0.00  0.00     0.210 C 
ATOM     15  C   LIG d   1      -1.696  79.575 112.635  0.00  0.00     0.109 C 
ATOM     16  O   LIG d   1      -2.575  81.800 112.366  0.00  0.00    -0.276 OA
ATOM     17  H   LIG d   1       0.426  80.929 112.835  0.00  0.00     0.149 HD
ENDBRANCH   6  13
BRANCH   5  18
ATOM     18  N   LIG d   1      -0.715  83.422 110.308  0.00  0.00     0.381 N 
ATOM     19  H   LIG d   1      -0.358  83.531 109.380  0.00  0.00    -0.090 HD
ATOM     20  H   LIG d   1      -1.369  84.165 110.483  0.00  0.00    -0.090 HD
ATOM     21  H   LIG d   1      -1.171  82.541 110.395  0.00  0.00    -0.090 HD
ENDBRANCH   5  18
BRANCH   3  22
ATOM     22  C   LIG d   1       2.649  86.281 112.166  0.00  0.00     0.382 C 
ATOM     23  O   LIG d   1       2.438  87.122 111.260  0.00  0.00    -0.241 OA
ATOM     24  O   LIG d   1       3.683  86.367 112.855  0.00  0.00    -0.241 OA
ENDBRANCH   3  22
TORSDOF 7
ENDMDL
MODEL 8
REMARK VINA RESULT:      -4.7      3.201      5.225
REMARK  7 active torsions:
REMARK  status: ('A' for Active; 'I' for Inactive)
REMARK    1  A    between atoms: C_2  and  C_3 
REMARK    2  A    between atoms: C_3  and  O_6 
REMARK    3  A    between atoms: C_3  and  C_4 
REMARK    4  A    between atoms: C_7  and  O_6 
REMARK    5  A    between atoms: C_9  and  C_10 
REMARK    6  A    between atoms: N_15  and  C_14 
REMARK    7  A    between atoms: N_20  and  C_19 
REMARK       I    between atoms: C_22  and  N_20 
ROOT
ATOM      1  C   LIG d   1       2.840  84.973 113.278  0.00  0.00     0.161 C 
ATOM      2  C   LIG d   1       1.777  84.080 113.492  0.00  0.00     0.016 C 
ATOM      3  C   LIG d   1       0.619  84.412 114.232  0.00  0.00     0.038 C 
ATOM      4  C   LIG d   1       0.377  85.718 114.685  0.00  0.00     0.028 C 
ATOM      5  C   LIG d   1       1.651  86.520 114.928  0.00  0.00    -0.047 C 
ATOM      6  C   LIG d   1       2.545  86.436 113.669  0.00  0.00     0.091 C 
ENDROOT
BRANCH   1   7
ATOM      7  O   LIG d   1       3.272  84.899 111.905  0.00  0.00    -0.368 OA
BRANCH   7   8
ATOM      8  C   LIG d   1       2.413  84.156 111.006  0.00  0.00     0.119 C 
BRANCH   8   9
ATOM      9  C   LIG d   1       3.319  83.298 110.102  0.00  0.00     0.028 C 
ATOM     10  C   LIG d   1       3.506  81.870 110.644  0.00  0.00     0.006 C 
ENDBRANCH   8   9
BRANCH   8  11
ATOM     11  C   LIG d   1       1.660  85.091 110.055  0.00  0.00     0.028 C 
ATOM     12  C   LIG d   1       0.383  85.675 110.680  0.00  0.00     0.006 C 
ENDBRANCH   8  11
ENDBRANCH   7   8
ENDBRANCH   1   7
BRANCH   6  13
ATOM     13  N   LIG d   1       3.849  87.124 113.853  0.00  0.00    -0.311 N 
ATOM     14  C   LIG d   1       4.109  88.342 113.381  0.00  0.00     0.210 C 
ATOM     15  C   LIG d   1       5.523  88.858 113.665  0.00  0.00     0.109 C 
ATOM     16  O   LIG d   1       3.291  89.057 112.782  0.00  0.00    -0.276 OA
ATOM     17  H   LIG d   1       4.560  86.629 114.356  0.00  0.00     0.149 HD
ENDBRANCH   6  13
BRANCH   5  18
ATOM     18  N   LIG d   1       1.252  87.900 115.262  0.00  0.00     0.381 N 
ATOM     19  H   LIG d   1       0.725  88.293 114.507  0.00  0.00    -0.090 HD
ATOM     20  H   LIG d   1       2.079  88.456 115.391  0.00  0.00    -0.090 HD
ATOM     21  H   LIG d   1       0.706  87.905 116.095  0.00  0.00    -0.090 HD
ENDBRANCH   5  18
BRANCH   3  22
ATOM     22  C   LIG d   1      -0.294  83.422 114.562  0.00  0.00     0.382 C 
ATOM     23  O   LIG d   1      -0.082  82.677 115.549  0.00  0.00    -0.241 OA
ATOM     24  O   LIG d   1      -1.304  83.234 113.858  0.00  0.00    -0.241 OA
ENDBRANCH   3  22
TORSDOF 7
ENDMDL
MODEL 9
REMARK VINA RESULT:      -4.7     23.502     26.725
REMARK  7 active torsions:
REMARK  status: ('A' for Active; 'I' for Inactive)
REMARK    1  A    between atoms: C_2  and  C_3 
REMARK    2  A    between atoms: C_3  and  O_6 
REMARK    3  A    between atoms: C_3  and  C_4 
REMARK    4  A    between atoms: C_7  and  O_6 
REMARK    5  A    between atoms: C_9  and  C_10 
REMARK    6  A    between atoms: N_15  and  C_14 
REMARK    7  A    between atoms: N_20  and  C_19 
REMARK       I    between atoms: C_22  and  N_20 
ROOT
ATOM      1  C   LIG d   1     -25.807  85.365 114.359  0.00  0.00     0.161 C 
ATOM      2  C   LIG d   1     -24.687  86.205 114.246  0.00  0.00     0.016 C 
ATOM      3  C   LIG d   1     -23.367  85.725 114.086  0.00  0.00     0.038 C 
ATOM      4  C   LIG d   1     -23.092  84.365 113.876  0.00  0.00     0.028 C 
ATOM      5  C   LIG d   1     -24.136  83.436 114.487  0.00  0.00    -0.047 C 
ATOM      6  C   LIG d   1     -25.540  83.883 114.021  0.00  0.00     0.091 C 
ENDROOT
BRANCH   1   7
ATOM      7  O   LIG d   1     -26.886  85.876 113.552  0.00  0.00    -0.368 OA
BRANCH   7   8
ATOM      8  C   LIG d   1     -26.834  85.554 112.140  0.00  0.00     0.119 C 
BRANCH   8   9
ATOM      9  C   LIG d   1     -26.644  86.875 111.370  0.00  0.00     0.028 C 
ATOM     10  C   LIG d   1     -27.266  88.076 112.103  0.00  0.00     0.006 C 
ENDBRANCH   8   9
BRANCH   8  11
ATOM     11  C   LIG d   1     -28.169  84.987 111.649  0.00  0.00     0.028 C 
ATOM     12  C   LIG d   1     -29.224  84.897 112.763  0.00  0.00     0.006 C 
ENDBRANCH   8  11
ENDBRANCH   7   8
ENDBRANCH   1   7
BRANCH   6  13
ATOM     13  N   LIG d   1     -26.626  83.078 114.640  0.00  0.00    -0.311 N 
ATOM     14  C   LIG d   1     -27.222  82.057 114.026  0.00  0.00     0.210 C 
ATOM     15  C   LIG d   1     -28.330  81.375 114.835  0.00  0.00     0.109 C 
ATOM     16  O   LIG d   1     -26.918  81.632 112.902  0.00  0.00    -0.276 OA
ATOM     17  H   LIG d   1     -26.914  83.335 115.564  0.00  0.00     0.149 HD
ENDBRANCH   6  13
BRANCH   5  18
ATOM     18  N   LIG d   1     -23.801  82.059 114.075  0.00  0.00     0.381 N 
ATOM     19  H   LIG d   1     -23.177  81.649 114.741  0.00  0.00    -0.090 HD
ATOM     20  H   LIG d   1     -23.337  82.090 113.184  0.00  0.00    -0.090 HD
ATOM     21  H   LIG d   1     -24.631  81.512 114.007  0.00  0.00    -0.090 HD
ENDBRANCH   5  18
BRANCH   3  22
ATOM     22  C   LIG d   1     -22.300  86.606 114.175  0.00  0.00     0.382 C 
ATOM     23  O   LIG d   1     -22.372  87.604 114.933  0.00  0.00    -0.241 OA
ATOM     24  O   LIG d   1     -21.283  86.440 113.475  0.00  0.00    -0.241 OA
ENDBRANCH   3  22
TORSDOF 7
ENDMDL
