MODEL 1
REMARK VINA RESULT:      -5.9      0.000      0.000
REMARK  7 active torsions:
REMARK  status: ('A' for Active; 'I' for Inactive)
REMARK    1  A    between atoms: C_2  and  C_3 
REMARK    2  A    between atoms: C_3  and  O_6 
REMARK    3  A    between atoms: C_3  and  C_4 
REMARK    4  A    between atoms: C_7  and  O_6 
REMARK    5  A    between atoms: C_9  and  C_10 
REMARK    6  A    between atoms: N_15  and  C_14 
REMARK    7  A    between atoms: N_20  and  C_19 
REMARK       I    between atoms: C_22  and  N_20 
ROOT
ATOM      1  C   LIG d   1      -2.710  76.848 115.173  0.00  0.00     0.161 C 
ATOM      2  C   LIG d   1      -2.953  77.896 114.271  0.00  0.00     0.016 C 
ATOM      3  C   LIG d   1      -2.254  78.052 113.051  0.00  0.00     0.038 C 
ATOM      4  C   LIG d   1      -1.363  77.077 112.578  0.00  0.00     0.028 C 
ATOM      5  C   LIG d   1      -0.715  76.258 113.689  0.00  0.00    -0.047 C 
ATOM      6  C   LIG d   1      -1.820  75.714 114.622  0.00  0.00     0.091 C 
ENDROOT
BRANCH   1   7
ATOM      7  O   LIG d   1      -3.961  76.316 115.652  0.00  0.00    -0.368 OA
BRANCH   7   8
ATOM      8  C   LIG d   1      -4.899  75.881 114.638  0.00  0.00     0.119 C 
BRANCH   8   9
ATOM      9  C   LIG d   1      -6.318  76.174 115.163  0.00  0.00     0.028 C 
ATOM     10  C   LIG d   1      -6.312  77.138 116.361  0.00  0.00     0.006 C 
ENDBRANCH   8   9
BRANCH   8  11
ATOM     11  C   LIG d   1      -4.845  74.363 114.442  0.00  0.00     0.028 C 
ATOM     12  C   LIG d   1      -5.130  73.585 115.736  0.00  0.00     0.006 C 
ENDBRANCH   8  11
ENDBRANCH   7   8
ENDBRANCH   1   7
BRANCH   6  13
ATOM     13  N   LIG d   1      -1.267  74.971 115.784  0.00  0.00    -0.311 N 
ATOM     14  C   LIG d   1      -1.064  73.655 115.785  0.00  0.00     0.210 C 
ATOM     15  C   LIG d   1      -0.504  73.087 117.093  0.00  0.00     0.109 C 
ATOM     16  O   LIG d   1      -1.266  72.908 114.815  0.00  0.00    -0.276 OA
ATOM     17  H   LIG d   1      -1.046  75.504 116.603  0.00  0.00     0.149 HD
ENDBRANCH   6  13
BRANCH   5  18
ATOM     18  N   LIG d   1       0.081  75.192 113.052  0.00  0.00     0.381 N 
ATOM     19  H   LIG d   1       0.341  75.471 112.126  0.00  0.00    -0.090 HD
ATOM     20  H   LIG d   1      -0.482  74.363 112.985  0.00  0.00    -0.090 HD
ATOM     21  H   LIG d   1       0.897  75.007 113.592  0.00  0.00    -0.090 HD
ENDBRANCH   5  18
BRANCH   3  22
ATOM     22  C   LIG d   1      -2.414  79.213 112.310  0.00  0.00     0.382 C 
ATOM     23  O   LIG d   1      -3.152  80.133 112.738  0.00  0.00    -0.241 OA
ATOM     24  O   LIG d   1      -1.865  79.334 111.199  0.00  0.00    -0.241 OA
ENDBRANCH   3  22
TORSDOF 7
ENDMDL
MODEL 2
REMARK VINA RESULT:      -5.2      9.658     11.736
REMARK  7 active torsions:
REMARK  status: ('A' for Active; 'I' for Inactive)
REMARK    1  A    between atoms: C_2  and  C_3 
REMARK    2  A    between atoms: C_3  and  O_6 
REMARK    3  A    between atoms: C_3  and  C_4 
REMARK    4  A    between atoms: C_7  and  O_6 
REMARK    5  A    between atoms: C_9  and  C_10 
REMARK    6  A    between atoms: N_15  and  C_14 
REMARK    7  A    between atoms: N_20  and  C_19 
REMARK       I    between atoms: C_22  and  N_20 
ROOT
ATOM      1  C   LIG d   1       1.724  85.957 113.227  0.00  0.00     0.161 C 
ATOM      2  C   LIG d   1       0.571  85.379 112.669  0.00  0.00     0.016 C 
ATOM      3  C   LIG d   1       0.565  84.690 111.435  0.00  0.00     0.038 C 
ATOM      4  C   LIG d   1       1.750  84.398 110.743  0.00  0.00     0.028 C 
ATOM      5  C   LIG d   1       2.871  85.397 111.013  0.00  0.00    -0.047 C 
ATOM      6  C   LIG d   1       3.046  85.554 112.541  0.00  0.00     0.091 C 
ENDROOT
BRANCH   1   7
ATOM      7  O   LIG d   1       1.783  85.667 114.637  0.00  0.00    -0.368 OA
BRANCH   7   8
ATOM      8  C   LIG d   1       1.224  86.672 115.519  0.00  0.00     0.119 C 
BRANCH   8   9
ATOM      9  C   LIG d   1       2.393  87.526 116.046  0.00  0.00     0.028 C 
ATOM     10  C   LIG d   1       2.162  89.032 115.833  0.00  0.00     0.006 C 
ENDBRANCH   8   9
BRANCH   8  11
ATOM     11  C   LIG d   1       0.594  86.035 116.761  0.00  0.00     0.028 C 
ATOM     12  C   LIG d   1      -0.570  86.862 117.329  0.00  0.00     0.006 C 
ENDBRANCH   8  11
ENDBRANCH   7   8
ENDBRANCH   1   7
BRANCH   6  13
ATOM     13  N   LIG d   1       4.066  86.576 112.892  0.00  0.00    -0.311 N 
ATOM     14  C   LIG d   1       3.882  87.884 112.721  0.00  0.00     0.210 C 
ATOM     15  C   LIG d   1       5.068  88.763 113.130  0.00  0.00     0.109 C 
ATOM     16  O   LIG d   1       2.837  88.402 112.298  0.00  0.00    -0.276 OA
ATOM     17  H   LIG d   1       4.932  86.245 113.270  0.00  0.00     0.149 HD
ENDBRANCH   6  13
BRANCH   5  18
ATOM     18  N   LIG d   1       4.084  84.898 110.339  0.00  0.00     0.381 N 
ATOM     19  H   LIG d   1       3.926  83.971 109.999  0.00  0.00    -0.090 HD
ATOM     20  H   LIG d   1       4.836  84.866 111.006  0.00  0.00    -0.090 HD
ATOM     21  H   LIG d   1       4.327  85.500 109.583  0.00  0.00    -0.090 HD
ENDBRANCH   5  18
BRANCH   3  22
ATOM     22  C   LIG d   1      -0.641  84.318 110.861  0.00  0.00     0.382 C 
ATOM     23  O   LIG d   1      -1.421  85.195 110.419  0.00  0.00    -0.241 OA
ATOM     24  O   LIG d   1      -0.979  83.120 110.821  0.00  0.00    -0.241 OA
ENDBRANCH   3  22
TORSDOF 7
ENDMDL
MODEL 3
REMARK VINA RESULT:      -5.1      8.222     10.992
REMARK  7 active torsions:
REMARK  status: ('A' for Active; 'I' for Inactive)
REMARK    1  A    between atoms: C_2  and  C_3 
REMARK    2  A    between atoms: C_3  and  O_6 
REMARK    3  A    between atoms: C_3  and  C_4 
REMARK    4  A    between atoms: C_7  and  O_6 
REMARK    5  A    between atoms: C_9  and  C_10 
REMARK    6  A    between atoms: N_15  and  C_14 
REMARK    7  A    between atoms: N_20  and  C_19 
REMARK       I    between atoms: C_22  and  N_20 
ROOT
ATOM      1  C   LIG d   1       1.789  84.406 113.405  0.00  0.00     0.161 C 
ATOM      2  C   LIG d   1       0.929  83.373 112.995  0.00  0.00     0.016 C 
ATOM      3  C   LIG d   1       0.341  83.315 111.711  0.00  0.00     0.038 C 
ATOM      4  C   LIG d   1       0.694  84.213 110.692  0.00  0.00     0.028 C 
ATOM      5  C   LIG d   1       1.170  85.564 111.214  0.00  0.00    -0.047 C 
ATOM      6  C   LIG d   1       2.273  85.333 112.271  0.00  0.00     0.091 C 
ENDROOT
BRANCH   1   7
ATOM      7  O   LIG d   1       2.915  83.852 114.115  0.00  0.00    -0.368 OA
BRANCH   7   8
ATOM      8  C   LIG d   1       3.032  84.219 115.511  0.00  0.00     0.119 C 
BRANCH   8   9
ATOM      9  C   LIG d   1       4.385  84.935 115.689  0.00  0.00     0.028 C 
ATOM     10  C   LIG d   1       4.235  86.325 116.329  0.00  0.00     0.006 C 
ENDBRANCH   8   9
BRANCH   8  11
ATOM     11  C   LIG d   1       3.107  82.981 116.409  0.00  0.00     0.028 C 
ATOM     12  C   LIG d   1       2.136  83.048 117.599  0.00  0.00     0.006 C 
ENDBRANCH   8  11
ENDBRANCH   7   8
ENDBRANCH   1   7
BRANCH   6  13
ATOM     13  N   LIG d   1       2.736  86.601 112.894  0.00  0.00    -0.311 N 
ATOM     14  C   LIG d   1       3.818  87.264 112.490  0.00  0.00     0.210 C 
ATOM     15  C   LIG d   1       4.129  88.538 113.282  0.00  0.00     0.109 C 
ATOM     16  O   LIG d   1       4.532  86.934 111.531  0.00  0.00    -0.276 OA
ATOM     17  H   LIG d   1       2.197  86.957 113.659  0.00  0.00     0.149 HD
ENDBRANCH   6  13
BRANCH   5  18
ATOM     18  N   LIG d   1       1.635  86.350 110.055  0.00  0.00     0.381 N 
ATOM     19  H   LIG d   1       2.621  86.505 110.125  0.00  0.00    -0.090 HD
ATOM     20  H   LIG d   1       1.174  87.243 110.062  0.00  0.00    -0.090 HD
ATOM     21  H   LIG d   1       1.427  85.867 109.209  0.00  0.00    -0.090 HD
ENDBRANCH   5  18
BRANCH   3  22
ATOM     22  C   LIG d   1      -0.643  82.374 111.448  0.00  0.00     0.382 C 
ATOM     23  O   LIG d   1      -0.419  81.442 110.638  0.00  0.00    -0.241 OA
ATOM     24  O   LIG d   1      -1.767  82.471 111.977  0.00  0.00    -0.241 OA
ENDBRANCH   3  22
TORSDOF 7
ENDMDL
MODEL 4
REMARK VINA RESULT:      -5.1      8.647     11.102
REMARK  7 active torsions:
REMARK  status: ('A' for Active; 'I' for Inactive)
REMARK    1  A    between atoms: C_2  and  C_3 
REMARK    2  A    between atoms: C_3  and  O_6 
REMARK    3  A    between atoms: C_3  and  C_4 
REMARK    4  A    between atoms: C_7  and  O_6 
REMARK    5  A    between atoms: C_9  and  C_10 
REMARK    6  A    between atoms: N_15  and  C_14 
REMARK    7  A    between atoms: N_20  and  C_19 
REMARK       I    between atoms: C_22  and  N_20 
ROOT
ATOM      1  C   LIG d   1       3.453  84.962 112.969  0.00  0.00     0.161 C 
ATOM      2  C   LIG d   1       4.012  86.203 113.313  0.00  0.00     0.016 C 
ATOM      3  C   LIG d   1       3.633  87.423 112.707  0.00  0.00     0.038 C 
ATOM      4  C   LIG d   1       2.553  87.503 111.816  0.00  0.00     0.028 C 
ATOM      5  C   LIG d   1       2.292  86.204 111.062  0.00  0.00    -0.047 C 
ATOM      6  C   LIG d   1       2.195  85.044 112.079  0.00  0.00     0.091 C 
ENDROOT
BRANCH   1   7
ATOM      7  O   LIG d   1       3.173  84.204 114.163  0.00  0.00    -0.368 OA
BRANCH   7   8
ATOM      8  C   LIG d   1       1.800  84.229 114.626  0.00  0.00     0.119 C 
BRANCH   8   9
ATOM      9  C   LIG d   1       1.734  85.193 115.827  0.00  0.00     0.028 C 
ATOM     10  C   LIG d   1       0.923  86.462 115.517  0.00  0.00     0.006 C 
ENDBRANCH   8   9
BRANCH   8  11
ATOM     11  C   LIG d   1       1.373  82.865 115.177  0.00  0.00     0.028 C 
ATOM     12  C   LIG d   1       2.070  81.692 114.469  0.00  0.00     0.006 C 
ENDBRANCH   8  11
ENDBRANCH   7   8
ENDBRANCH   1   7
BRANCH   6  13
ATOM     13  N   LIG d   1       2.025  83.723 111.418  0.00  0.00    -0.311 N 
ATOM     14  C   LIG d   1       0.839  83.153 111.214  0.00  0.00     0.210 C 
ATOM     15  C   LIG d   1       0.889  81.781 110.534  0.00  0.00     0.109 C 
ATOM     16  O   LIG d   1      -0.252  83.668 111.502  0.00  0.00    -0.276 OA
ATOM     17  H   LIG d   1       2.857  83.250 111.124  0.00  0.00     0.149 HD
ENDBRANCH   6  13
BRANCH   5  18
ATOM     18  N   LIG d   1       1.059  86.386 110.273  0.00  0.00     0.381 N 
ATOM     19  H   LIG d   1       1.232  87.011 109.512  0.00  0.00    -0.090 HD
ATOM     20  H   LIG d   1       0.354  86.794 110.862  0.00  0.00    -0.090 HD
ATOM     21  H   LIG d   1       0.743  85.507 109.926  0.00  0.00    -0.090 HD
ENDBRANCH   5  18
BRANCH   3  22
ATOM     22  C   LIG d   1       4.364  88.574 112.961  0.00  0.00     0.382 C 
ATOM     23  O   LIG d   1       3.897  89.458 113.718  0.00  0.00    -0.241 OA
ATOM     24  O   LIG d   1       5.465  88.758 112.408  0.00  0.00    -0.241 OA
ENDBRANCH   3  22
TORSDOF 7
ENDMDL
MODEL 5
REMARK VINA RESULT:      -5.1      8.877     11.339
REMARK  7 active torsions:
REMARK  status: ('A' for Active; 'I' for Inactive)
REMARK    1  A    between atoms: C_2  and  C_3 
REMARK    2  A    between atoms: C_3  and  O_6 
REMARK    3  A    between atoms: C_3  and  C_4 
REMARK    4  A    between atoms: C_7  and  O_6 
REMARK    5  A    between atoms: C_9  and  C_10 
REMARK    6  A    between atoms: N_15  and  C_14 
REMARK    7  A    between atoms: N_20  and  C_19 
REMARK       I    between atoms: C_22  and  N_20 
ROOT
ATOM      1  C   LIG d   1       2.519  85.317 113.656  0.00  0.00     0.161 C 
ATOM      2  C   LIG d   1       3.238  86.508 113.849  0.00  0.00     0.016 C 
ATOM      3  C   LIG d   1       3.338  87.524 112.870  0.00  0.00     0.038 C 
ATOM      4  C   LIG d   1       2.597  87.483 111.680  0.00  0.00     0.028 C 
ATOM      5  C   LIG d   1       2.256  86.067 111.227  0.00  0.00    -0.047 C 
ATOM      6  C   LIG d   1       1.612  85.304 112.407  0.00  0.00     0.091 C 
ENDROOT
BRANCH   1   7
ATOM      7  O   LIG d   1       1.750  85.013 114.836  0.00  0.00    -0.368 OA
BRANCH   7   8
ATOM      8  C   LIG d   1       1.417  86.138 115.687  0.00  0.00     0.119 C 
BRANCH   8   9
ATOM      9  C   LIG d   1       1.669  85.707 117.144  0.00  0.00     0.028 C 
ATOM     10  C   LIG d   1       1.987  84.207 117.266  0.00  0.00     0.006 C 
ENDBRANCH   8   9
BRANCH   8  11
ATOM     11  C   LIG d   1      -0.077  86.468 115.614  0.00  0.00     0.028 C 
ATOM     12  C   LIG d   1      -0.667  86.861 116.977  0.00  0.00     0.006 C 
ENDBRANCH   8  11
ENDBRANCH   7   8
ENDBRANCH   1   7
BRANCH   6  13
ATOM     13  N   LIG d   1       1.325  83.884 112.075  0.00  0.00    -0.311 N 
ATOM     14  C   LIG d   1       0.122  83.329 112.208  0.00  0.00     0.210 C 
ATOM     15  C   LIG d   1       0.048  81.846 111.828  0.00  0.00     0.109 C 
ATOM     16  O   LIG d   1      -0.898  83.931 112.574  0.00  0.00    -0.276 OA
ATOM     17  H   LIG d   1       2.090  83.330 111.741  0.00  0.00     0.149 HD
ENDBRANCH   6  13
BRANCH   5  18
ATOM     18  N   LIG d   1       1.367  86.176 110.055  0.00  0.00     0.381 N 
ATOM     19  H   LIG d   1       0.709  85.422 110.058  0.00  0.00    -0.090 HD
ATOM     20  H   LIG d   1       1.921  86.108 109.220  0.00  0.00    -0.090 HD
ATOM     21  H   LIG d   1       0.885  87.047 110.073  0.00  0.00    -0.090 HD
ENDBRANCH   5  18
BRANCH   3  22
ATOM     22  C   LIG d   1       4.220  88.577 113.061  0.00  0.00     0.382 C 
ATOM     23  O   LIG d   1       5.260  88.658 112.364  0.00  0.00    -0.241 OA
ATOM     24  O   LIG d   1       4.011  89.423 113.951  0.00  0.00    -0.241 OA
ENDBRANCH   3  22
TORSDOF 7
ENDMDL
MODEL 6
REMARK VINA RESULT:      -5.0      8.612     11.308
REMARK  7 active torsions:
REMARK  status: ('A' for Active; 'I' for Inactive)
REMARK    1  A    between atoms: C_2  and  C_3 
REMARK    2  A    between atoms: C_3  and  O_6 
REMARK    3  A    between atoms: C_3  and  C_4 
REMARK    4  A    between atoms: C_7  and  O_6 
REMARK    5  A    between atoms: C_9  and  C_10 
REMARK    6  A    between atoms: N_15  and  C_14 
REMARK    7  A    between atoms: N_20  and  C_19 
REMARK       I    between atoms: C_22  and  N_20 
ROOT
ATOM      1  C   LIG d   1       1.739  85.892 113.276  0.00  0.00     0.161 C 
ATOM      2  C   LIG d   1       0.584  85.319 112.717  0.00  0.00     0.016 C 
ATOM      3  C   LIG d   1       0.562  84.692 111.450  0.00  0.00     0.038 C 
ATOM      4  C   LIG d   1       1.735  84.460 110.717  0.00  0.00     0.028 C 
ATOM      5  C   LIG d   1       2.842  85.467 111.010  0.00  0.00    -0.047 C 
ATOM      6  C   LIG d   1       3.051  85.551 112.539  0.00  0.00     0.091 C 
ENDROOT
BRANCH   1   7
ATOM      7  O   LIG d   1       1.838  85.533 114.668  0.00  0.00    -0.368 OA
BRANCH   7   8
ATOM      8  C   LIG d   1       2.649  84.371 114.971  0.00  0.00     0.119 C 
BRANCH   8   9
ATOM      9  C   LIG d   1       1.691  83.192 115.230  0.00  0.00     0.028 C 
ATOM     10  C   LIG d   1       1.835  82.077 114.180  0.00  0.00     0.006 C 
ENDBRANCH   8   9
BRANCH   8  11
ATOM     11  C   LIG d   1       3.425  84.557 116.278  0.00  0.00     0.028 C 
ATOM     12  C   LIG d   1       4.870  85.027 116.052  0.00  0.00     0.006 C 
ENDBRANCH   8  11
ENDBRANCH   7   8
ENDBRANCH   1   7
BRANCH   6  13
ATOM     13  N   LIG d   1       4.059  86.575 112.918  0.00  0.00    -0.311 N 
ATOM     14  C   LIG d   1       3.873  87.883 112.752  0.00  0.00     0.210 C 
ATOM     15  C   LIG d   1       5.047  88.764 113.191  0.00  0.00     0.109 C 
ATOM     16  O   LIG d   1       2.834  88.400 112.313  0.00  0.00    -0.276 OA
ATOM     17  H   LIG d   1       4.919  86.245 113.311  0.00  0.00     0.149 HD
ENDBRANCH   6  13
BRANCH   5  18
ATOM     18  N   LIG d   1       4.048  85.028 110.284  0.00  0.00     0.381 N 
ATOM     19  H   LIG d   1       4.866  85.359 110.755  0.00  0.00    -0.090 HD
ATOM     20  H   LIG d   1       4.034  85.423 109.361  0.00  0.00    -0.090 HD
ATOM     21  H   LIG d   1       4.068  84.033 110.227  0.00  0.00    -0.090 HD
ENDBRANCH   5  18
BRANCH   3  22
ATOM     22  C   LIG d   1      -0.651  84.325 110.887  0.00  0.00     0.382 C 
ATOM     23  O   LIG d   1      -0.954  83.112 110.787  0.00  0.00    -0.241 OA
ATOM     24  O   LIG d   1      -1.426  85.190 110.438  0.00  0.00    -0.241 OA
ENDBRANCH   3  22
TORSDOF 7
ENDMDL
MODEL 7
REMARK VINA RESULT:      -4.9      8.280     10.660
REMARK  7 active torsions:
REMARK  status: ('A' for Active; 'I' for Inactive)
REMARK    1  A    between atoms: C_2  and  C_3 
REMARK    2  A    between atoms: C_3  and  O_6 
REMARK    3  A    between atoms: C_3  and  C_4 
REMARK    4  A    between atoms: C_7  and  O_6 
REMARK    5  A    between atoms: C_9  and  C_10 
REMARK    6  A    between atoms: N_15  and  C_14 
REMARK    7  A    between atoms: N_20  and  C_19 
REMARK       I    between atoms: C_22  and  N_20 
ROOT
ATOM      1  C   LIG d   1       1.571  84.874 113.421  0.00  0.00     0.161 C 
ATOM      2  C   LIG d   1       1.987  86.165 113.054  0.00  0.00     0.016 C 
ATOM      3  C   LIG d   1       3.108  86.812 113.622  0.00  0.00     0.038 C 
ATOM      4  C   LIG d   1       3.985  86.147 114.493  0.00  0.00     0.028 C 
ATOM      5  C   LIG d   1       3.322  85.019 115.276  0.00  0.00    -0.047 C 
ATOM      6  C   LIG d   1       2.580  84.091 114.287  0.00  0.00     0.091 C 
ENDROOT
BRANCH   1   7
ATOM      7  O   LIG d   1       1.230  84.117 112.242  0.00  0.00    -0.368 OA
BRANCH   7   8
ATOM      8  C   LIG d   1       1.376  84.808 110.977  0.00  0.00     0.119 C 
BRANCH   8   9
ATOM      9  C   LIG d   1       0.016  84.743 110.255  0.00  0.00     0.028 C 
ATOM     10  C   LIG d   1      -0.820  86.017 110.463  0.00  0.00     0.006 C 
ENDBRANCH   8   9
BRANCH   8  11
ATOM     11  C   LIG d   1       2.359  84.081 110.055  0.00  0.00     0.028 C 
ATOM     12  C   LIG d   1       3.818  84.504 110.288  0.00  0.00     0.006 C 
ENDBRANCH   8  11
ENDBRANCH   7   8
ENDBRANCH   1   7
BRANCH   6  13
ATOM     13  N   LIG d   1       1.833  83.008 114.979  0.00  0.00    -0.311 N 
ATOM     14  C   LIG d   1       2.345  81.801 115.216  0.00  0.00     0.210 C 
ATOM     15  C   LIG d   1       1.399  80.826 115.924  0.00  0.00     0.109 C 
ATOM     16  O   LIG d   1       3.503  81.456 114.937  0.00  0.00    -0.276 OA
ATOM     17  H   LIG d   1       0.896  83.212 115.268  0.00  0.00     0.149 HD
ENDBRANCH   6  13
BRANCH   5  18
ATOM     18  N   LIG d   1       4.377  84.326 116.038  0.00  0.00     0.381 N 
ATOM     19  H   LIG d   1       4.274  83.336 115.937  0.00  0.00    -0.090 HD
ATOM     20  H   LIG d   1       4.279  84.555 117.012  0.00  0.00    -0.090 HD
ATOM     21  H   LIG d   1       5.275  84.609 115.712  0.00  0.00    -0.090 HD
ENDBRANCH   5  18
BRANCH   3  22
ATOM     22  C   LIG d   1       3.339  88.152 113.351  0.00  0.00     0.382 C 
ATOM     23  O   LIG d   1       4.038  88.838 114.134  0.00  0.00    -0.241 OA
ATOM     24  O   LIG d   1       2.820  88.693 112.356  0.00  0.00    -0.241 OA
ENDBRANCH   3  22
TORSDOF 7
ENDMDL
MODEL 8
REMARK VINA RESULT:      -4.9     22.119     24.728
REMARK  7 active torsions:
REMARK  status: ('A' for Active; 'I' for Inactive)
REMARK    1  A    between atoms: C_2  and  C_3 
REMARK    2  A    between atoms: C_3  and  O_6 
REMARK    3  A    between atoms: C_3  and  C_4 
REMARK    4  A    between atoms: C_7  and  O_6 
REMARK    5  A    between atoms: C_9  and  C_10 
REMARK    6  A    between atoms: N_15  and  C_14 
REMARK    7  A    between atoms: N_20  and  C_19 
REMARK       I    between atoms: C_22  and  N_20 
ROOT
ATOM      1  C   LIG d   1     -25.574  85.304 113.142  0.00  0.00     0.161 C 
ATOM      2  C   LIG d   1     -24.475  86.170 113.274  0.00  0.00     0.016 C 
ATOM      3  C   LIG d   1     -23.186  85.737 113.663  0.00  0.00     0.038 C 
ATOM      4  C   LIG d   1     -22.871  84.377 113.802  0.00  0.00     0.028 C 
ATOM      5  C   LIG d   1     -24.071  83.512 114.172  0.00  0.00    -0.047 C 
ATOM      6  C   LIG d   1     -25.223  83.802 113.182  0.00  0.00     0.091 C 
ENDROOT
BRANCH   1   7
ATOM      7  O   LIG d   1     -26.301  85.617 111.938  0.00  0.00    -0.368 OA
BRANCH   7   8
ATOM      8  C   LIG d   1     -26.999  86.887 111.927  0.00  0.00     0.119 C 
BRANCH   8   9
ATOM      9  C   LIG d   1     -28.503  86.586 111.780  0.00  0.00     0.028 C 
ATOM     10  C   LIG d   1     -28.771  85.334 110.928  0.00  0.00     0.006 C 
ENDBRANCH   8   9
BRANCH   8  11
ATOM     11  C   LIG d   1     -26.629  87.716 110.693  0.00  0.00     0.028 C 
ATOM     12  C   LIG d   1     -27.005  89.199 110.837  0.00  0.00     0.006 C 
ENDBRANCH   8  11
ENDBRANCH   7   8
ENDBRANCH   1   7
BRANCH   6  13
ATOM     13  N   LIG d   1     -26.464  83.059 113.523  0.00  0.00    -0.311 N 
ATOM     14  C   LIG d   1     -27.183  82.384 112.628  0.00  0.00     0.210 C 
ATOM     15  C   LIG d   1     -28.438  81.706 113.186  0.00  0.00     0.109 C 
ATOM     16  O   LIG d   1     -26.884  82.256 111.431  0.00  0.00    -0.276 OA
ATOM     17  H   LIG d   1     -26.763  83.084 114.478  0.00  0.00     0.149 HD
ENDBRANCH   6  13
BRANCH   5  18
ATOM     18  N   LIG d   1     -23.630  82.105 114.149  0.00  0.00     0.381 N 
ATOM     19  H   LIG d   1     -22.849  81.984 114.762  0.00  0.00    -0.090 HD
ATOM     20  H   LIG d   1     -23.338  81.871 113.216  0.00  0.00    -0.090 HD
ATOM     21  H   LIG d   1     -24.377  81.508 114.430  0.00  0.00    -0.090 HD
ENDBRANCH   5  18
BRANCH   3  22
ATOM     22  C   LIG d   1     -22.207  86.673 113.957  0.00  0.00     0.382 C 
ATOM     23  O   LIG d   1     -21.101  86.630 113.366  0.00  0.00    -0.241 OA
ATOM     24  O   LIG d   1     -22.399  87.534 114.837  0.00  0.00    -0.241 OA
ENDBRANCH   3  22
TORSDOF 7
ENDMDL
MODEL 9
REMARK VINA RESULT:      -4.9     10.898     13.136
REMARK  7 active torsions:
REMARK  status: ('A' for Active; 'I' for Inactive)
REMARK    1  A    between atoms: C_2  and  C_3 
REMARK    2  A    between atoms: C_3  and  O_6 
REMARK    3  A    between atoms: C_3  and  C_4 
REMARK    4  A    between atoms: C_7  and  O_6 
REMARK    5  A    between atoms: C_9  and  C_10 
REMARK    6  A    between atoms: N_15  and  C_14 
REMARK    7  A    between atoms: N_20  and  C_19 
REMARK       I    between atoms: C_22  and  N_20 
ROOT
ATOM      1  C   LIG d   1       3.093  87.080 114.626  0.00  0.00     0.161 C 
ATOM      2  C   LIG d   1       2.954  86.193 113.545  0.00  0.00     0.016 C 
ATOM      3  C   LIG d   1       3.655  86.337 112.325  0.00  0.00     0.038 C 
ATOM      4  C   LIG d   1       4.663  87.298 112.159  0.00  0.00     0.028 C 
ATOM      5  C   LIG d   1       4.480  88.528 113.042  0.00  0.00    -0.047 C 
ATOM      6  C   LIG d   1       4.271  88.069 114.503  0.00  0.00     0.091 C 
ENDROOT
BRANCH   1   7
ATOM      7  O   LIG d   1       3.189  86.337 115.857  0.00  0.00    -0.368 OA
BRANCH   7   8
ATOM      8  C   LIG d   1       2.025  86.378 116.719  0.00  0.00     0.119 C 
BRANCH   8   9
ATOM      9  C   LIG d   1       1.340  85.000 116.638  0.00  0.00     0.028 C 
ATOM     10  C   LIG d   1       1.506  84.185 117.931  0.00  0.00     0.006 C 
ENDBRANCH   8   9
BRANCH   8  11
ATOM     11  C   LIG d   1       0.986  87.378 116.204  0.00  0.00     0.028 C 
ATOM     12  C   LIG d   1      -0.411  86.757 116.044  0.00  0.00     0.006 C 
ENDBRANCH   8  11
ENDBRANCH   7   8
ENDBRANCH   1   7
BRANCH   6  13
ATOM     13  N   LIG d   1       4.000  89.206 115.421  0.00  0.00    -0.311 N 
ATOM     14  C   LIG d   1       4.899  89.686 116.279  0.00  0.00     0.210 C 
ATOM     15  C   LIG d   1       4.408  90.849 117.147  0.00  0.00     0.109 C 
ATOM     16  O   LIG d   1       6.066  89.280 116.382  0.00  0.00    -0.276 OA
ATOM     17  H   LIG d   1       3.087  89.616 115.382  0.00  0.00     0.149 HD
ENDBRANCH   6  13
BRANCH   5  18
ATOM     18  N   LIG d   1       5.670  89.382 112.869  0.00  0.00     0.381 N 
ATOM     19  H   LIG d   1       5.620  89.858 111.990  0.00  0.00    -0.090 HD
ATOM     20  H   LIG d   1       6.490  88.801 112.866  0.00  0.00    -0.090 HD
ATOM     21  H   LIG d   1       5.725  90.044 113.611  0.00  0.00    -0.090 HD
ENDBRANCH   5  18
BRANCH   3  22
ATOM     22  C   LIG d   1       3.321  85.539 111.242  0.00  0.00     0.382 C 
ATOM     23  O   LIG d   1       3.783  84.376 111.154  0.00  0.00    -0.241 OA
ATOM     24  O   LIG d   1       2.598  85.982 110.330  0.00  0.00    -0.241 OA
ENDBRANCH   3  22
TORSDOF 7
ENDMDL
