MODEL 1
REMARK VINA RESULT:      -5.8      0.000      0.000
REMARK  7 active torsions:
REMARK  status: ('A' for Active; 'I' for Inactive)
REMARK    1  A    between atoms: C_2  and  C_3 
REMARK    2  A    between atoms: C_3  and  O_6 
REMARK    3  A    between atoms: C_3  and  C_4 
REMARK    4  A    between atoms: C_7  and  O_6 
REMARK    5  A    between atoms: C_9  and  C_10 
REMARK    6  A    between atoms: N_15  and  C_14 
REMARK    7  A    between atoms: N_20  and  C_19 
REMARK       I    between atoms: C_22  and  N_20 
ROOT
ATOM      1  C   LIG d   1      -2.869  77.504 115.990  0.00  0.00     0.161 C 
ATOM      2  C   LIG d   1      -3.071  78.496 115.017  0.00  0.00     0.016 C 
ATOM      3  C   LIG d   1      -2.244  78.652 113.881  0.00  0.00     0.038 C 
ATOM      4  C   LIG d   1      -1.241  77.725 113.561  0.00  0.00     0.028 C 
ATOM      5  C   LIG d   1      -0.677  76.998 114.777  0.00  0.00    -0.047 C 
ATOM      6  C   LIG d   1      -1.848  76.414 115.600  0.00  0.00     0.091 C 
ENDROOT
BRANCH   1   7
ATOM      7  O   LIG d   1      -4.131  76.904 116.346  0.00  0.00    -0.368 OA
BRANCH   7   8
ATOM      8  C   LIG d   1      -4.873  76.292 115.263  0.00  0.00     0.119 C 
BRANCH   8   9
ATOM      9  C   LIG d   1      -6.372  76.487 115.562  0.00  0.00     0.028 C 
ATOM     10  C   LIG d   1      -6.616  77.185 116.910  0.00  0.00     0.006 C 
ENDBRANCH   8   9
BRANCH   8  11
ATOM     11  C   LIG d   1      -4.660  74.776 115.228  0.00  0.00     0.028 C 
ATOM     12  C   LIG d   1      -5.970  73.987 115.382  0.00  0.00     0.006 C 
ENDBRANCH   8  11
ENDBRANCH   7   8
ENDBRANCH   1   7
BRANCH   6  13
ATOM     13  N   LIG d   1      -1.389  75.759 116.853  0.00  0.00    -0.311 N 
ATOM     14  C   LIG d   1      -0.984  74.492 116.911  0.00  0.00     0.210 C 
ATOM     15  C   LIG d   1      -0.571  74.008 118.305  0.00  0.00     0.109 C 
ATOM     16  O   LIG d   1      -0.896  73.731 115.935  0.00  0.00    -0.276 OA
ATOM     17  H   LIG d   1      -1.399  76.312 117.687  0.00  0.00     0.149 HD
ENDBRANCH   6  13
BRANCH   5  18
ATOM     18  N   LIG d   1       0.256  75.966 114.287  0.00  0.00     0.381 N 
ATOM     19  H   LIG d   1      -0.135  75.058 114.435  0.00  0.00    -0.090 HD
ATOM     20  H   LIG d   1       1.113  76.030 114.808  0.00  0.00    -0.090 HD
ATOM     21  H   LIG d   1       0.437  76.104 113.317  0.00  0.00    -0.090 HD
ENDBRANCH   5  18
BRANCH   3  22
ATOM     22  C   LIG d   1      -2.390  79.769 113.072  0.00  0.00     0.382 C 
ATOM     23  O   LIG d   1      -3.172  80.690 113.411  0.00  0.00    -0.241 OA
ATOM     24  O   LIG d   1      -1.783  79.847 111.987  0.00  0.00    -0.241 OA
ENDBRANCH   3  22
TORSDOF 7
ENDMDL
MODEL 2
REMARK VINA RESULT:      -5.7      9.329     12.090
REMARK  7 active torsions:
REMARK  status: ('A' for Active; 'I' for Inactive)
REMARK    1  A    between atoms: C_2  and  C_3 
REMARK    2  A    between atoms: C_3  and  O_6 
REMARK    3  A    between atoms: C_3  and  C_4 
REMARK    4  A    between atoms: C_7  and  O_6 
REMARK    5  A    between atoms: C_9  and  C_10 
REMARK    6  A    between atoms: N_15  and  C_14 
REMARK    7  A    between atoms: N_20  and  C_19 
REMARK       I    between atoms: C_22  and  N_20 
ROOT
ATOM      1  C   LIG d   1       2.433  87.297 112.466  0.00  0.00     0.161 C 
ATOM      2  C   LIG d   1       2.768  88.659 112.532  0.00  0.00     0.016 C 
ATOM      3  C   LIG d   1       3.214  89.295 113.714  0.00  0.00     0.038 C 
ATOM      4  C   LIG d   1       3.502  88.572 114.881  0.00  0.00     0.028 C 
ATOM      5  C   LIG d   1       2.699  87.281 115.008  0.00  0.00    -0.047 C 
ATOM      6  C   LIG d   1       2.847  86.469 113.701  0.00  0.00     0.091 C 
ENDROOT
BRANCH   1   7
ATOM      7  O   LIG d   1       2.983  86.716 111.267  0.00  0.00    -0.368 OA
BRANCH   7   8
ATOM      8  C   LIG d   1       2.025  86.327 110.251  0.00  0.00     0.119 C 
BRANCH   8   9
ATOM      9  C   LIG d   1       0.622  86.687 110.775  0.00  0.00     0.028 C 
ATOM     10  C   LIG d   1      -0.376  85.526 110.625  0.00  0.00     0.006 C 
ENDBRANCH   8   9
BRANCH   8  11
ATOM     11  C   LIG d   1       2.008  84.808 110.055  0.00  0.00     0.028 C 
ATOM     12  C   LIG d   1       3.415  84.190 110.056  0.00  0.00     0.006 C 
ENDBRANCH   8  11
ENDBRANCH   7   8
ENDBRANCH   1   7
BRANCH   6  13
ATOM     13  N   LIG d   1       2.025  85.230 113.708  0.00  0.00    -0.311 N 
ATOM     14  C   LIG d   1       2.537  84.010 113.563  0.00  0.00     0.210 C 
ATOM     15  C   LIG d   1       1.512  82.872 113.580  0.00  0.00     0.109 C 
ATOM     16  O   LIG d   1       3.747  83.758 113.455  0.00  0.00    -0.276 OA
ATOM     17  H   LIG d   1       1.036  85.340 113.822  0.00  0.00     0.149 HD
ENDBRANCH   6  13
BRANCH   5  18
ATOM     18  N   LIG d   1       3.197  86.562 116.195  0.00  0.00     0.381 N 
ATOM     19  H   LIG d   1       2.472  86.501 116.883  0.00  0.00    -0.090 HD
ATOM     20  H   LIG d   1       3.964  87.077 116.590  0.00  0.00    -0.090 HD
ATOM     21  H   LIG d   1       3.498  85.647 115.939  0.00  0.00    -0.090 HD
ENDBRANCH   5  18
BRANCH   3  22
ATOM     22  C   LIG d   1       3.339  90.675 113.747  0.00  0.00     0.382 C 
ATOM     23  O   LIG d   1       3.559  91.259 114.835  0.00  0.00    -0.241 OA
ATOM     24  O   LIG d   1       3.189  91.348 112.709  0.00  0.00    -0.241 OA
ENDBRANCH   3  22
TORSDOF 7
ENDMDL
MODEL 3
REMARK VINA RESULT:      -5.5      9.618     11.914
REMARK  7 active torsions:
REMARK  status: ('A' for Active; 'I' for Inactive)
REMARK    1  A    between atoms: C_2  and  C_3 
REMARK    2  A    between atoms: C_3  and  O_6 
REMARK    3  A    between atoms: C_3  and  C_4 
REMARK    4  A    between atoms: C_7  and  O_6 
REMARK    5  A    between atoms: C_9  and  C_10 
REMARK    6  A    between atoms: N_15  and  C_14 
REMARK    7  A    between atoms: N_20  and  C_19 
REMARK       I    between atoms: C_22  and  N_20 
ROOT
ATOM      1  C   LIG d   1       4.293  85.657 112.647  0.00  0.00     0.161 C 
ATOM      2  C   LIG d   1       4.352  87.016 112.997  0.00  0.00     0.016 C 
ATOM      3  C   LIG d   1       3.516  88.003 112.426  0.00  0.00     0.038 C 
ATOM      4  C   LIG d   1       2.454  87.671 111.570  0.00  0.00     0.028 C 
ATOM      5  C   LIG d   1       2.679  86.374 110.801  0.00  0.00    -0.047 C 
ATOM      6  C   LIG d   1       3.067  85.260 111.798  0.00  0.00     0.091 C 
ENDROOT
BRANCH   1   7
ATOM      7  O   LIG d   1       4.365  84.844 113.835  0.00  0.00    -0.368 OA
BRANCH   7   8
ATOM      8  C   LIG d   1       3.936  85.474 115.066  0.00  0.00     0.119 C 
BRANCH   8   9
ATOM      9  C   LIG d   1       4.929  85.061 116.169  0.00  0.00     0.028 C 
ATOM     10  C   LIG d   1       5.683  86.264 116.762  0.00  0.00     0.006 C 
ENDBRANCH   8   9
BRANCH   8  11
ATOM     11  C   LIG d   1       2.576  84.937 115.523  0.00  0.00     0.028 C 
ATOM     12  C   LIG d   1       1.403  85.818 115.064  0.00  0.00     0.006 C 
ENDBRANCH   8  11
ENDBRANCH   7   8
ENDBRANCH   1   7
BRANCH   6  13
ATOM     13  N   LIG d   1       3.387  83.977 111.119  0.00  0.00    -0.311 N 
ATOM     14  C   LIG d   1       2.490  83.015 110.908  0.00  0.00     0.210 C 
ATOM     15  C   LIG d   1       3.034  81.766 110.208  0.00  0.00     0.109 C 
ATOM     16  O   LIG d   1       1.289  83.092 111.205  0.00  0.00    -0.276 OA
ATOM     17  H   LIG d   1       4.333  83.844 110.817  0.00  0.00     0.149 HD
ENDBRANCH   6  13
BRANCH   5  18
ATOM     18  N   LIG d   1       1.442  86.078 110.055  0.00  0.00     0.381 N 
ATOM     19  H   LIG d   1       1.123  86.903 109.587  0.00  0.00    -0.090 HD
ATOM     20  H   LIG d   1       0.732  85.790 110.705  0.00  0.00    -0.090 HD
ATOM     21  H   LIG d   1       1.608  85.354 109.392  0.00  0.00    -0.090 HD
ENDBRANCH   5  18
BRANCH   3  22
ATOM     22  C   LIG d   1       3.764  89.344 112.678  0.00  0.00     0.382 C 
ATOM     23  O   LIG d   1       2.807  90.142 112.825  0.00  0.00    -0.241 OA
ATOM     24  O   LIG d   1       4.932  89.774 112.717  0.00  0.00    -0.241 OA
ENDBRANCH   3  22
TORSDOF 7
ENDMDL
MODEL 4
REMARK VINA RESULT:      -5.3      1.343      2.238
REMARK  7 active torsions:
REMARK  status: ('A' for Active; 'I' for Inactive)
REMARK    1  A    between atoms: C_2  and  C_3 
REMARK    2  A    between atoms: C_3  and  O_6 
REMARK    3  A    between atoms: C_3  and  C_4 
REMARK    4  A    between atoms: C_7  and  O_6 
REMARK    5  A    between atoms: C_9  and  C_10 
REMARK    6  A    between atoms: N_15  and  C_14 
REMARK    7  A    between atoms: N_20  and  C_19 
REMARK       I    between atoms: C_22  and  N_20 
ROOT
ATOM      1  C   LIG d   1      -3.200  78.085 115.901  0.00  0.00     0.161 C 
ATOM      2  C   LIG d   1      -3.302  79.087 114.922  0.00  0.00     0.016 C 
ATOM      3  C   LIG d   1      -2.418  79.195 113.824  0.00  0.00     0.038 C 
ATOM      4  C   LIG d   1      -1.456  78.212 113.547  0.00  0.00     0.028 C 
ATOM      5  C   LIG d   1      -0.989  77.455 114.786  0.00  0.00    -0.047 C 
ATOM      6  C   LIG d   1      -2.227  76.939 115.555  0.00  0.00     0.091 C 
ENDROOT
BRANCH   1   7
ATOM      7  O   LIG d   1      -4.508  77.558 116.200  0.00  0.00    -0.368 OA
BRANCH   7   8
ATOM      8  C   LIG d   1      -4.982  77.758 117.554  0.00  0.00     0.119 C 
BRANCH   8   9
ATOM      9  C   LIG d   1      -6.522  77.718 117.516  0.00  0.00     0.028 C 
ATOM     10  C   LIG d   1      -7.061  76.418 116.897  0.00  0.00     0.006 C 
ENDBRANCH   8   9
BRANCH   8  11
ATOM     11  C   LIG d   1      -4.625  79.155 118.069  0.00  0.00     0.028 C 
ATOM     12  C   LIG d   1      -5.768  80.167 117.889  0.00  0.00     0.006 C 
ENDBRANCH   8  11
ENDBRANCH   7   8
ENDBRANCH   1   7
BRANCH   6  13
ATOM     13  N   LIG d   1      -1.862  76.259 116.825  0.00  0.00    -0.311 N 
ATOM     14  C   LIG d   1      -1.499  74.980 116.894  0.00  0.00     0.210 C 
ATOM     15  C   LIG d   1      -1.183  74.472 118.305  0.00  0.00     0.109 C 
ATOM     16  O   LIG d   1      -1.378  74.225 115.917  0.00  0.00    -0.276 OA
ATOM     17  H   LIG d   1      -1.903  76.806 117.663  0.00  0.00     0.149 HD
ENDBRANCH   6  13
BRANCH   5  18
ATOM     18  N   LIG d   1      -0.095  76.371 114.336  0.00  0.00     0.381 N 
ATOM     19  H   LIG d   1       0.750  76.384 114.872  0.00  0.00    -0.090 HD
ATOM     20  H   LIG d   1       0.141  76.525 113.371  0.00  0.00    -0.090 HD
ATOM     21  H   LIG d   1      -0.548  75.490 114.438  0.00  0.00    -0.090 HD
ENDBRANCH   5  18
BRANCH   3  22
ATOM     22  C   LIG d   1      -2.464  80.318 113.012  0.00  0.00     0.382 C 
ATOM     23  O   LIG d   1      -1.470  80.627 112.312  0.00  0.00    -0.241 OA
ATOM     24  O   LIG d   1      -3.472  81.050 113.004  0.00  0.00    -0.241 OA
ENDBRANCH   3  22
TORSDOF 7
ENDMDL
MODEL 5
REMARK VINA RESULT:      -5.1     22.005     24.596
REMARK  7 active torsions:
REMARK  status: ('A' for Active; 'I' for Inactive)
REMARK    1  A    between atoms: C_2  and  C_3 
REMARK    2  A    between atoms: C_3  and  O_6 
REMARK    3  A    between atoms: C_3  and  C_4 
REMARK    4  A    between atoms: C_7  and  O_6 
REMARK    5  A    between atoms: C_9  and  C_10 
REMARK    6  A    between atoms: N_15  and  C_14 
REMARK    7  A    between atoms: N_20  and  C_19 
REMARK       I    between atoms: C_22  and  N_20 
ROOT
ATOM      1  C   LIG d   1     -25.803  84.916 112.885  0.00  0.00     0.161 C 
ATOM      2  C   LIG d   1     -24.776  85.839 113.143  0.00  0.00     0.016 C 
ATOM      3  C   LIG d   1     -23.432  85.464 113.374  0.00  0.00     0.038 C 
ATOM      4  C   LIG d   1     -22.994  84.141 113.211  0.00  0.00     0.028 C 
ATOM      5  C   LIG d   1     -24.089  83.106 113.447  0.00  0.00    -0.047 C 
ATOM      6  C   LIG d   1     -25.323  83.478 112.594  0.00  0.00     0.091 C 
ENDROOT
BRANCH   1   7
ATOM      7  O   LIG d   1     -26.632  85.395 111.808  0.00  0.00    -0.368 OA
BRANCH   7   8
ATOM      8  C   LIG d   1     -27.928  85.919 112.185  0.00  0.00     0.119 C 
BRANCH   8   9
ATOM      9  C   LIG d   1     -28.997  84.972 111.606  0.00  0.00     0.028 C 
ATOM     10  C   LIG d   1     -28.752  84.647 110.123  0.00  0.00     0.006 C 
ENDBRANCH   8   9
BRANCH   8  11
ATOM     11  C   LIG d   1     -28.192  87.278 111.530  0.00  0.00     0.028 C 
ATOM     12  C   LIG d   1     -26.902  88.059 111.237  0.00  0.00     0.006 C 
ENDBRANCH   8  11
ENDBRANCH   7   8
ENDBRANCH   1   7
BRANCH   6  13
ATOM     13  N   LIG d   1     -26.471  82.564 112.830  0.00  0.00    -0.311 N 
ATOM     14  C   LIG d   1     -27.031  81.829 111.871  0.00  0.00     0.210 C 
ATOM     15  C   LIG d   1     -28.216  80.970 112.324  0.00  0.00     0.109 C 
ATOM     16  O   LIG d   1     -26.639  81.782 110.695  0.00  0.00    -0.276 OA
ATOM     17  H   LIG d   1     -26.833  82.517 113.762  0.00  0.00     0.149 HD
ENDBRANCH   6  13
BRANCH   5  18
ATOM     18  N   LIG d   1     -23.531  81.783 113.111  0.00  0.00     0.381 N 
ATOM     19  H   LIG d   1     -22.562  81.873 112.877  0.00  0.00    -0.090 HD
ATOM     20  H   LIG d   1     -24.016  81.420 112.309  0.00  0.00    -0.090 HD
ATOM     21  H   LIG d   1     -23.638  81.161 113.882  0.00  0.00    -0.090 HD
ENDBRANCH   5  18
BRANCH   3  22
ATOM     22  C   LIG d   1     -22.519  86.411 113.810  0.00  0.00     0.382 C 
ATOM     23  O   LIG d   1     -21.367  86.447 113.315  0.00  0.00    -0.241 OA
ATOM     24  O   LIG d   1     -22.819  87.203 114.724  0.00  0.00    -0.241 OA
ENDBRANCH   3  22
TORSDOF 7
ENDMDL
MODEL 6
REMARK VINA RESULT:      -5.1      1.840      4.505
REMARK  7 active torsions:
REMARK  status: ('A' for Active; 'I' for Inactive)
REMARK    1  A    between atoms: C_2  and  C_3 
REMARK    2  A    between atoms: C_3  and  O_6 
REMARK    3  A    between atoms: C_3  and  C_4 
REMARK    4  A    between atoms: C_7  and  O_6 
REMARK    5  A    between atoms: C_9  and  C_10 
REMARK    6  A    between atoms: N_15  and  C_14 
REMARK    7  A    between atoms: N_20  and  C_19 
REMARK       I    between atoms: C_22  and  N_20 
ROOT
ATOM      1  C   LIG d   1      -2.653  76.264 115.808  0.00  0.00     0.161 C 
ATOM      2  C   LIG d   1      -2.047  75.303 116.635  0.00  0.00     0.016 C 
ATOM      3  C   LIG d   1      -0.767  75.468 117.212  0.00  0.00     0.038 C 
ATOM      4  C   LIG d   1      -0.065  76.680 117.123  0.00  0.00     0.028 C 
ATOM      5  C   LIG d   1      -0.413  77.492 115.880  0.00  0.00    -0.047 C 
ATOM      6  C   LIG d   1      -1.950  77.637 115.791  0.00  0.00     0.091 C 
ENDROOT
BRANCH   1   7
ATOM      7  O   LIG d   1      -4.040  76.416 116.170  0.00  0.00    -0.368 OA
BRANCH   7   8
ATOM      8  C   LIG d   1      -5.004  76.170 115.117  0.00  0.00     0.119 C 
BRANCH   8   9
ATOM      9  C   LIG d   1      -6.406  76.415 115.707  0.00  0.00     0.028 C 
ATOM     10  C   LIG d   1      -6.370  77.320 116.951  0.00  0.00     0.006 C 
ENDBRANCH   8   9
BRANCH   8  11
ATOM     11  C   LIG d   1      -4.997  74.700 114.687  0.00  0.00     0.028 C 
ATOM     12  C   LIG d   1      -6.043  73.856 115.431  0.00  0.00     0.006 C 
ENDBRANCH   8  11
ENDBRANCH   7   8
ENDBRANCH   1   7
BRANCH   6  13
ATOM     13  N   LIG d   1      -2.381  78.348 114.558  0.00  0.00    -0.311 N 
ATOM     14  C   LIG d   1      -2.143  77.893 113.329  0.00  0.00     0.210 C 
ATOM     15  C   LIG d   1      -2.656  78.790 112.198  0.00  0.00     0.109 C 
ATOM     16  O   LIG d   1      -1.585  76.817 113.069  0.00  0.00    -0.276 OA
ATOM     17  H   LIG d   1      -2.868  79.214 114.678  0.00  0.00     0.149 HD
ENDBRANCH   6  13
BRANCH   5  18
ATOM     18  N   LIG d   1       0.285  78.788 115.985  0.00  0.00     0.381 N 
ATOM     19  H   LIG d   1       1.116  78.681 116.531  0.00  0.00    -0.090 HD
ATOM     20  H   LIG d   1      -0.317  79.444 116.450  0.00  0.00    -0.090 HD
ATOM     21  H   LIG d   1       0.517  79.124 115.076  0.00  0.00    -0.090 HD
ENDBRANCH   5  18
BRANCH   3  22
ATOM     22  C   LIG d   1      -0.159  74.400 117.853  0.00  0.00     0.382 C 
ATOM     23  O   LIG d   1       1.005  74.520 118.304  0.00  0.00    -0.241 OA
ATOM     24  O   LIG d   1      -0.744  73.304 117.948  0.00  0.00    -0.241 OA
ENDBRANCH   3  22
TORSDOF 7
ENDMDL
MODEL 7
REMARK VINA RESULT:      -4.9      1.807      5.030
REMARK  7 active torsions:
REMARK  status: ('A' for Active; 'I' for Inactive)
REMARK    1  A    between atoms: C_2  and  C_3 
REMARK    2  A    between atoms: C_3  and  O_6 
REMARK    3  A    between atoms: C_3  and  C_4 
REMARK    4  A    between atoms: C_7  and  O_6 
REMARK    5  A    between atoms: C_9  and  C_10 
REMARK    6  A    between atoms: N_15  and  C_14 
REMARK    7  A    between atoms: N_20  and  C_19 
REMARK       I    between atoms: C_22  and  N_20 
ROOT
ATOM      1  C   LIG d   1      -1.685  76.326 114.748  0.00  0.00     0.161 C 
ATOM      2  C   LIG d   1      -1.475  75.335 115.721  0.00  0.00     0.016 C 
ATOM      3  C   LIG d   1      -0.658  75.522 116.859  0.00  0.00     0.038 C 
ATOM      4  C   LIG d   1      -0.113  76.774 117.182  0.00  0.00     0.028 C 
ATOM      5  C   LIG d   1       0.116  77.667 115.967  0.00  0.00    -0.047 C 
ATOM      6  C   LIG d   1      -1.188  77.733 115.141  0.00  0.00     0.091 C 
ENDROOT
BRANCH   1   7
ATOM      7  O   LIG d   1      -3.081  76.370 114.389  0.00  0.00    -0.368 OA
BRANCH   7   8
ATOM      8  C   LIG d   1      -4.024  76.270 115.483  0.00  0.00     0.119 C 
BRANCH   8   9
ATOM      9  C   LIG d   1      -5.335  75.694 114.913  0.00  0.00     0.028 C 
ATOM     10  C   LIG d   1      -5.334  74.156 114.879  0.00  0.00     0.006 C 
ENDBRANCH   8   9
BRANCH   8  11
ATOM     11  C   LIG d   1      -4.393  77.653 116.029  0.00  0.00     0.028 C 
ATOM     12  C   LIG d   1      -4.236  77.752 117.555  0.00  0.00     0.006 C 
ENDBRANCH   8  11
ENDBRANCH   7   8
ENDBRANCH   1   7
BRANCH   6  13
ATOM     13  N   LIG d   1      -1.027  78.519 113.890  0.00  0.00    -0.311 N 
ATOM     14  C   LIG d   1      -1.839  79.515 113.540  0.00  0.00     0.210 C 
ATOM     15  C   LIG d   1      -1.506  80.180 112.200  0.00  0.00     0.109 C 
ATOM     16  O   LIG d   1      -2.783  79.933 114.227  0.00  0.00    -0.276 OA
ATOM     17  H   LIG d   1      -0.267  78.267 113.288  0.00  0.00     0.149 HD
ENDBRANCH   6  13
BRANCH   5  18
ATOM     18  N   LIG d   1       0.556  78.986 116.460  0.00  0.00     0.381 N 
ATOM     19  H   LIG d   1       0.465  79.667 115.733  0.00  0.00    -0.090 HD
ATOM     20  H   LIG d   1       1.526  78.929 116.719  0.00  0.00    -0.090 HD
ATOM     21  H   LIG d   1       0.010  79.255 117.248  0.00  0.00    -0.090 HD
ENDBRANCH   5  18
BRANCH   3  22
ATOM     22  C   LIG d   1      -0.347  74.440 117.668  0.00  0.00     0.382 C 
ATOM     23  O   LIG d   1      -1.166  73.498 117.797  0.00  0.00    -0.241 OA
ATOM     24  O   LIG d   1       0.724  74.414 118.304  0.00  0.00    -0.241 OA
ENDBRANCH   3  22
TORSDOF 7
ENDMDL
MODEL 8
REMARK VINA RESULT:      -4.7      2.431      4.568
REMARK  7 active torsions:
REMARK  status: ('A' for Active; 'I' for Inactive)
REMARK    1  A    between atoms: C_2  and  C_3 
REMARK    2  A    between atoms: C_3  and  O_6 
REMARK    3  A    between atoms: C_3  and  C_4 
REMARK    4  A    between atoms: C_7  and  O_6 
REMARK    5  A    between atoms: C_9  and  C_10 
REMARK    6  A    between atoms: N_15  and  C_14 
REMARK    7  A    between atoms: N_20  and  C_19 
REMARK       I    between atoms: C_22  and  N_20 
ROOT
ATOM      1  C   LIG d   1      -2.816  78.341 115.835  0.00  0.00     0.161 C 
ATOM      2  C   LIG d   1      -1.584  78.985 116.040  0.00  0.00     0.016 C 
ATOM      3  C   LIG d   1      -0.407  78.307 116.431  0.00  0.00     0.038 C 
ATOM      4  C   LIG d   1      -0.345  76.907 116.496  0.00  0.00     0.028 C 
ATOM      5  C   LIG d   1      -1.692  76.254 116.788  0.00  0.00    -0.047 C 
ATOM      6  C   LIG d   1      -2.741  76.801 115.793  0.00  0.00     0.091 C 
ENDROOT
BRANCH   1   7
ATOM      7  O   LIG d   1      -3.437  78.845 114.636  0.00  0.00    -0.368 OA
BRANCH   7   8
ATOM      8  C   LIG d   1      -2.564  79.024 113.493  0.00  0.00     0.119 C 
BRANCH   8   9
ATOM      9  C   LIG d   1      -2.683  80.494 113.045  0.00  0.00     0.028 C 
ATOM     10  C   LIG d   1      -1.324  81.101 112.658  0.00  0.00     0.006 C 
ENDBRANCH   8   9
BRANCH   8  11
ATOM     11  C   LIG d   1      -3.038  78.195 112.295  0.00  0.00     0.028 C 
ATOM     12  C   LIG d   1      -1.909  77.887 111.300  0.00  0.00     0.006 C 
ENDBRANCH   8  11
ENDBRANCH   7   8
ENDBRANCH   1   7
BRANCH   6  13
ATOM     13  N   LIG d   1      -4.105  76.277 116.063  0.00  0.00    -0.311 N 
ATOM     14  C   LIG d   1      -4.868  75.706 115.133  0.00  0.00     0.210 C 
ATOM     15  C   LIG d   1      -6.249  75.253 115.618  0.00  0.00     0.109 C 
ATOM     16  O   LIG d   1      -4.521  75.502 113.960  0.00  0.00    -0.276 OA
ATOM     17  H   LIG d   1      -4.454  76.372 116.997  0.00  0.00     0.149 HD
ENDBRANCH   6  13
BRANCH   5  18
ATOM     18  N   LIG d   1      -1.509  74.793 116.692  0.00  0.00     0.381 N 
ATOM     19  H   LIG d   1      -2.355  74.367 116.370  0.00  0.00    -0.090 HD
ATOM     20  H   LIG d   1      -1.300  74.431 117.605  0.00  0.00    -0.090 HD
ATOM     21  H   LIG d   1      -0.764  74.584 116.065  0.00  0.00    -0.090 HD
ENDBRANCH   5  18
BRANCH   3  22
ATOM     22  C   LIG d   1       0.715  79.034 116.800  0.00  0.00     0.382 C 
ATOM     23  O   LIG d   1       1.563  78.528 117.574  0.00  0.00    -0.241 OA
ATOM     24  O   LIG d   1       0.868  80.205 116.403  0.00  0.00    -0.241 OA
ENDBRANCH   3  22
TORSDOF 7
ENDMDL
MODEL 9
REMARK VINA RESULT:      -4.6     21.593     23.404
REMARK  7 active torsions:
REMARK  status: ('A' for Active; 'I' for Inactive)
REMARK    1  A    between atoms: C_2  and  C_3 
REMARK    2  A    between atoms: C_3  and  O_6 
REMARK    3  A    between atoms: C_3  and  C_4 
REMARK    4  A    between atoms: C_7  and  O_6 
REMARK    5  A    between atoms: C_9  and  C_10 
REMARK    6  A    between atoms: N_15  and  C_14 
REMARK    7  A    between atoms: N_20  and  C_19 
REMARK       I    between atoms: C_22  and  N_20 
ROOT
ATOM      1  C   LIG d   1     -24.064  83.347 112.862  0.00  0.00     0.161 C 
ATOM      2  C   LIG d   1     -23.110  84.298 113.260  0.00  0.00     0.016 C 
ATOM      3  C   LIG d   1     -23.444  85.602 113.692  0.00  0.00     0.038 C 
ATOM      4  C   LIG d   1     -24.774  85.997 113.899  0.00  0.00     0.028 C 
ATOM      5  C   LIG d   1     -25.773  85.240 113.030  0.00  0.00    -0.047 C 
ATOM      6  C   LIG d   1     -25.525  83.722 113.187  0.00  0.00     0.091 C 
ENDROOT
BRANCH   1   7
ATOM      7  O   LIG d   1     -23.739  82.062 113.428  0.00  0.00    -0.368 OA
BRANCH   7   8
ATOM      8  C   LIG d   1     -24.407  81.724 114.668  0.00  0.00     0.119 C 
BRANCH   8   9
ATOM      9  C   LIG d   1     -23.421  82.007 115.818  0.00  0.00     0.028 C 
ATOM     10  C   LIG d   1     -23.868  83.185 116.698  0.00  0.00     0.006 C 
ENDBRANCH   8   9
BRANCH   8  11
ATOM     11  C   LIG d   1     -24.706  80.224 114.750  0.00  0.00     0.028 C 
ATOM     12  C   LIG d   1     -23.613  79.438 115.491  0.00  0.00     0.006 C 
ENDBRANCH   8  11
ENDBRANCH   7   8
ENDBRANCH   1   7
BRANCH   6  13
ATOM     13  N   LIG d   1     -26.405  82.910 112.306  0.00  0.00    -0.311 N 
ATOM     14  C   LIG d   1     -27.565  82.391 112.705  0.00  0.00     0.210 C 
ATOM     15  C   LIG d   1     -28.305  81.570 111.645  0.00  0.00     0.109 C 
ATOM     16  O   LIG d   1     -28.066  82.559 113.827  0.00  0.00    -0.276 OA
ATOM     17  H   LIG d   1     -26.089  82.750 111.369  0.00  0.00     0.149 HD
ENDBRANCH   6  13
BRANCH   5  18
ATOM     18  N   LIG d   1     -27.127  85.651 113.446  0.00  0.00     0.381 N 
ATOM     19  H   LIG d   1     -27.661  84.846 113.704  0.00  0.00    -0.090 HD
ATOM     20  H   LIG d   1     -27.584  86.097 112.670  0.00  0.00    -0.090 HD
ATOM     21  H   LIG d   1     -27.071  86.282 114.215  0.00  0.00    -0.090 HD
ENDBRANCH   5  18
BRANCH   3  22
ATOM     22  C   LIG d   1     -22.441  86.541 113.882  0.00  0.00     0.382 C 
ATOM     23  O   LIG d   1     -22.609  87.481 114.696  0.00  0.00    -0.241 OA
ATOM     24  O   LIG d   1     -21.389  86.485 113.218  0.00  0.00    -0.241 OA
ENDBRANCH   3  22
TORSDOF 7
ENDMDL
