MODEL 1
REMARK VINA RESULT:      -5.6      0.000      0.000
REMARK  7 active torsions:
REMARK  status: ('A' for Active; 'I' for Inactive)
REMARK    1  A    between atoms: C_2  and  C_3 
REMARK    2  A    between atoms: C_3  and  O_6 
REMARK    3  A    between atoms: C_3  and  C_4 
REMARK    4  A    between atoms: C_7  and  O_6 
REMARK    5  A    between atoms: C_9  and  C_10 
REMARK    6  A    between atoms: N_15  and  C_14 
REMARK    7  A    between atoms: N_20  and  C_19 
REMARK       I    between atoms: C_22  and  N_20 
ROOT
ATOM      1  C   LIG d   1       3.214  85.712 112.377  0.00  0.00     0.161 C 
ATOM      2  C   LIG d   1       3.541  87.075 112.473  0.00  0.00     0.016 C 
ATOM      3  C   LIG d   1       4.171  87.646 113.603  0.00  0.00     0.038 C 
ATOM      4  C   LIG d   1       4.656  86.859 114.658  0.00  0.00     0.028 C 
ATOM      5  C   LIG d   1       3.899  85.547 114.833  0.00  0.00    -0.047 C 
ATOM      6  C   LIG d   1       3.836  84.819 113.470  0.00  0.00     0.091 C 
ENDROOT
BRANCH   1   7
ATOM      7  O   LIG d   1       3.562  85.218 111.068  0.00  0.00    -0.368 OA
BRANCH   7   8
ATOM      8  C   LIG d   1       2.469  84.698 110.272  0.00  0.00     0.119 C 
BRANCH   8   9
ATOM      9  C   LIG d   1       1.171  84.904 111.076  0.00  0.00     0.028 C 
ATOM     10  C   LIG d   1       0.152  85.783 110.332  0.00  0.00     0.006 C 
ENDBRANCH   8   9
BRANCH   8  11
ATOM     11  C   LIG d   1       2.591  83.184 110.079  0.00  0.00     0.028 C 
ATOM     12  C   LIG d   1       4.050  82.702 110.056  0.00  0.00     0.006 C 
ENDBRANCH   8  11
ENDBRANCH   7   8
ENDBRANCH   1   7
BRANCH   6  13
ATOM     13  N   LIG d   1       3.039  83.566 113.534  0.00  0.00    -0.311 N 
ATOM     14  C   LIG d   1       3.581  82.361 113.702  0.00  0.00     0.210 C 
ATOM     15  C   LIG d   1       2.582  81.200 113.719  0.00  0.00     0.109 C 
ATOM     16  O   LIG d   1       4.791  82.147 113.871  0.00  0.00    -0.276 OA
ATOM     17  H   LIG d   1       2.047  83.651 113.437  0.00  0.00     0.149 HD
ENDBRANCH   6  13
BRANCH   5  18
ATOM     18  N   LIG d   1       4.595  84.767 115.873  0.00  0.00     0.381 N 
ATOM     19  H   LIG d   1       4.861  83.875 115.507  0.00  0.00    -0.090 HD
ATOM     20  H   LIG d   1       3.966  84.617 116.642  0.00  0.00    -0.090 HD
ATOM     21  H   LIG d   1       5.402  85.259 116.187  0.00  0.00    -0.090 HD
ENDBRANCH   5  18
BRANCH   3  22
ATOM     22  C   LIG d   1       4.285  89.025 113.703  0.00  0.00     0.382 C 
ATOM     23  O   LIG d   1       4.210  89.580 114.825  0.00  0.00    -0.241 OA
ATOM     24  O   LIG d   1       4.418  89.723 112.680  0.00  0.00    -0.241 OA
ENDBRANCH   3  22
TORSDOF 7
ENDMDL
MODEL 2
REMARK VINA RESULT:      -5.4      2.419      4.552
REMARK  7 active torsions:
REMARK  status: ('A' for Active; 'I' for Inactive)
REMARK    1  A    between atoms: C_2  and  C_3 
REMARK    2  A    between atoms: C_3  and  O_6 
REMARK    3  A    between atoms: C_3  and  C_4 
REMARK    4  A    between atoms: C_7  and  O_6 
REMARK    5  A    between atoms: C_9  and  C_10 
REMARK    6  A    between atoms: N_15  and  C_14 
REMARK    7  A    between atoms: N_20  and  C_19 
REMARK       I    between atoms: C_22  and  N_20 
ROOT
ATOM      1  C   LIG d   1       3.297  84.933 113.186  0.00  0.00     0.161 C 
ATOM      2  C   LIG d   1       4.038  86.115 113.354  0.00  0.00     0.016 C 
ATOM      3  C   LIG d   1       3.717  87.332 112.710  0.00  0.00     0.038 C 
ATOM      4  C   LIG d   1       2.537  87.490 111.969  0.00  0.00     0.028 C 
ATOM      5  C   LIG d   1       2.025  86.188 111.360  0.00  0.00    -0.047 C 
ATOM      6  C   LIG d   1       1.943  85.114 112.469  0.00  0.00     0.091 C 
ENDROOT
BRANCH   1   7
ATOM      7  O   LIG d   1       3.106  84.291 114.463  0.00  0.00    -0.368 OA
BRANCH   7   8
ATOM      8  C   LIG d   1       3.370  85.106 115.631  0.00  0.00     0.119 C 
BRANCH   8   9
ATOM      9  C   LIG d   1       4.153  84.236 116.634  0.00  0.00     0.028 C 
ATOM     10  C   LIG d   1       5.596  83.967 116.176  0.00  0.00     0.006 C 
ENDBRANCH   8   9
BRANCH   8  11
ATOM     11  C   LIG d   1       2.072  85.485 116.351  0.00  0.00     0.028 C 
ATOM     12  C   LIG d   1       1.655  86.943 116.098  0.00  0.00     0.006 C 
ENDBRANCH   8  11
ENDBRANCH   7   8
ENDBRANCH   1   7
BRANCH   6  13
ATOM     13  N   LIG d   1       1.531  83.787 111.943  0.00  0.00    -0.311 N 
ATOM     14  C   LIG d   1       0.265  83.375 111.902  0.00  0.00     0.210 C 
ATOM     15  C   LIG d   1       0.061  81.965 111.341  0.00  0.00     0.109 C 
ATOM     16  O   LIG d   1      -0.712  84.057 112.247  0.00  0.00    -0.276 OA
ATOM     17  H   LIG d   1       2.257  83.182 111.613  0.00  0.00     0.149 HD
ENDBRANCH   6  13
BRANCH   5  18
ATOM     18  N   LIG d   1       0.720  86.472 110.733  0.00  0.00     0.381 N 
ATOM     19  H   LIG d   1       0.778  87.315 110.197  0.00  0.00    -0.090 HD
ATOM     20  H   LIG d   1       0.034  86.604 111.455  0.00  0.00    -0.090 HD
ATOM     21  H   LIG d   1       0.452  85.714 110.145  0.00  0.00    -0.090 HD
ENDBRANCH   5  18
BRANCH   3  22
ATOM     22  C   LIG d   1       4.603  88.397 112.773  0.00  0.00     0.382 C 
ATOM     23  O   LIG d   1       4.177  89.553 113.009  0.00  0.00    -0.241 OA
ATOM     24  O   LIG d   1       5.816  88.223 112.552  0.00  0.00    -0.241 OA
ENDBRANCH   3  22
TORSDOF 7
ENDMDL
MODEL 3
REMARK VINA RESULT:      -5.3      2.185      3.967
REMARK  7 active torsions:
REMARK  status: ('A' for Active; 'I' for Inactive)
REMARK    1  A    between atoms: C_2  and  C_3 
REMARK    2  A    between atoms: C_3  and  O_6 
REMARK    3  A    between atoms: C_3  and  C_4 
REMARK    4  A    between atoms: C_7  and  O_6 
REMARK    5  A    between atoms: C_9  and  C_10 
REMARK    6  A    between atoms: N_15  and  C_14 
REMARK    7  A    between atoms: N_20  and  C_19 
REMARK       I    between atoms: C_22  and  N_20 
ROOT
ATOM      1  C   LIG d   1       3.337  85.070 113.256  0.00  0.00     0.161 C 
ATOM      2  C   LIG d   1       4.104  86.214 113.528  0.00  0.00     0.016 C 
ATOM      3  C   LIG d   1       3.828  87.486 112.975  0.00  0.00     0.038 C 
ATOM      4  C   LIG d   1       2.667  87.733 112.227  0.00  0.00     0.028 C 
ATOM      5  C   LIG d   1       2.135  86.497 111.510  0.00  0.00    -0.047 C 
ATOM      6  C   LIG d   1       2.002  85.343 112.530  0.00  0.00     0.091 C 
ENDROOT
BRANCH   1   7
ATOM      7  O   LIG d   1       3.103  84.337 114.474  0.00  0.00    -0.368 OA
BRANCH   7   8
ATOM      8  C   LIG d   1       3.697  83.017 114.549  0.00  0.00     0.119 C 
BRANCH   8   9
ATOM      9  C   LIG d   1       4.421  82.760 113.213  0.00  0.00     0.028 C 
ATOM     10  C   LIG d   1       3.985  81.440 112.554  0.00  0.00     0.006 C 
ENDBRANCH   8   9
BRANCH   8  11
ATOM     11  C   LIG d   1       2.626  81.928 114.646  0.00  0.00     0.028 C 
ATOM     12  C   LIG d   1       2.681  81.155 115.973  0.00  0.00     0.006 C 
ENDBRANCH   8  11
ENDBRANCH   7   8
ENDBRANCH   1   7
BRANCH   6  13
ATOM     13  N   LIG d   1       1.567  84.072 111.895  0.00  0.00    -0.311 N 
ATOM     14  C   LIG d   1       0.299  83.666 111.861  0.00  0.00     0.210 C 
ATOM     15  C   LIG d   1       0.071  82.315 111.175  0.00  0.00     0.109 C 
ATOM     16  O   LIG d   1      -0.662  84.311 112.306  0.00  0.00    -0.276 OA
ATOM     17  H   LIG d   1       2.279  83.502 111.481  0.00  0.00     0.149 HD
ENDBRANCH   6  13
BRANCH   5  18
ATOM     18  N   LIG d   1       0.851  86.864 110.883  0.00  0.00     0.381 N 
ATOM     19  H   LIG d   1       0.996  87.597 110.218  0.00  0.00    -0.090 HD
ATOM     20  H   LIG d   1       0.227  87.202 111.594  0.00  0.00    -0.090 HD
ATOM     21  H   LIG d   1       0.453  86.070 110.431  0.00  0.00    -0.090 HD
ENDBRANCH   5  18
BRANCH   3  22
ATOM     22  C   LIG d   1       4.739  88.518 113.137  0.00  0.00     0.382 C 
ATOM     23  O   LIG d   1       4.459  89.672 112.731  0.00  0.00    -0.241 OA
ATOM     24  O   LIG d   1       5.856  88.301 113.644  0.00  0.00    -0.241 OA
ENDBRANCH   3  22
TORSDOF 7
ENDMDL
MODEL 4
REMARK VINA RESULT:      -4.9      5.843      9.242
REMARK  7 active torsions:
REMARK  status: ('A' for Active; 'I' for Inactive)
REMARK    1  A    between atoms: C_2  and  C_3 
REMARK    2  A    between atoms: C_3  and  O_6 
REMARK    3  A    between atoms: C_3  and  C_4 
REMARK    4  A    between atoms: C_7  and  O_6 
REMARK    5  A    between atoms: C_9  and  C_10 
REMARK    6  A    between atoms: N_15  and  C_14 
REMARK    7  A    between atoms: N_20  and  C_19 
REMARK       I    between atoms: C_22  and  N_20 
ROOT
ATOM      1  C   LIG d   1      -1.360  80.410 113.151  0.00  0.00     0.161 C 
ATOM      2  C   LIG d   1      -2.418  79.550 112.815  0.00  0.00     0.016 C 
ATOM      3  C   LIG d   1      -2.360  78.624 111.748  0.00  0.00     0.038 C 
ATOM      4  C   LIG d   1      -1.175  78.388 111.035  0.00  0.00     0.028 C 
ATOM      5  C   LIG d   1      -0.234  79.588 111.009  0.00  0.00    -0.047 C 
ATOM      6  C   LIG d   1      -0.020  80.089 112.456  0.00  0.00     0.091 C 
ENDROOT
BRANCH   1   7
ATOM      7  O   LIG d   1      -1.187  80.437 114.582  0.00  0.00    -0.368 OA
BRANCH   7   8
ATOM      8  C   LIG d   1      -1.658  79.271 115.303  0.00  0.00     0.119 C 
BRANCH   8   9
ATOM      9  C   LIG d   1      -2.173  79.751 116.673  0.00  0.00     0.028 C 
ATOM     10  C   LIG d   1      -3.690  79.556 116.832  0.00  0.00     0.006 C 
ENDBRANCH   8   9
BRANCH   8  11
ATOM     11  C   LIG d   1      -0.510  78.308 115.615  0.00  0.00     0.028 C 
ATOM     12  C   LIG d   1      -0.751  76.894 115.063  0.00  0.00     0.006 C 
ENDBRANCH   8  11
ENDBRANCH   7   8
ENDBRANCH   1   7
BRANCH   6  13
ATOM     13  N   LIG d   1       0.821  81.313 112.513  0.00  0.00    -0.311 N 
ATOM     14  C   LIG d   1       0.476  82.467 111.944  0.00  0.00     0.210 C 
ATOM     15  C   LIG d   1       1.496  83.598 112.106  0.00  0.00     0.109 C 
ATOM     16  O   LIG d   1      -0.593  82.670 111.348  0.00  0.00    -0.276 OA
ATOM     17  H   LIG d   1       1.691  81.246 113.003  0.00  0.00     0.149 HD
ENDBRANCH   6  13
BRANCH   5  18
ATOM     18  N   LIG d   1       1.016  79.161 110.354  0.00  0.00     0.381 N 
ATOM     19  H   LIG d   1       1.087  79.584 109.450  0.00  0.00    -0.090 HD
ATOM     20  H   LIG d   1       0.995  78.163 110.234  0.00  0.00    -0.090 HD
ATOM     21  H   LIG d   1       1.799  79.419 110.913  0.00  0.00    -0.090 HD
ENDBRANCH   5  18
BRANCH   3  22
ATOM     22  C   LIG d   1      -3.508  77.951 111.359  0.00  0.00     0.382 C 
ATOM     23  O   LIG d   1      -4.422  77.736 112.191  0.00  0.00    -0.241 OA
ATOM     24  O   LIG d   1      -3.622  77.516 110.197  0.00  0.00    -0.241 OA
ENDBRANCH   3  22
TORSDOF 7
ENDMDL
MODEL 5
REMARK VINA RESULT:      -4.9      9.648     12.153
REMARK  7 active torsions:
REMARK  status: ('A' for Active; 'I' for Inactive)
REMARK    1  A    between atoms: C_2  and  C_3 
REMARK    2  A    between atoms: C_3  and  O_6 
REMARK    3  A    between atoms: C_3  and  C_4 
REMARK    4  A    between atoms: C_7  and  O_6 
REMARK    5  A    between atoms: C_9  and  C_10 
REMARK    6  A    between atoms: N_15  and  C_14 
REMARK    7  A    between atoms: N_20  and  C_19 
REMARK       I    between atoms: C_22  and  N_20 
ROOT
ATOM      1  C   LIG d   1      -2.889  76.152 115.588  0.00  0.00     0.161 C 
ATOM      2  C   LIG d   1      -2.215  75.293 116.474  0.00  0.00     0.016 C 
ATOM      3  C   LIG d   1      -0.876  75.491 116.882  0.00  0.00     0.038 C 
ATOM      4  C   LIG d   1      -0.164  76.653 116.548  0.00  0.00     0.028 C 
ATOM      5  C   LIG d   1      -0.630  77.297 115.248  0.00  0.00    -0.047 C 
ATOM      6  C   LIG d   1      -2.164  77.483 115.302  0.00  0.00     0.091 C 
ENDROOT
BRANCH   1   7
ATOM      7  O   LIG d   1      -4.224  76.401 116.071  0.00  0.00    -0.368 OA
BRANCH   7   8
ATOM      8  C   LIG d   1      -5.305  75.968 115.209  0.00  0.00     0.119 C 
BRANCH   8   9
ATOM      9  C   LIG d   1      -6.629  76.348 115.900  0.00  0.00     0.028 C 
ATOM     10  C   LIG d   1      -6.441  77.439 116.967  0.00  0.00     0.006 C 
ENDBRANCH   8   9
BRANCH   8  11
ATOM     11  C   LIG d   1      -5.338  74.442 115.081  0.00  0.00     0.028 C 
ATOM     12  C   LIG d   1      -6.611  73.822 115.677  0.00  0.00     0.006 C 
ENDBRANCH   8  11
ENDBRANCH   7   8
ENDBRANCH   1   7
BRANCH   6  13
ATOM     13  N   LIG d   1      -2.714  78.031 114.035  0.00  0.00    -0.311 N 
ATOM     14  C   LIG d   1      -2.289  77.657 112.829  0.00  0.00     0.210 C 
ATOM     15  C   LIG d   1      -2.976  78.360 111.654  0.00  0.00     0.109 C 
ATOM     16  O   LIG d   1      -1.431  76.786 112.620  0.00  0.00    -0.276 OA
ATOM     17  H   LIG d   1      -3.436  78.721 114.111  0.00  0.00     0.149 HD
ENDBRANCH   6  13
BRANCH   5  18
ATOM     18  N   LIG d   1       0.101  78.569 115.093  0.00  0.00     0.381 N 
ATOM     19  H   LIG d   1      -0.309  79.108 114.357  0.00  0.00    -0.090 HD
ATOM     20  H   LIG d   1       1.053  78.368 114.843  0.00  0.00    -0.090 HD
ATOM     21  H   LIG d   1       0.076  79.083 115.946  0.00  0.00    -0.090 HD
ENDBRANCH   5  18
BRANCH   3  22
ATOM     22  C   LIG d   1      -0.223  74.501 117.600  0.00  0.00     0.382 C 
ATOM     23  O   LIG d   1      -0.656  73.323 117.580  0.00  0.00    -0.241 OA
ATOM     24  O   LIG d   1       0.766  74.779 118.303  0.00  0.00    -0.241 OA
ENDBRANCH   3  22
TORSDOF 7
ENDMDL
MODEL 6
REMARK VINA RESULT:      -4.8      1.630      2.415
REMARK  7 active torsions:
REMARK  status: ('A' for Active; 'I' for Inactive)
REMARK    1  A    between atoms: C_2  and  C_3 
REMARK    2  A    between atoms: C_3  and  O_6 
REMARK    3  A    between atoms: C_3  and  C_4 
REMARK    4  A    between atoms: C_7  and  O_6 
REMARK    5  A    between atoms: C_9  and  C_10 
REMARK    6  A    between atoms: N_15  and  C_14 
REMARK    7  A    between atoms: N_20  and  C_19 
REMARK       I    between atoms: C_22  and  N_20 
ROOT
ATOM      1  C   LIG d   1       3.223  84.661 113.614  0.00  0.00     0.161 C 
ATOM      2  C   LIG d   1       3.183  85.884 112.923  0.00  0.00     0.016 C 
ATOM      3  C   LIG d   1       3.711  87.089 113.443  0.00  0.00     0.038 C 
ATOM      4  C   LIG d   1       4.453  87.120 114.632  0.00  0.00     0.028 C 
ATOM      5  C   LIG d   1       4.083  86.008 115.608  0.00  0.00    -0.047 C 
ATOM      6  C   LIG d   1       4.127  84.654 114.864  0.00  0.00     0.091 C 
ENDROOT
BRANCH   1   7
ATOM      7  O   LIG d   1       3.605  83.603 112.712  0.00  0.00    -0.368 OA
BRANCH   7   8
ATOM      8  C   LIG d   1       2.524  82.802 112.175  0.00  0.00     0.119 C 
BRANCH   8   9
ATOM      9  C   LIG d   1       2.832  81.329 112.503  0.00  0.00     0.028 C 
ATOM     10  C   LIG d   1       2.524  80.388 111.326  0.00  0.00     0.006 C 
ENDBRANCH   8   9
BRANCH   8  11
ATOM     11  C   LIG d   1       2.482  82.877 110.646  0.00  0.00     0.028 C 
ATOM     12  C   LIG d   1       3.645  83.691 110.057  0.00  0.00     0.006 C 
ENDBRANCH   8  11
ENDBRANCH   7   8
ENDBRANCH   1   7
BRANCH   6  13
ATOM     13  N   LIG d   1       3.696  83.520 115.723  0.00  0.00    -0.311 N 
ATOM     14  C   LIG d   1       4.387  82.388 115.844  0.00  0.00     0.210 C 
ATOM     15  C   LIG d   1       3.755  81.340 116.766  0.00  0.00     0.109 C 
ATOM     16  O   LIG d   1       5.478  82.163 115.299  0.00  0.00    -0.276 OA
ATOM     17  H   LIG d   1       2.837  83.630 116.226  0.00  0.00     0.149 HD
ENDBRANCH   6  13
BRANCH   5  18
ATOM     18  N   LIG d   1       5.025  86.076 116.740  0.00  0.00     0.381 N 
ATOM     19  H   LIG d   1       4.519  86.201 117.595  0.00  0.00    -0.090 HD
ATOM     20  H   LIG d   1       5.630  86.869 116.613  0.00  0.00    -0.090 HD
ATOM     21  H   LIG d   1       5.566  85.241 116.785  0.00  0.00    -0.090 HD
ENDBRANCH   5  18
BRANCH   3  22
ATOM     22  C   LIG d   1       3.462  88.286 112.789  0.00  0.00     0.382 C 
ATOM     23  O   LIG d   1       2.536  88.359 111.945  0.00  0.00    -0.241 OA
ATOM     24  O   LIG d   1       4.180  89.282 113.000  0.00  0.00    -0.241 OA
ENDBRANCH   3  22
TORSDOF 7
ENDMDL
MODEL 7
REMARK VINA RESULT:      -4.7      9.709     12.110
REMARK  7 active torsions:
REMARK  status: ('A' for Active; 'I' for Inactive)
REMARK    1  A    between atoms: C_2  and  C_3 
REMARK    2  A    between atoms: C_3  and  O_6 
REMARK    3  A    between atoms: C_3  and  C_4 
REMARK    4  A    between atoms: C_7  and  O_6 
REMARK    5  A    between atoms: C_9  and  C_10 
REMARK    6  A    between atoms: N_15  and  C_14 
REMARK    7  A    between atoms: N_20  and  C_19 
REMARK       I    between atoms: C_22  and  N_20 
ROOT
ATOM      1  C   LIG d   1      12.244  77.879 115.413  0.00  0.00     0.161 C 
ATOM      2  C   LIG d   1      11.613  76.721 114.930  0.00  0.00     0.016 C 
ATOM      3  C   LIG d   1      10.210  76.590 114.814  0.00  0.00     0.038 C 
ATOM      4  C   LIG d   1       9.343  77.671 115.034  0.00  0.00     0.028 C 
ATOM      5  C   LIG d   1       9.899  78.705 116.007  0.00  0.00    -0.047 C 
ATOM      6  C   LIG d   1      11.321  79.108 115.553  0.00  0.00     0.091 C 
ENDROOT
BRANCH   1   7
ATOM      7  O   LIG d   1      13.380  78.198 114.587  0.00  0.00    -0.368 OA
BRANCH   7   8
ATOM      8  C   LIG d   1      13.103  78.432 113.184  0.00  0.00     0.119 C 
BRANCH   8   9
ATOM      9  C   LIG d   1      13.980  77.461 112.370  0.00  0.00     0.028 C 
ATOM     10  C   LIG d   1      13.969  77.779 110.866  0.00  0.00     0.006 C 
ENDBRANCH   8   9
BRANCH   8  11
ATOM     11  C   LIG d   1      13.544  79.834 112.754  0.00  0.00     0.028 C 
ATOM     12  C   LIG d   1      14.456  80.514 113.788  0.00  0.00     0.006 C 
ENDBRANCH   8  11
ENDBRANCH   7   8
ENDBRANCH   1   7
BRANCH   6  13
ATOM     13  N   LIG d   1      11.971  80.054 116.498  0.00  0.00    -0.311 N 
ATOM     14  C   LIG d   1      11.924  81.378 116.358  0.00  0.00     0.210 C 
ATOM     15  C   LIG d   1      12.678  82.168 117.432  0.00  0.00     0.109 C 
ATOM     16  O   LIG d   1      11.302  81.973 115.465  0.00  0.00    -0.276 OA
ATOM     17  H   LIG d   1      12.470  79.657 117.269  0.00  0.00     0.149 HD
ENDBRANCH   6  13
BRANCH   5  18
ATOM     18  N   LIG d   1       8.958  79.840 116.038  0.00  0.00     0.381 N 
ATOM     19  H   LIG d   1       8.452  79.837 116.901  0.00  0.00    -0.090 HD
ATOM     20  H   LIG d   1       8.299  79.736 115.286  0.00  0.00    -0.090 HD
ATOM     21  H   LIG d   1       9.455  80.698 115.938  0.00  0.00    -0.090 HD
ENDBRANCH   5  18
BRANCH   3  22
ATOM     22  C   LIG d   1       9.658  75.354 114.513  0.00  0.00     0.382 C 
ATOM     23  O   LIG d   1      10.337  74.310 114.664  0.00  0.00    -0.241 OA
ATOM     24  O   LIG d   1       8.504  75.273 114.051  0.00  0.00    -0.241 OA
ENDBRANCH   3  22
TORSDOF 7
ENDMDL
MODEL 8
REMARK VINA RESULT:      -4.7      2.596      4.214
REMARK  7 active torsions:
REMARK  status: ('A' for Active; 'I' for Inactive)
REMARK    1  A    between atoms: C_2  and  C_3 
REMARK    2  A    between atoms: C_3  and  O_6 
REMARK    3  A    between atoms: C_3  and  C_4 
REMARK    4  A    between atoms: C_7  and  O_6 
REMARK    5  A    between atoms: C_9  and  C_10 
REMARK    6  A    between atoms: N_15  and  C_14 
REMARK    7  A    between atoms: N_20  and  C_19 
REMARK       I    between atoms: C_22  and  N_20 
ROOT
ATOM      1  C   LIG d   1       2.127  84.396 112.994  0.00  0.00     0.161 C 
ATOM      2  C   LIG d   1       0.944  84.665 112.285  0.00  0.00     0.016 C 
ATOM      3  C   LIG d   1       0.650  85.923 111.711  0.00  0.00     0.038 C 
ATOM      4  C   LIG d   1       1.593  86.961 111.677  0.00  0.00     0.028 C 
ATOM      5  C   LIG d   1       2.602  86.900 112.818  0.00  0.00    -0.047 C 
ATOM      6  C   LIG d   1       3.216  85.482 112.871  0.00  0.00     0.091 C 
ENDROOT
BRANCH   1   7
ATOM      7  O   LIG d   1       2.652  83.113 112.598  0.00  0.00    -0.368 OA
BRANCH   7   8
ATOM      8  C   LIG d   1       1.843  82.352 111.668  0.00  0.00     0.119 C 
BRANCH   8   9
ATOM      9  C   LIG d   1       1.508  81.006 112.339  0.00  0.00     0.028 C 
ATOM     10  C   LIG d   1       0.284  80.324 111.706  0.00  0.00     0.006 C 
ENDBRANCH   8   9
BRANCH   8  11
ATOM     11  C   LIG d   1       2.635  81.990 110.407  0.00  0.00     0.028 C 
ATOM     12  C   LIG d   1       3.746  83.004 110.091  0.00  0.00     0.006 C 
ENDBRANCH   8  11
ENDBRANCH   7   8
ENDBRANCH   1   7
BRANCH   6  13
ATOM     13  N   LIG d   1       4.152  85.311 114.012  0.00  0.00    -0.311 N 
ATOM     14  C   LIG d   1       3.803  85.509 115.283  0.00  0.00     0.210 C 
ATOM     15  C   LIG d   1       4.927  85.298 116.302  0.00  0.00     0.109 C 
ATOM     16  O   LIG d   1       2.662  85.808 115.664  0.00  0.00    -0.276 OA
ATOM     17  H   LIG d   1       5.091  85.040 113.795  0.00  0.00     0.149 HD
ENDBRANCH   6  13
BRANCH   5  18
ATOM     18  N   LIG d   1       3.606  87.955 112.583  0.00  0.00     0.381 N 
ATOM     19  H   LIG d   1       3.742  88.080 111.600  0.00  0.00    -0.090 HD
ATOM     20  H   LIG d   1       4.479  87.670 112.989  0.00  0.00    -0.090 HD
ATOM     21  H   LIG d   1       3.303  88.811 112.994  0.00  0.00    -0.090 HD
ENDBRANCH   5  18
BRANCH   3  22
ATOM     22  C   LIG d   1      -0.615  86.165 111.198  0.00  0.00     0.382 C 
ATOM     23  O   LIG d   1      -1.470  86.763 111.895  0.00  0.00    -0.241 OA
ATOM     24  O   LIG d   1      -0.926  85.754 110.064  0.00  0.00    -0.241 OA
ENDBRANCH   3  22
TORSDOF 7
ENDMDL
MODEL 9
REMARK VINA RESULT:      -4.6     26.078     28.867
REMARK  7 active torsions:
REMARK  status: ('A' for Active; 'I' for Inactive)
REMARK    1  A    between atoms: C_2  and  C_3 
REMARK    2  A    between atoms: C_3  and  O_6 
REMARK    3  A    between atoms: C_3  and  C_4 
REMARK    4  A    between atoms: C_7  and  O_6 
REMARK    5  A    between atoms: C_9  and  C_10 
REMARK    6  A    between atoms: N_15  and  C_14 
REMARK    7  A    between atoms: N_20  and  C_19 
REMARK       I    between atoms: C_22  and  N_20 
ROOT
ATOM      1  C   LIG d   1     -16.505  65.215 116.536  0.00  0.00     0.161 C 
ATOM      2  C   LIG d   1     -15.927  66.460 116.837  0.00  0.00     0.016 C 
ATOM      3  C   LIG d   1     -15.503  67.379 115.850  0.00  0.00     0.038 C 
ATOM      4  C   LIG d   1     -15.768  67.179 114.487  0.00  0.00     0.028 C 
ATOM      5  C   LIG d   1     -15.896  65.709 114.104  0.00  0.00    -0.047 C 
ATOM      6  C   LIG d   1     -16.904  65.028 115.058  0.00  0.00     0.091 C 
ENDROOT
BRANCH   1   7
ATOM      7  O   LIG d   1     -17.639  64.983 117.395  0.00  0.00    -0.368 OA
BRANCH   7   8
ATOM      8  C   LIG d   1     -18.942  65.222 116.808  0.00  0.00     0.119 C 
BRANCH   8   9
ATOM      9  C   LIG d   1     -19.490  66.530 117.412  0.00  0.00     0.028 C 
ATOM     10  C   LIG d   1     -19.952  67.525 116.335  0.00  0.00     0.006 C 
ENDBRANCH   8   9
BRANCH   8  11
ATOM     11  C   LIG d   1     -19.944  64.137 117.214  0.00  0.00     0.028 C 
ATOM     12  C   LIG d   1     -19.264  62.818 117.614  0.00  0.00     0.006 C 
ENDBRANCH   8  11
ENDBRANCH   7   8
ENDBRANCH   1   7
BRANCH   6  13
ATOM     13  N   LIG d   1     -17.025  63.568 114.806  0.00  0.00    -0.311 N 
ATOM     14  C   LIG d   1     -17.957  63.034 114.019  0.00  0.00     0.210 C 
ATOM     15  C   LIG d   1     -17.917  61.507 113.912  0.00  0.00     0.109 C 
ATOM     16  O   LIG d   1     -18.794  63.683 113.373  0.00  0.00    -0.276 OA
ATOM     17  H   LIG d   1     -16.366  62.970 115.266  0.00  0.00     0.149 HD
ENDBRANCH   6  13
BRANCH   5  18
ATOM     18  N   LIG d   1     -16.308  65.651 112.689  0.00  0.00     0.381 N 
ATOM     19  H   LIG d   1     -15.575  66.006 112.108  0.00  0.00    -0.090 HD
ATOM     20  H   LIG d   1     -17.120  66.229 112.563  0.00  0.00    -0.090 HD
ATOM     21  H   LIG d   1     -16.518  64.711 112.434  0.00  0.00    -0.090 HD
ENDBRANCH   5  18
BRANCH   3  22
ATOM     22  C   LIG d   1     -14.769  68.496 116.221  0.00  0.00     0.382 C 
ATOM     23  O   LIG d   1     -15.356  69.574 116.480  0.00  0.00    -0.241 OA
ATOM     24  O   LIG d   1     -13.525  68.450 116.258  0.00  0.00    -0.241 OA
ENDBRANCH   3  22
TORSDOF 7
ENDMDL
