MODEL 1
REMARK VINA RESULT:      -5.9      0.000      0.000
REMARK  7 active torsions:
REMARK  status: ('A' for Active; 'I' for Inactive)
REMARK    1  A    between atoms: C_2  and  C_3 
REMARK    2  A    between atoms: C_3  and  O_6 
REMARK    3  A    between atoms: C_3  and  C_4 
REMARK    4  A    between atoms: C_7  and  O_6 
REMARK    5  A    between atoms: C_9  and  C_10 
REMARK    6  A    between atoms: N_15  and  C_14 
REMARK    7  A    between atoms: N_20  and  C_19 
REMARK       I    between atoms: C_22  and  N_20 
ROOT
ATOM      1  C   LIG d   1      -0.526  84.524 113.555  0.00  0.00     0.161 C 
ATOM      2  C   LIG d   1       0.133  85.658 113.051  0.00  0.00     0.016 C 
ATOM      3  C   LIG d   1       0.757  85.696 111.783  0.00  0.00     0.038 C 
ATOM      4  C   LIG d   1       0.633  84.642 110.864  0.00  0.00     0.028 C 
ATOM      5  C   LIG d   1       0.408  83.286 111.524  0.00  0.00    -0.047 C 
ATOM      6  C   LIG d   1      -0.767  83.403 112.523  0.00  0.00     0.091 C 
ENDROOT
BRANCH   1   7
ATOM      7  O   LIG d   1      -1.770  84.915 114.170  0.00  0.00    -0.368 OA
BRANCH   7   8
ATOM      8  C   LIG d   1      -1.828  84.809 115.614  0.00  0.00     0.119 C 
BRANCH   8   9
ATOM      9  C   LIG d   1      -0.413  84.451 116.109  0.00  0.00     0.028 C 
ATOM     10  C   LIG d   1       0.181  85.537 117.022  0.00  0.00     0.006 C 
ENDBRANCH   8   9
BRANCH   8  11
ATOM     11  C   LIG d   1      -2.718  83.642 116.052  0.00  0.00     0.028 C 
ATOM     12  C   LIG d   1      -1.974  82.620 116.926  0.00  0.00     0.006 C 
ENDBRANCH   8  11
ENDBRANCH   7   8
ENDBRANCH   1   7
BRANCH   6  13
ATOM     13  N   LIG d   1      -1.000  82.142 113.274  0.00  0.00    -0.311 N 
ATOM     14  C   LIG d   1      -2.139  81.454 113.216  0.00  0.00     0.210 C 
ATOM     15  C   LIG d   1      -2.177  80.193 114.084  0.00  0.00     0.109 C 
ATOM     16  O   LIG d   1      -3.109  81.752 112.503  0.00  0.00    -0.276 OA
ATOM     17  H   LIG d   1      -0.253  81.812 113.853  0.00  0.00     0.149 HD
ENDBRANCH   6  13
BRANCH   5  18
ATOM     18  N   LIG d   1       0.159  82.304 110.452  0.00  0.00     0.381 N 
ATOM     19  H   LIG d   1       0.337  82.723 109.561  0.00  0.00    -0.090 HD
ATOM     20  H   LIG d   1      -0.806  82.027 110.483  0.00  0.00    -0.090 HD
ATOM     21  H   LIG d   1       0.745  81.508 110.576  0.00  0.00    -0.090 HD
ENDBRANCH   5  18
BRANCH   3  22
ATOM     22  C   LIG d   1       1.548  86.781 111.438  0.00  0.00     0.382 C 
ATOM     23  O   LIG d   1       1.392  87.881 112.021  0.00  0.00    -0.241 OA
ATOM     24  O   LIG d   1       2.386  86.686 110.521  0.00  0.00    -0.241 OA
ENDBRANCH   3  22
TORSDOF 7
ENDMDL
MODEL 2
REMARK VINA RESULT:      -5.9      3.996      5.915
REMARK  7 active torsions:
REMARK  status: ('A' for Active; 'I' for Inactive)
REMARK    1  A    between atoms: C_2  and  C_3 
REMARK    2  A    between atoms: C_3  and  O_6 
REMARK    3  A    between atoms: C_3  and  C_4 
REMARK    4  A    between atoms: C_7  and  O_6 
REMARK    5  A    between atoms: C_9  and  C_10 
REMARK    6  A    between atoms: N_15  and  C_14 
REMARK    7  A    between atoms: N_20  and  C_19 
REMARK       I    between atoms: C_22  and  N_20 
ROOT
ATOM      1  C   LIG d   1       2.531  87.204 113.962  0.00  0.00     0.161 C 
ATOM      2  C   LIG d   1       2.480  88.201 114.950  0.00  0.00     0.016 C 
ATOM      3  C   LIG d   1       3.445  89.228 115.069  0.00  0.00     0.038 C 
ATOM      4  C   LIG d   1       4.449  89.417 114.108  0.00  0.00     0.028 C 
ATOM      5  C   LIG d   1       4.837  88.136 113.377  0.00  0.00    -0.047 C 
ATOM      6  C   LIG d   1       3.557  87.459 112.838  0.00  0.00     0.091 C 
ENDROOT
BRANCH   1   7
ATOM      7  O   LIG d   1       1.217  87.001 113.405  0.00  0.00    -0.368 OA
BRANCH   7   8
ATOM      8  C   LIG d   1       0.578  85.740 113.722  0.00  0.00     0.119 C 
BRANCH   8   9
ATOM      9  C   LIG d   1      -0.132  85.248 112.446  0.00  0.00     0.028 C 
ATOM     10  C   LIG d   1      -0.708  86.404 111.611  0.00  0.00     0.006 C 
ENDBRANCH   8   9
BRANCH   8  11
ATOM     11  C   LIG d   1      -0.534  85.925 114.759  0.00  0.00     0.028 C 
ATOM     12  C   LIG d   1      -0.060  85.651 116.195  0.00  0.00     0.006 C 
ENDBRANCH   8  11
ENDBRANCH   7   8
ENDBRANCH   1   7
BRANCH   6  13
ATOM     13  N   LIG d   1       3.838  86.155 112.182  0.00  0.00    -0.311 N 
ATOM     14  C   LIG d   1       3.276  85.774 111.036  0.00  0.00     0.210 C 
ATOM     15  C   LIG d   1       3.689  84.383 110.544  0.00  0.00     0.109 C 
ATOM     16  O   LIG d   1       2.498  86.469 110.365  0.00  0.00    -0.276 OA
ATOM     17  H   LIG d   1       4.482  85.542 112.643  0.00  0.00     0.149 HD
ENDBRANCH   6  13
BRANCH   5  18
ATOM     18  N   LIG d   1       5.791  88.501 112.313  0.00  0.00     0.381 N 
ATOM     19  H   LIG d   1       6.727  88.425 112.656  0.00  0.00    -0.090 HD
ATOM     20  H   LIG d   1       5.630  89.457 112.046  0.00  0.00    -0.090 HD
ATOM     21  H   LIG d   1       5.668  87.904 111.525  0.00  0.00    -0.090 HD
ENDBRANCH   5  18
BRANCH   3  22
ATOM     22  C   LIG d   1       3.433  90.056 116.181  0.00  0.00     0.382 C 
ATOM     23  O   LIG d   1       2.859  91.170 116.128  0.00  0.00    -0.241 OA
ATOM     24  O   LIG d   1       4.028  89.722 117.223  0.00  0.00    -0.241 OA
ENDBRANCH   3  22
TORSDOF 7
ENDMDL
MODEL 3
REMARK VINA RESULT:      -5.8      3.242      6.871
REMARK  7 active torsions:
REMARK  status: ('A' for Active; 'I' for Inactive)
REMARK    1  A    between atoms: C_2  and  C_3 
REMARK    2  A    between atoms: C_3  and  O_6 
REMARK    3  A    between atoms: C_3  and  C_4 
REMARK    4  A    between atoms: C_7  and  O_6 
REMARK    5  A    between atoms: C_9  and  C_10 
REMARK    6  A    between atoms: N_15  and  C_14 
REMARK    7  A    between atoms: N_20  and  C_19 
REMARK       I    between atoms: C_22  and  N_20 
ROOT
ATOM      1  C   LIG d   1       1.482  86.358 113.096  0.00  0.00     0.161 C 
ATOM      2  C   LIG d   1       0.319  85.818 113.672  0.00  0.00     0.016 C 
ATOM      3  C   LIG d   1       0.016  85.915 115.050  0.00  0.00     0.038 C 
ATOM      4  C   LIG d   1       0.787  86.694 115.926  0.00  0.00     0.028 C 
ATOM      5  C   LIG d   1       2.241  86.838 115.489  0.00  0.00    -0.047 C 
ATOM      6  C   LIG d   1       2.278  87.307 114.016  0.00  0.00     0.091 C 
ENDROOT
BRANCH   1   7
ATOM      7  O   LIG d   1       1.152  87.019 111.859  0.00  0.00    -0.368 OA
BRANCH   7   8
ATOM      8  C   LIG d   1       1.726  86.447 110.658  0.00  0.00     0.119 C 
BRANCH   8   9
ATOM      9  C   LIG d   1       0.679  85.490 110.055  0.00  0.00     0.028 C 
ATOM     10  C   LIG d   1      -0.757  86.018 110.213  0.00  0.00     0.006 C 
ENDBRANCH   8   9
BRANCH   8  11
ATOM     11  C   LIG d   1       2.938  85.569 110.983  0.00  0.00     0.028 C 
ATOM     12  C   LIG d   1       2.882  84.197 110.292  0.00  0.00     0.006 C 
ENDBRANCH   8  11
ENDBRANCH   7   8
ENDBRANCH   1   7
BRANCH   6  13
ATOM     13  N   LIG d   1       3.663  87.392 113.483  0.00  0.00    -0.311 N 
ATOM     14  C   LIG d   1       4.209  88.523 113.038  0.00  0.00     0.210 C 
ATOM     15  C   LIG d   1       5.641  88.386 112.513  0.00  0.00     0.109 C 
ATOM     16  O   LIG d   1       3.654  89.632 113.058  0.00  0.00    -0.276 OA
ATOM     17  H   LIG d   1       4.196  86.545 113.460  0.00  0.00     0.149 HD
ENDBRANCH   6  13
BRANCH   5  18
ATOM     18  N   LIG d   1       2.892  87.784 116.414  0.00  0.00     0.381 N 
ATOM     19  H   LIG d   1       2.228  88.112 117.086  0.00  0.00    -0.090 HD
ATOM     20  H   LIG d   1       3.226  88.574 115.889  0.00  0.00    -0.090 HD
ATOM     21  H   LIG d   1       3.653  87.339 116.878  0.00  0.00    -0.090 HD
ENDBRANCH   5  18
BRANCH   3  22
ATOM     22  C   LIG d   1      -1.047  85.193 115.572  0.00  0.00     0.382 C 
ATOM     23  O   LIG d   1      -2.042  84.935 114.853  0.00  0.00    -0.241 OA
ATOM     24  O   LIG d   1      -1.042  84.836 116.765  0.00  0.00    -0.241 OA
ENDBRANCH   3  22
TORSDOF 7
ENDMDL
MODEL 4
REMARK VINA RESULT:      -5.5      2.255      2.793
REMARK  7 active torsions:
REMARK  status: ('A' for Active; 'I' for Inactive)
REMARK    1  A    between atoms: C_2  and  C_3 
REMARK    2  A    between atoms: C_3  and  O_6 
REMARK    3  A    between atoms: C_3  and  C_4 
REMARK    4  A    between atoms: C_7  and  O_6 
REMARK    5  A    between atoms: C_9  and  C_10 
REMARK    6  A    between atoms: N_15  and  C_14 
REMARK    7  A    between atoms: N_20  and  C_19 
REMARK       I    between atoms: C_22  and  N_20 
ROOT
ATOM      1  C   LIG d   1       1.448  86.029 113.568  0.00  0.00     0.161 C 
ATOM      2  C   LIG d   1       2.287  87.155 113.548  0.00  0.00     0.016 C 
ATOM      3  C   LIG d   1       3.287  87.364 112.570  0.00  0.00     0.038 C 
ATOM      4  C   LIG d   1       3.414  86.528 111.450  0.00  0.00     0.028 C 
ATOM      5  C   LIG d   1       2.923  85.105 111.698  0.00  0.00    -0.047 C 
ATOM      6  C   LIG d   1       1.497  85.163 112.292  0.00  0.00     0.091 C 
ENDROOT
BRANCH   1   7
ATOM      7  O   LIG d   1       0.093  86.435 113.845  0.00  0.00    -0.368 OA
BRANCH   7   8
ATOM      8  C   LIG d   1      -0.380  86.198 115.194  0.00  0.00     0.119 C 
BRANCH   8   9
ATOM      9  C   LIG d   1       0.648  85.286 115.891  0.00  0.00     0.028 C 
ATOM     10  C   LIG d   1       1.156  85.880 117.216  0.00  0.00     0.006 C 
ENDBRANCH   8   9
BRANCH   8  11
ATOM     11  C   LIG d   1      -1.691  85.406 115.194  0.00  0.00     0.028 C 
ATOM     12  C   LIG d   1      -1.528  83.983 115.753  0.00  0.00     0.006 C 
ENDBRANCH   8  11
ENDBRANCH   7   8
ENDBRANCH   1   7
BRANCH   6  13
ATOM     13  N   LIG d   1       0.975  83.816 112.642  0.00  0.00    -0.311 N 
ATOM     14  C   LIG d   1      -0.227  83.377 112.271  0.00  0.00     0.210 C 
ATOM     15  C   LIG d   1      -0.578  81.967 112.755  0.00  0.00     0.109 C 
ATOM     16  O   LIG d   1      -1.023  84.009 111.561  0.00  0.00    -0.276 OA
ATOM     17  H   LIG d   1       1.568  83.225 113.191  0.00  0.00     0.149 HD
ENDBRANCH   6  13
BRANCH   5  18
ATOM     18  N   LIG d   1       2.985  84.383 110.413  0.00  0.00     0.381 N 
ATOM     19  H   LIG d   1       2.059  84.180 110.093  0.00  0.00    -0.090 HD
ATOM     20  H   LIG d   1       3.468  83.513 110.552  0.00  0.00    -0.090 HD
ATOM     21  H   LIG d   1       3.466  84.933 109.735  0.00  0.00    -0.090 HD
ENDBRANCH   5  18
BRANCH   3  22
ATOM     22  C   LIG d   1       4.199  88.396 112.728  0.00  0.00     0.382 C 
ATOM     23  O   LIG d   1       3.794  89.557 112.980  0.00  0.00    -0.241 OA
ATOM     24  O   LIG d   1       5.418  88.191 112.578  0.00  0.00    -0.241 OA
ENDBRANCH   3  22
TORSDOF 7
ENDMDL
MODEL 5
REMARK VINA RESULT:      -5.4      1.355      2.136
REMARK  7 active torsions:
REMARK  status: ('A' for Active; 'I' for Inactive)
REMARK    1  A    between atoms: C_2  and  C_3 
REMARK    2  A    between atoms: C_3  and  O_6 
REMARK    3  A    between atoms: C_3  and  C_4 
REMARK    4  A    between atoms: C_7  and  O_6 
REMARK    5  A    between atoms: C_9  and  C_10 
REMARK    6  A    between atoms: N_15  and  C_14 
REMARK    7  A    between atoms: N_20  and  C_19 
REMARK       I    between atoms: C_22  and  N_20 
ROOT
ATOM      1  C   LIG d   1       0.093  83.425 112.804  0.00  0.00     0.161 C 
ATOM      2  C   LIG d   1       0.963  84.309 112.145  0.00  0.00     0.016 C 
ATOM      3  C   LIG d   1       1.549  84.032 110.888  0.00  0.00     0.038 C 
ATOM      4  C   LIG d   1       1.182  82.910 110.130  0.00  0.00     0.028 C 
ATOM      5  C   LIG d   1       0.692  81.741 110.978  0.00  0.00    -0.047 C 
ATOM      6  C   LIG d   1      -0.406  82.246 111.942  0.00  0.00     0.091 C 
ENDROOT
BRANCH   1   7
ATOM      7  O   LIG d   1      -1.024  84.154 113.349  0.00  0.00    -0.368 OA
BRANCH   7   8
ATOM      8  C   LIG d   1      -0.976  84.426 114.771  0.00  0.00     0.119 C 
BRANCH   8   9
ATOM      9  C   LIG d   1      -2.281  83.890 115.390  0.00  0.00     0.028 C 
ATOM     10  C   LIG d   1      -2.025  82.981 116.604  0.00  0.00     0.006 C 
ENDBRANCH   8   9
BRANCH   8  11
ATOM     11  C   LIG d   1      -0.982  85.931 115.052  0.00  0.00     0.028 C 
ATOM     12  C   LIG d   1       0.229  86.388 115.881  0.00  0.00     0.006 C 
ENDBRANCH   8  11
ENDBRANCH   7   8
ENDBRANCH   1   7
BRANCH   6  13
ATOM     13  N   LIG d   1      -0.881  81.183 112.866  0.00  0.00    -0.311 N 
ATOM     14  C   LIG d   1      -2.169  80.917 113.077  0.00  0.00     0.210 C 
ATOM     15  C   LIG d   1      -2.441  79.795 114.083  0.00  0.00     0.109 C 
ATOM     16  O   LIG d   1      -3.111  81.483 112.502  0.00  0.00    -0.276 OA
ATOM     17  H   LIG d   1      -0.183  80.654 113.351  0.00  0.00     0.149 HD
ENDBRANCH   6  13
BRANCH   5  18
ATOM     18  N   LIG d   1       0.214  80.692 110.057  0.00  0.00     0.381 N 
ATOM     19  H   LIG d   1      -0.384  80.058 110.547  0.00  0.00    -0.090 HD
ATOM     20  H   LIG d   1       1.005  80.178 109.712  0.00  0.00    -0.090 HD
ATOM     21  H   LIG d   1      -0.279  81.106 109.296  0.00  0.00    -0.090 HD
ENDBRANCH   5  18
BRANCH   3  22
ATOM     22  C   LIG d   1       2.543  84.864 110.395  0.00  0.00     0.382 C 
ATOM     23  O   LIG d   1       2.317  86.089 110.243  0.00  0.00    -0.241 OA
ATOM     24  O   LIG d   1       3.648  84.397 110.058  0.00  0.00    -0.241 OA
ENDBRANCH   3  22
TORSDOF 7
ENDMDL
MODEL 6
REMARK VINA RESULT:      -5.3      2.270      5.034
REMARK  7 active torsions:
REMARK  status: ('A' for Active; 'I' for Inactive)
REMARK    1  A    between atoms: C_2  and  C_3 
REMARK    2  A    between atoms: C_3  and  O_6 
REMARK    3  A    between atoms: C_3  and  C_4 
REMARK    4  A    between atoms: C_7  and  O_6 
REMARK    5  A    between atoms: C_9  and  C_10 
REMARK    6  A    between atoms: N_15  and  C_14 
REMARK    7  A    between atoms: N_20  and  C_19 
REMARK       I    between atoms: C_22  and  N_20 
ROOT
ATOM      1  C   LIG d   1      -0.135  83.425 112.916  0.00  0.00     0.161 C 
ATOM      2  C   LIG d   1      -1.211  82.630 113.346  0.00  0.00     0.016 C 
ATOM      3  C   LIG d   1      -1.396  81.287 112.943  0.00  0.00     0.038 C 
ATOM      4  C   LIG d   1      -0.429  80.597 112.197  0.00  0.00     0.028 C 
ATOM      5  C   LIG d   1       0.425  81.508 111.322  0.00  0.00    -0.047 C 
ATOM      6  C   LIG d   1       0.989  82.655 112.191  0.00  0.00     0.091 C 
ENDROOT
BRANCH   1   7
ATOM      7  O   LIG d   1       0.402  84.164 114.030  0.00  0.00    -0.368 OA
BRANCH   7   8
ATOM      8  C   LIG d   1       0.125  85.586 114.045  0.00  0.00     0.119 C 
BRANCH   8   9
ATOM      9  C   LIG d   1       1.461  86.320 113.821  0.00  0.00     0.028 C 
ATOM     10  C   LIG d   1       2.658  85.555 114.410  0.00  0.00     0.006 C 
ENDBRANCH   8   9
BRANCH   8  11
ATOM     11  C   LIG d   1      -0.364  86.045 115.421  0.00  0.00     0.028 C 
ATOM     12  C   LIG d   1      -0.895  84.887 116.281  0.00  0.00     0.006 C 
ENDBRANCH   8  11
ENDBRANCH   7   8
ENDBRANCH   1   7
BRANCH   6  13
ATOM     13  N   LIG d   1       1.767  83.639 111.395  0.00  0.00    -0.311 N 
ATOM     14  C   LIG d   1       3.095  83.612 111.291  0.00  0.00     0.210 C 
ATOM     15  C   LIG d   1       3.699  84.732 110.438  0.00  0.00     0.109 C 
ATOM     16  O   LIG d   1       3.826  82.749 111.798  0.00  0.00    -0.276 OA
ATOM     17  H   LIG d   1       1.250  84.357 110.925  0.00  0.00     0.149 HD
ENDBRANCH   6  13
BRANCH   5  18
ATOM     18  N   LIG d   1       1.477  80.677 110.707  0.00  0.00     0.381 N 
ATOM     19  H   LIG d   1       1.206  80.417 109.780  0.00  0.00    -0.090 HD
ATOM     20  H   LIG d   1       1.588  79.839 111.250  0.00  0.00    -0.090 HD
ATOM     21  H   LIG d   1       2.337  81.180 110.681  0.00  0.00    -0.090 HD
ENDBRANCH   5  18
BRANCH   3  22
ATOM     22  C   LIG d   1      -2.578  80.633 113.254  0.00  0.00     0.382 C 
ATOM     23  O   LIG d   1      -3.044  80.699 114.417  0.00  0.00    -0.241 OA
ATOM     24  O   LIG d   1      -3.162  79.942 112.398  0.00  0.00    -0.241 OA
ENDBRANCH   3  22
TORSDOF 7
ENDMDL
MODEL 7
REMARK VINA RESULT:      -5.1      2.336      5.126
REMARK  7 active torsions:
REMARK  status: ('A' for Active; 'I' for Inactive)
REMARK    1  A    between atoms: C_2  and  C_3 
REMARK    2  A    between atoms: C_3  and  O_6 
REMARK    3  A    between atoms: C_3  and  C_4 
REMARK    4  A    between atoms: C_7  and  O_6 
REMARK    5  A    between atoms: C_9  and  C_10 
REMARK    6  A    between atoms: N_15  and  C_14 
REMARK    7  A    between atoms: N_20  and  C_19 
REMARK       I    between atoms: C_22  and  N_20 
ROOT
ATOM      1  C   LIG d   1      -0.318  83.485 112.481  0.00  0.00     0.161 C 
ATOM      2  C   LIG d   1      -1.343  82.635 112.931  0.00  0.00     0.016 C 
ATOM      3  C   LIG d   1      -1.325  81.233 112.754  0.00  0.00     0.038 C 
ATOM      4  C   LIG d   1      -0.201  80.564 112.246  0.00  0.00     0.028 C 
ATOM      5  C   LIG d   1       0.648  81.425 111.317  0.00  0.00    -0.047 C 
ATOM      6  C   LIG d   1       0.967  82.762 112.025  0.00  0.00     0.091 C 
ENDROOT
BRANCH   1   7
ATOM      7  O   LIG d   1      -0.010  84.459 113.498  0.00  0.00    -0.368 OA
BRANCH   7   8
ATOM      8  C   LIG d   1       0.198  83.942 114.835  0.00  0.00     0.119 C 
BRANCH   8   9
ATOM      9  C   LIG d   1      -0.542  84.875 115.813  0.00  0.00     0.028 C 
ATOM     10  C   LIG d   1      -1.630  85.710 115.117  0.00  0.00     0.006 C 
ENDBRANCH   8   9
BRANCH   8  11
ATOM     11  C   LIG d   1       1.673  84.018 115.239  0.00  0.00     0.028 C 
ATOM     12  C   LIG d   1       2.396  85.228 114.627  0.00  0.00     0.006 C 
ENDBRANCH   8  11
ENDBRANCH   7   8
ENDBRANCH   1   7
BRANCH   6  13
ATOM     13  N   LIG d   1       1.724  83.699 111.153  0.00  0.00    -0.311 N 
ATOM     14  C   LIG d   1       3.048  83.832 111.196  0.00  0.00     0.210 C 
ATOM     15  C   LIG d   1       3.626  84.867 110.226  0.00  0.00     0.109 C 
ATOM     16  O   LIG d   1       3.803  83.167 111.922  0.00  0.00    -0.276 OA
ATOM     17  H   LIG d   1       1.193  84.254 110.511  0.00  0.00     0.149 HD
ENDBRANCH   6  13
BRANCH   5  18
ATOM     18  N   LIG d   1       1.856  80.652 110.972  0.00  0.00     0.381 N 
ATOM     19  H   LIG d   1       2.354  80.411 111.805  0.00  0.00    -0.090 HD
ATOM     20  H   LIG d   1       2.454  81.221 110.400  0.00  0.00    -0.090 HD
ATOM     21  H   LIG d   1       1.601  79.825 110.478  0.00  0.00    -0.090 HD
ENDBRANCH   5  18
BRANCH   3  22
ATOM     22  C   LIG d   1      -2.456  80.488 113.050  0.00  0.00     0.382 C 
ATOM     23  O   LIG d   1      -3.041  80.646 114.149  0.00  0.00    -0.241 OA
ATOM     24  O   LIG d   1      -2.874  79.628 112.251  0.00  0.00    -0.241 OA
ENDBRANCH   3  22
TORSDOF 7
ENDMDL
MODEL 8
REMARK VINA RESULT:      -5.1      2.625      3.754
REMARK  7 active torsions:
REMARK  status: ('A' for Active; 'I' for Inactive)
REMARK    1  A    between atoms: C_2  and  C_3 
REMARK    2  A    between atoms: C_3  and  O_6 
REMARK    3  A    between atoms: C_3  and  C_4 
REMARK    4  A    between atoms: C_7  and  O_6 
REMARK    5  A    between atoms: C_9  and  C_10 
REMARK    6  A    between atoms: N_15  and  C_14 
REMARK    7  A    between atoms: N_20  and  C_19 
REMARK       I    between atoms: C_22  and  N_20 
ROOT
ATOM      1  C   LIG d   1       1.177  83.189 113.242  0.00  0.00     0.161 C 
ATOM      2  C   LIG d   1       2.344  83.130 112.462  0.00  0.00     0.016 C 
ATOM      3  C   LIG d   1       2.557  82.165 111.452  0.00  0.00     0.038 C 
ATOM      4  C   LIG d   1       1.547  81.279 111.048  0.00  0.00     0.028 C 
ATOM      5  C   LIG d   1       0.536  80.971 112.147  0.00  0.00    -0.047 C 
ATOM      6  C   LIG d   1       0.019  82.301 112.740  0.00  0.00     0.091 C 
ENDROOT
BRANCH   1   7
ATOM      7  O   LIG d   1       0.741  84.557 113.367  0.00  0.00    -0.368 OA
BRANCH   7   8
ATOM      8  C   LIG d   1       1.356  85.327 114.430  0.00  0.00     0.119 C 
BRANCH   8   9
ATOM      9  C   LIG d   1       0.222  85.903 115.300  0.00  0.00     0.028 C 
ATOM     10  C   LIG d   1      -1.168  85.666 114.685  0.00  0.00     0.006 C 
ENDBRANCH   8   9
BRANCH   8  11
ATOM     11  C   LIG d   1       2.101  86.545 113.876  0.00  0.00     0.028 C 
ATOM     12  C   LIG d   1       3.629  86.386 113.935  0.00  0.00     0.006 C 
ENDBRANCH   8  11
ENDBRANCH   7   8
ENDBRANCH   1   7
BRANCH   6  13
ATOM     13  N   LIG d   1      -0.912  82.090 113.880  0.00  0.00    -0.311 N 
ATOM     14  C   LIG d   1      -2.230  81.960 113.735  0.00  0.00     0.210 C 
ATOM     15  C   LIG d   1      -3.007  81.770 115.041  0.00  0.00     0.109 C 
ATOM     16  O   LIG d   1      -2.825  81.952 112.647  0.00  0.00    -0.276 OA
ATOM     17  H   LIG d   1      -0.510  82.052 114.796  0.00  0.00     0.149 HD
ENDBRANCH   6  13
BRANCH   5  18
ATOM     18  N   LIG d   1      -0.534  80.148 111.551  0.00  0.00     0.381 N 
ATOM     19  H   LIG d   1      -1.238  79.961 112.236  0.00  0.00    -0.090 HD
ATOM     20  H   LIG d   1      -0.142  79.272 111.253  0.00  0.00    -0.090 HD
ATOM     21  H   LIG d   1      -0.935  80.623 110.772  0.00  0.00    -0.090 HD
ENDBRANCH   5  18
BRANCH   3  22
ATOM     22  C   LIG d   1       3.807  82.052 110.861  0.00  0.00     0.382 C 
ATOM     23  O   LIG d   1       4.685  82.921 111.081  0.00  0.00    -0.241 OA
ATOM     24  O   LIG d   1       4.053  81.117 110.076  0.00  0.00    -0.241 OA
ENDBRANCH   3  22
TORSDOF 7
ENDMDL
MODEL 9
REMARK VINA RESULT:      -5.0      2.803      4.888
REMARK  7 active torsions:
REMARK  status: ('A' for Active; 'I' for Inactive)
REMARK    1  A    between atoms: C_2  and  C_3 
REMARK    2  A    between atoms: C_3  and  O_6 
REMARK    3  A    between atoms: C_3  and  C_4 
REMARK    4  A    between atoms: C_7  and  O_6 
REMARK    5  A    between atoms: C_9  and  C_10 
REMARK    6  A    between atoms: N_15  and  C_14 
REMARK    7  A    between atoms: N_20  and  C_19 
REMARK       I    between atoms: C_22  and  N_20 
ROOT
ATOM      1  C   LIG d   1       1.254  86.470 112.536  0.00  0.00     0.161 C 
ATOM      2  C   LIG d   1       2.351  87.279 112.195  0.00  0.00     0.016 C 
ATOM      3  C   LIG d   1       3.341  87.677 113.122  0.00  0.00     0.038 C 
ATOM      4  C   LIG d   1       3.383  87.166 114.428  0.00  0.00     0.028 C 
ATOM      5  C   LIG d   1       2.016  86.747 114.959  0.00  0.00    -0.047 C 
ATOM      6  C   LIG d   1       1.343  85.812 113.928  0.00  0.00     0.091 C 
ENDROOT
BRANCH   1   7
ATOM      7  O   LIG d   1       1.052  85.467 111.520  0.00  0.00    -0.368 OA
BRANCH   7   8
ATOM      8  C   LIG d   1       1.859  84.270 111.637  0.00  0.00     0.119 C 
BRANCH   8   9
ATOM      9  C   LIG d   1       2.971  84.354 110.574  0.00  0.00     0.028 C 
ATOM     10  C   LIG d   1       3.996  83.216 110.706  0.00  0.00     0.006 C 
ENDBRANCH   8   9
BRANCH   8  11
ATOM     11  C   LIG d   1       1.052  83.017 111.282  0.00  0.00     0.028 C 
ATOM     12  C   LIG d   1      -0.441  83.154 111.622  0.00  0.00     0.006 C 
ENDBRANCH   8  11
ENDBRANCH   7   8
ENDBRANCH   1   7
BRANCH   6  13
ATOM     13  N   LIG d   1      -0.034  85.423 114.331  0.00  0.00    -0.311 N 
ATOM     14  C   LIG d   1      -0.314  84.306 115.001  0.00  0.00     0.210 C 
ATOM     15  C   LIG d   1      -1.800  84.086 115.298  0.00  0.00     0.109 C 
ATOM     16  O   LIG d   1       0.531  83.493 115.405  0.00  0.00    -0.276 OA
ATOM     17  H   LIG d   1      -0.777  86.041 114.071  0.00  0.00     0.149 HD
ENDBRANCH   6  13
BRANCH   5  18
ATOM     18  N   LIG d   1       2.224  86.107 116.271  0.00  0.00     0.381 N 
ATOM     19  H   LIG d   1       2.478  85.148 116.144  0.00  0.00    -0.090 HD
ATOM     20  H   LIG d   1       1.364  86.139 116.789  0.00  0.00    -0.090 HD
ATOM     21  H   LIG d   1       2.941  86.584 116.773  0.00  0.00    -0.090 HD
ENDBRANCH   5  18
BRANCH   3  22
ATOM     22  C   LIG d   1       4.281  88.629 112.757  0.00  0.00     0.382 C 
ATOM     23  O   LIG d   1       5.373  88.270 112.253  0.00  0.00    -0.241 OA
ATOM     24  O   LIG d   1       4.070  89.838 112.966  0.00  0.00    -0.241 OA
ENDBRANCH   3  22
TORSDOF 7
ENDMDL
