MODEL 1
REMARK VINA RESULT:      -5.5      0.000      0.000
REMARK  7 active torsions:
REMARK  status: ('A' for Active; 'I' for Inactive)
REMARK    1  A    between atoms: C_2  and  C_3 
REMARK    2  A    between atoms: C_3  and  O_6 
REMARK    3  A    between atoms: C_3  and  C_4 
REMARK    4  A    between atoms: C_7  and  O_6 
REMARK    5  A    between atoms: C_9  and  C_10 
REMARK    6  A    between atoms: N_15  and  C_14 
REMARK    7  A    between atoms: N_20  and  C_19 
REMARK       I    between atoms: C_22  and  N_20 
ROOT
ATOM      1  C   LIG d   1       2.282  84.213 113.108  0.00  0.00     0.161 C 
ATOM      2  C   LIG d   1       2.517  85.391 112.378  0.00  0.00     0.016 C 
ATOM      3  C   LIG d   1       2.925  86.607 112.974  0.00  0.00     0.038 C 
ATOM      4  C   LIG d   1       3.274  86.688 114.330  0.00  0.00     0.028 C 
ATOM      5  C   LIG d   1       2.569  85.653 115.200  0.00  0.00    -0.047 C 
ATOM      6  C   LIG d   1       2.765  84.253 114.573  0.00  0.00     0.091 C 
ENDROOT
BRANCH   1   7
ATOM      7  O   LIG d   1       2.863  83.088 112.420  0.00  0.00    -0.368 OA
BRANCH   7   8
ATOM      8  C   LIG d   1       2.019  82.437 111.438  0.00  0.00     0.119 C 
BRANCH   8   9
ATOM      9  C   LIG d   1       1.848  80.969 111.876  0.00  0.00     0.028 C 
ATOM     10  C   LIG d   1       1.890  79.994 110.687  0.00  0.00     0.006 C 
ENDBRANCH   8   9
BRANCH   8  11
ATOM     11  C   LIG d   1       2.703  82.375 110.069  0.00  0.00     0.028 C 
ATOM     12  C   LIG d   1       4.112  82.989 110.078  0.00  0.00     0.006 C 
ENDBRANCH   8  11
ENDBRANCH   7   8
ENDBRANCH   1   7
BRANCH   6  13
ATOM     13  N   LIG d   1       2.036  83.192 115.316  0.00  0.00    -0.311 N 
ATOM     14  C   LIG d   1       2.644  82.184 115.938  0.00  0.00     0.210 C 
ATOM     15  C   LIG d   1       1.704  81.189 116.627  0.00  0.00     0.109 C 
ATOM     16  O   LIG d   1       3.873  82.036 116.012  0.00  0.00    -0.276 OA
ATOM     17  H   LIG d   1       1.037  83.252 115.333  0.00  0.00     0.149 HD
ENDBRANCH   6  13
BRANCH   5  18
ATOM     18  N   LIG d   1       3.127  85.760 116.561  0.00  0.00     0.381 N 
ATOM     19  H   LIG d   1       4.122  85.656 116.528  0.00  0.00    -0.090 HD
ATOM     20  H   LIG d   1       2.752  85.019 117.126  0.00  0.00    -0.090 HD
ATOM     21  H   LIG d   1       2.891  86.643 116.958  0.00  0.00    -0.090 HD
ENDBRANCH   5  18
BRANCH   3  22
ATOM     22  C   LIG d   1       2.949  87.768 112.217  0.00  0.00     0.382 C 
ATOM     23  O   LIG d   1       3.625  88.753 112.600  0.00  0.00    -0.241 OA
ATOM     24  O   LIG d   1       2.266  87.860 111.179  0.00  0.00    -0.241 OA
ENDBRANCH   3  22
TORSDOF 7
ENDMDL
MODEL 2
REMARK VINA RESULT:      -5.5      2.715      4.996
REMARK  7 active torsions:
REMARK  status: ('A' for Active; 'I' for Inactive)
REMARK    1  A    between atoms: C_2  and  C_3 
REMARK    2  A    between atoms: C_3  and  O_6 
REMARK    3  A    between atoms: C_3  and  C_4 
REMARK    4  A    between atoms: C_7  and  O_6 
REMARK    5  A    between atoms: C_9  and  C_10 
REMARK    6  A    between atoms: N_15  and  C_14 
REMARK    7  A    between atoms: N_20  and  C_19 
REMARK       I    between atoms: C_22  and  N_20 
ROOT
ATOM      1  C   LIG d   1       2.438  85.575 113.632  0.00  0.00     0.161 C 
ATOM      2  C   LIG d   1       3.220  86.728 113.812  0.00  0.00     0.016 C 
ATOM      3  C   LIG d   1       3.351  87.740 112.833  0.00  0.00     0.038 C 
ATOM      4  C   LIG d   1       2.583  87.739 111.659  0.00  0.00     0.028 C 
ATOM      5  C   LIG d   1       2.163  86.343 111.211  0.00  0.00    -0.047 C 
ATOM      6  C   LIG d   1       1.506  85.611 112.403  0.00  0.00     0.091 C 
ENDROOT
BRANCH   1   7
ATOM      7  O   LIG d   1       1.680  85.307 114.828  0.00  0.00    -0.368 OA
BRANCH   7   8
ATOM      8  C   LIG d   1       2.269  85.762 116.071  0.00  0.00     0.119 C 
BRANCH   8   9
ATOM      9  C   LIG d   1       2.640  84.512 116.892  0.00  0.00     0.028 C 
ATOM     10  C   LIG d   1       1.624  83.371 116.716  0.00  0.00     0.006 C 
ENDBRANCH   8   9
BRANCH   8  11
ATOM     11  C   LIG d   1       1.249  86.520 116.926  0.00  0.00     0.028 C 
ATOM     12  C   LIG d   1       0.513  87.618 116.142  0.00  0.00     0.006 C 
ENDBRANCH   8  11
ENDBRANCH   7   8
ENDBRANCH   1   7
BRANCH   6  13
ATOM     13  N   LIG d   1       1.141  84.208 112.074  0.00  0.00    -0.311 N 
ATOM     14  C   LIG d   1      -0.085  83.835 111.711  0.00  0.00     0.210 C 
ATOM     15  C   LIG d   1      -0.251  82.337 111.436  0.00  0.00     0.109 C 
ATOM     16  O   LIG d   1      -1.044  84.608 111.559  0.00  0.00    -0.276 OA
ATOM     17  H   LIG d   1       1.865  83.520 112.141  0.00  0.00     0.149 HD
ENDBRANCH   6  13
BRANCH   5  18
ATOM     18  N   LIG d   1       1.256  86.500 110.058  0.00  0.00     0.381 N 
ATOM     19  H   LIG d   1       0.441  87.010 110.334  0.00  0.00    -0.090 HD
ATOM     20  H   LIG d   1       0.968  85.589 109.745  0.00  0.00    -0.090 HD
ATOM     21  H   LIG d   1       1.722  86.980 109.320  0.00  0.00    -0.090 HD
ENDBRANCH   5  18
BRANCH   3  22
ATOM     22  C   LIG d   1       4.288  88.747 113.006  0.00  0.00     0.382 C 
ATOM     23  O   LIG d   1       5.349  88.738 112.337  0.00  0.00    -0.241 OA
ATOM     24  O   LIG d   1       4.106  89.639 113.856  0.00  0.00    -0.241 OA
ENDBRANCH   3  22
TORSDOF 7
ENDMDL
MODEL 3
REMARK VINA RESULT:      -5.4      2.611      4.802
REMARK  7 active torsions:
REMARK  status: ('A' for Active; 'I' for Inactive)
REMARK    1  A    between atoms: C_2  and  C_3 
REMARK    2  A    between atoms: C_3  and  O_6 
REMARK    3  A    between atoms: C_3  and  C_4 
REMARK    4  A    between atoms: C_7  and  O_6 
REMARK    5  A    between atoms: C_9  and  C_10 
REMARK    6  A    between atoms: N_15  and  C_14 
REMARK    7  A    between atoms: N_20  and  C_19 
REMARK       I    between atoms: C_22  and  N_20 
ROOT
ATOM      1  C   LIG d   1       2.025  83.914 112.968  0.00  0.00     0.161 C 
ATOM      2  C   LIG d   1       2.636  85.175 112.876  0.00  0.00     0.016 C 
ATOM      3  C   LIG d   1       2.261  86.154 111.927  0.00  0.00     0.038 C 
ATOM      4  C   LIG d   1       1.140  85.994 111.100  0.00  0.00     0.028 C 
ATOM      5  C   LIG d   1       0.804  84.535 110.811  0.00  0.00    -0.047 C 
ATOM      6  C   LIG d   1       0.726  83.763 112.149  0.00  0.00     0.091 C 
ENDROOT
BRANCH   1   7
ATOM      7  O   LIG d   1       1.784  83.588 114.352  0.00  0.00    -0.368 OA
BRANCH   7   8
ATOM      8  C   LIG d   1       2.378  84.477 115.329  0.00  0.00     0.119 C 
BRANCH   8   9
ATOM      9  C   LIG d   1       3.510  83.703 116.032  0.00  0.00     0.028 C 
ATOM     10  C   LIG d   1       4.826  84.498 116.074  0.00  0.00     0.006 C 
ENDBRANCH   8   9
BRANCH   8  11
ATOM     11  C   LIG d   1       1.382  84.834 116.436  0.00  0.00     0.028 C 
ATOM     12  C   LIG d   1       1.553  86.271 116.952  0.00  0.00     0.006 C 
ENDBRANCH   8  11
ENDBRANCH   7   8
ENDBRANCH   1   7
BRANCH   6  13
ATOM     13  N   LIG d   1       0.485  82.310 111.951  0.00  0.00    -0.311 N 
ATOM     14  C   LIG d   1      -0.731  81.777 111.847  0.00  0.00     0.210 C 
ATOM     15  C   LIG d   1      -0.757  80.255 111.668  0.00  0.00     0.109 C 
ATOM     16  O   LIG d   1      -1.790  82.423 111.853  0.00  0.00    -0.276 OA
ATOM     17  H   LIG d   1       1.289  81.716 111.904  0.00  0.00     0.149 HD
ENDBRANCH   6  13
BRANCH   5  18
ATOM     18  N   LIG d   1      -0.462  84.510 110.055  0.00  0.00     0.381 N 
ATOM     19  H   LIG d   1      -1.162  84.025 110.581  0.00  0.00    -0.090 HD
ATOM     20  H   LIG d   1      -0.317  84.015 109.193  0.00  0.00    -0.090 HD
ATOM     21  H   LIG d   1      -0.764  85.441 109.866  0.00  0.00    -0.090 HD
ENDBRANCH   5  18
BRANCH   3  22
ATOM     22  C   LIG d   1       3.037  87.293 111.772  0.00  0.00     0.382 C 
ATOM     23  O   LIG d   1       2.560  88.419 112.053  0.00  0.00    -0.241 OA
ATOM     24  O   LIG d   1       4.192  87.213 111.313  0.00  0.00    -0.241 OA
ENDBRANCH   3  22
TORSDOF 7
ENDMDL
MODEL 4
REMARK VINA RESULT:      -4.9      2.252      5.175
REMARK  7 active torsions:
REMARK  status: ('A' for Active; 'I' for Inactive)
REMARK    1  A    between atoms: C_2  and  C_3 
REMARK    2  A    between atoms: C_3  and  O_6 
REMARK    3  A    between atoms: C_3  and  C_4 
REMARK    4  A    between atoms: C_7  and  O_6 
REMARK    5  A    between atoms: C_9  and  C_10 
REMARK    6  A    between atoms: N_15  and  C_14 
REMARK    7  A    between atoms: N_20  and  C_19 
REMARK       I    between atoms: C_22  and  N_20 
ROOT
ATOM      1  C   LIG d   1       2.618  85.023 113.499  0.00  0.00     0.161 C 
ATOM      2  C   LIG d   1       2.217  83.739 113.904  0.00  0.00     0.016 C 
ATOM      3  C   LIG d   1       2.464  83.218 115.195  0.00  0.00     0.038 C 
ATOM      4  C   LIG d   1       3.000  84.008 116.223  0.00  0.00     0.028 C 
ATOM      5  C   LIG d   1       3.880  85.146 115.717  0.00  0.00    -0.047 C 
ATOM      6  C   LIG d   1       3.104  85.940 114.641  0.00  0.00     0.091 C 
ENDROOT
BRANCH   1   7
ATOM      7  O   LIG d   1       1.552  85.659 112.766  0.00  0.00    -0.368 OA
BRANCH   7   8
ATOM      8  C   LIG d   1       1.522  85.409 111.339  0.00  0.00     0.119 C 
BRANCH   8   9
ATOM      9  C   LIG d   1       2.959  85.585 110.808  0.00  0.00     0.028 C 
ATOM     10  C   LIG d   1       3.463  84.342 110.056  0.00  0.00     0.006 C 
ENDBRANCH   8   9
BRANCH   8  11
ATOM     11  C   LIG d   1       0.687  86.463 110.606  0.00  0.00     0.028 C 
ATOM     12  C   LIG d   1      -0.808  86.112 110.559  0.00  0.00     0.006 C 
ENDBRANCH   8  11
ENDBRANCH   7   8
ENDBRANCH   1   7
BRANCH   6  13
ATOM     13  N   LIG d   1       3.924  87.020 114.033  0.00  0.00    -0.311 N 
ATOM     14  C   LIG d   1       3.508  88.280 113.920  0.00  0.00     0.210 C 
ATOM     15  C   LIG d   1       4.501  89.231 113.244  0.00  0.00     0.109 C 
ATOM     16  O   LIG d   1       2.424  88.708 114.345  0.00  0.00    -0.276 OA
ATOM     17  H   LIG d   1       4.830  86.767 113.690  0.00  0.00     0.149 HD
ENDBRANCH   6  13
BRANCH   5  18
ATOM     18  N   LIG d   1       4.258  85.969 116.882  0.00  0.00     0.381 N 
ATOM     19  H   LIG d   1       4.437  86.908 116.589  0.00  0.00    -0.090 HD
ATOM     20  H   LIG d   1       5.101  85.597 117.282  0.00  0.00    -0.090 HD
ATOM     21  H   LIG d   1       3.527  85.958 117.559  0.00  0.00    -0.090 HD
ENDBRANCH   5  18
BRANCH   3  22
ATOM     22  C   LIG d   1       2.211  81.880 115.456  0.00  0.00     0.382 C 
ATOM     23  O   LIG d   1       1.608  81.179 114.608  0.00  0.00    -0.241 OA
ATOM     24  O   LIG d   1       2.539  81.376 116.547  0.00  0.00    -0.241 OA
ENDBRANCH   3  22
TORSDOF 7
ENDMDL
MODEL 5
REMARK VINA RESULT:      -4.8     11.200     12.913
REMARK  7 active torsions:
REMARK  status: ('A' for Active; 'I' for Inactive)
REMARK    1  A    between atoms: C_2  and  C_3 
REMARK    2  A    between atoms: C_3  and  O_6 
REMARK    3  A    between atoms: C_3  and  C_4 
REMARK    4  A    between atoms: C_7  and  O_6 
REMARK    5  A    between atoms: C_9  and  C_10 
REMARK    6  A    between atoms: N_15  and  C_14 
REMARK    7  A    between atoms: N_20  and  C_19 
REMARK       I    between atoms: C_22  and  N_20 
ROOT
ATOM      1  C   LIG d   1      -5.452  75.185 117.932  0.00  0.00     0.161 C 
ATOM      2  C   LIG d   1      -6.640  75.921 118.079  0.00  0.00     0.016 C 
ATOM      3  C   LIG d   1      -6.748  77.296 117.769  0.00  0.00     0.038 C 
ATOM      4  C   LIG d   1      -5.707  77.998 117.144  0.00  0.00     0.028 C 
ATOM      5  C   LIG d   1      -4.325  77.425 117.441  0.00  0.00    -0.047 C 
ATOM      6  C   LIG d   1      -4.337  75.908 117.148  0.00  0.00     0.091 C 
ENDROOT
BRANCH   1   7
ATOM      7  O   LIG d   1      -5.740  73.907 117.332  0.00  0.00    -0.368 OA
BRANCH   7   8
ATOM      8  C   LIG d   1      -6.807  73.888 116.353  0.00  0.00     0.119 C 
BRANCH   8   9
ATOM      9  C   LIG d   1      -7.474  72.500 116.421  0.00  0.00     0.028 C 
ATOM     10  C   LIG d   1      -8.809  72.527 117.184  0.00  0.00     0.006 C 
ENDBRANCH   8   9
BRANCH   8  11
ATOM     11  C   LIG d   1      -6.259  74.005 114.928  0.00  0.00     0.028 C 
ATOM     12  C   LIG d   1      -6.580  75.359 114.275  0.00  0.00     0.006 C 
ENDBRANCH   8  11
ENDBRANCH   7   8
ENDBRANCH   1   7
BRANCH   6  13
ATOM     13  N   LIG d   1      -3.048  75.253 117.492  0.00  0.00    -0.311 N 
ATOM     14  C   LIG d   1      -2.398  74.435 116.667  0.00  0.00     0.210 C 
ATOM     15  C   LIG d   1      -1.097  73.852 117.227  0.00  0.00     0.109 C 
ATOM     16  O   LIG d   1      -2.758  74.162 115.512  0.00  0.00    -0.276 OA
ATOM     17  H   LIG d   1      -2.668  75.444 118.398  0.00  0.00     0.149 HD
ENDBRANCH   6  13
BRANCH   5  18
ATOM     18  N   LIG d   1      -3.349  78.166 116.619  0.00  0.00     0.381 N 
ATOM     19  H   LIG d   1      -2.871  77.533 116.010  0.00  0.00    -0.090 HD
ATOM     20  H   LIG d   1      -2.671  78.593 117.226  0.00  0.00    -0.090 HD
ATOM     21  H   LIG d   1      -3.815  78.866 116.085  0.00  0.00    -0.090 HD
ENDBRANCH   5  18
BRANCH   3  22
ATOM     22  C   LIG d   1      -7.894  77.992 118.121  0.00  0.00     0.382 C 
ATOM     23  O   LIG d   1      -7.842  79.232 118.305  0.00  0.00    -0.241 OA
ATOM     24  O   LIG d   1      -8.969  77.390 118.301  0.00  0.00    -0.241 OA
ENDBRANCH   3  22
TORSDOF 7
ENDMDL
MODEL 6
REMARK VINA RESULT:      -4.7      2.221      3.117
REMARK  7 active torsions:
REMARK  status: ('A' for Active; 'I' for Inactive)
REMARK    1  A    between atoms: C_2  and  C_3 
REMARK    2  A    between atoms: C_3  and  O_6 
REMARK    3  A    between atoms: C_3  and  C_4 
REMARK    4  A    between atoms: C_7  and  O_6 
REMARK    5  A    between atoms: C_9  and  C_10 
REMARK    6  A    between atoms: N_15  and  C_14 
REMARK    7  A    between atoms: N_20  and  C_19 
REMARK       I    between atoms: C_22  and  N_20 
ROOT
ATOM      1  C   LIG d   1       1.361  85.031 113.356  0.00  0.00     0.161 C 
ATOM      2  C   LIG d   1       1.722  86.354 113.663  0.00  0.00     0.016 C 
ATOM      3  C   LIG d   1       2.713  86.690 114.614  0.00  0.00     0.038 C 
ATOM      4  C   LIG d   1       3.522  85.715 115.217  0.00  0.00     0.028 C 
ATOM      5  C   LIG d   1       2.853  84.348 115.315  0.00  0.00    -0.047 C 
ATOM      6  C   LIG d   1       2.310  83.954 113.923  0.00  0.00     0.091 C 
ENDROOT
BRANCH   1   7
ATOM      7  O   LIG d   1       1.227  84.880 111.929  0.00  0.00    -0.368 OA
BRANCH   7   8
ATOM      8  C   LIG d   1       1.502  86.060 111.134  0.00  0.00     0.119 C 
BRANCH   8   9
ATOM      9  C   LIG d   1       0.213  86.412 110.368  0.00  0.00     0.028 C 
ATOM     10  C   LIG d   1      -0.800  85.255 110.358  0.00  0.00     0.006 C 
ENDBRANCH   8   9
BRANCH   8  11
ATOM     11  C   LIG d   1       2.550  85.772 110.055  0.00  0.00     0.028 C 
ATOM     12  C   LIG d   1       3.547  84.679 110.469  0.00  0.00     0.006 C 
ENDBRANCH   8  11
ENDBRANCH   7   8
ENDBRANCH   1   7
BRANCH   6  13
ATOM     13  N   LIG d   1       1.566  82.668 113.948  0.00  0.00    -0.311 N 
ATOM     14  C   LIG d   1       1.770  81.686 113.071  0.00  0.00     0.210 C 
ATOM     15  C   LIG d   1       0.882  80.453 113.264  0.00  0.00     0.109 C 
ATOM     16  O   LIG d   1       2.624  81.707 112.172  0.00  0.00    -0.276 OA
ATOM     17  H   LIG d   1       0.876  82.554 114.664  0.00  0.00     0.149 HD
ENDBRANCH   6  13
BRANCH   5  18
ATOM     18  N   LIG d   1       3.854  83.398 115.836  0.00  0.00     0.381 N 
ATOM     19  H   LIG d   1       3.398  82.680 116.362  0.00  0.00    -0.090 HD
ATOM     20  H   LIG d   1       4.481  83.890 116.449  0.00  0.00    -0.090 HD
ATOM     21  H   LIG d   1       4.365  82.994 115.082  0.00  0.00    -0.090 HD
ENDBRANCH   5  18
BRANCH   3  22
ATOM     22  C   LIG d   1       2.876  88.012 115.000  0.00  0.00     0.382 C 
ATOM     23  O   LIG d   1       3.941  88.377 115.552  0.00  0.00    -0.241 OA
ATOM     24  O   LIG d   1       1.953  88.834 114.842  0.00  0.00    -0.241 OA
ENDBRANCH   3  22
TORSDOF 7
ENDMDL
MODEL 7
REMARK VINA RESULT:      -4.6      2.279      4.689
REMARK  7 active torsions:
REMARK  status: ('A' for Active; 'I' for Inactive)
REMARK    1  A    between atoms: C_2  and  C_3 
REMARK    2  A    between atoms: C_3  and  O_6 
REMARK    3  A    between atoms: C_3  and  C_4 
REMARK    4  A    between atoms: C_7  and  O_6 
REMARK    5  A    between atoms: C_9  and  C_10 
REMARK    6  A    between atoms: N_15  and  C_14 
REMARK    7  A    between atoms: N_20  and  C_19 
REMARK       I    between atoms: C_22  and  N_20 
ROOT
ATOM      1  C   LIG d   1       2.595  85.489 113.887  0.00  0.00     0.161 C 
ATOM      2  C   LIG d   1       3.282  86.688 114.136  0.00  0.00     0.016 C 
ATOM      3  C   LIG d   1       3.481  87.689 113.156  0.00  0.00     0.038 C 
ATOM      4  C   LIG d   1       2.870  87.623 111.895  0.00  0.00     0.028 C 
ATOM      5  C   LIG d   1       2.588  86.198 111.432  0.00  0.00    -0.047 C 
ATOM      6  C   LIG d   1       1.826  85.449 112.550  0.00  0.00     0.091 C 
ENDROOT
BRANCH   1   7
ATOM      7  O   LIG d   1       1.706  85.199 114.984  0.00  0.00    -0.368 OA
BRANCH   7   8
ATOM      8  C   LIG d   1       2.326  85.060 116.287  0.00  0.00     0.119 C 
BRANCH   8   9
ATOM      9  C   LIG d   1       3.195  83.788 116.253  0.00  0.00     0.028 C 
ATOM     10  C   LIG d   1       4.626  84.042 116.757  0.00  0.00     0.006 C 
ENDBRANCH   8   9
BRANCH   8  11
ATOM     11  C   LIG d   1       1.280  84.808 117.377  0.00  0.00     0.028 C 
ATOM     12  C   LIG d   1       1.048  83.313 117.646  0.00  0.00     0.006 C 
ENDBRANCH   8  11
ENDBRANCH   7   8
ENDBRANCH   1   7
BRANCH   6  13
ATOM     13  N   LIG d   1       1.584  84.022 112.212  0.00  0.00    -0.311 N 
ATOM     14  C   LIG d   1       2.550  83.180 111.851  0.00  0.00     0.210 C 
ATOM     15  C   LIG d   1       2.081  81.758 111.527  0.00  0.00     0.109 C 
ATOM     16  O   LIG d   1       3.756  83.467 111.799  0.00  0.00    -0.276 OA
ATOM     17  H   LIG d   1       0.638  83.697 112.259  0.00  0.00     0.149 HD
ENDBRANCH   6  13
BRANCH   5  18
ATOM     18  N   LIG d   1       1.828  86.281 110.170  0.00  0.00     0.381 N 
ATOM     19  H   LIG d   1       2.318  86.860 109.518  0.00  0.00    -0.090 HD
ATOM     20  H   LIG d   1       0.935  86.702 110.356  0.00  0.00    -0.090 HD
ATOM     21  H   LIG d   1       1.701  85.370 109.788  0.00  0.00    -0.090 HD
ENDBRANCH   5  18
BRANCH   3  22
ATOM     22  C   LIG d   1       4.332  88.751 113.422  0.00  0.00     0.382 C 
ATOM     23  O   LIG d   1       4.181  89.841 112.818  0.00  0.00    -0.241 OA
ATOM     24  O   LIG d   1       5.275  88.620 114.225  0.00  0.00    -0.241 OA
ENDBRANCH   3  22
TORSDOF 7
ENDMDL
MODEL 8
REMARK VINA RESULT:      -4.5     26.656     29.343
REMARK  7 active torsions:
REMARK  status: ('A' for Active; 'I' for Inactive)
REMARK    1  A    between atoms: C_2  and  C_3 
REMARK    2  A    between atoms: C_3  and  O_6 
REMARK    3  A    between atoms: C_3  and  C_4 
REMARK    4  A    between atoms: C_7  and  O_6 
REMARK    5  A    between atoms: C_9  and  C_10 
REMARK    6  A    between atoms: N_15  and  C_14 
REMARK    7  A    between atoms: N_20  and  C_19 
REMARK       I    between atoms: C_22  and  N_20 
ROOT
ATOM      1  C   LIG d   1     -18.510  63.625 115.326  0.00  0.00     0.161 C 
ATOM      2  C   LIG d   1     -18.959  62.659 114.409  0.00  0.00     0.016 C 
ATOM      3  C   LIG d   1     -18.683  62.713 113.024  0.00  0.00     0.038 C 
ATOM      4  C   LIG d   1     -17.805  63.663 112.479  0.00  0.00     0.028 C 
ATOM      5  C   LIG d   1     -17.734  64.955 113.287  0.00  0.00    -0.047 C 
ATOM      6  C   LIG d   1     -17.459  64.607 114.767  0.00  0.00     0.091 C 
ENDROOT
BRANCH   1   7
ATOM      7  O   LIG d   1     -18.010  62.977 116.512  0.00  0.00    -0.368 OA
BRANCH   7   8
ATOM      8  C   LIG d   1     -16.650  62.484 116.444  0.00  0.00     0.119 C 
BRANCH   8   9
ATOM      9  C   LIG d   1     -16.708  60.948 116.543  0.00  0.00     0.028 C 
ATOM     10  C   LIG d   1     -18.000  60.451 117.214  0.00  0.00     0.006 C 
ENDBRANCH   8   9
BRANCH   8  11
ATOM     11  C   LIG d   1     -15.832  62.937 117.657  0.00  0.00     0.028 C 
ATOM     12  C   LIG d   1     -14.754  61.919 118.064  0.00  0.00     0.006 C 
ENDBRANCH   8  11
ENDBRANCH   7   8
ENDBRANCH   1   7
BRANCH   6  13
ATOM     13  N   LIG d   1     -17.458  65.809 115.641  0.00  0.00    -0.311 N 
ATOM     14  C   LIG d   1     -16.346  66.433 116.027  0.00  0.00     0.210 C 
ATOM     15  C   LIG d   1     -16.568  67.640 116.944  0.00  0.00     0.109 C 
ATOM     16  O   LIG d   1     -15.200  66.122 115.671  0.00  0.00    -0.276 OA
ATOM     17  H   LIG d   1     -18.347  66.148 115.952  0.00  0.00     0.149 HD
ENDBRANCH   6  13
BRANCH   5  18
ATOM     18  N   LIG d   1     -16.683  65.798 112.686  0.00  0.00     0.381 N 
ATOM     19  H   LIG d   1     -16.871  65.931 111.712  0.00  0.00    -0.090 HD
ATOM     20  H   LIG d   1     -15.799  65.329 112.775  0.00  0.00    -0.090 HD
ATOM     21  H   LIG d   1     -16.648  66.680 113.149  0.00  0.00    -0.090 HD
ENDBRANCH   5  18
BRANCH   3  22
ATOM     22  C   LIG d   1     -19.320  61.834 112.161  0.00  0.00     0.382 C 
ATOM     23  O   LIG d   1     -19.005  60.620 112.159  0.00  0.00    -0.241 OA
ATOM     24  O   LIG d   1     -20.174  62.248 111.354  0.00  0.00    -0.241 OA
ENDBRANCH   3  22
TORSDOF 7
ENDMDL
MODEL 9
REMARK VINA RESULT:      -4.5     26.241     28.836
REMARK  7 active torsions:
REMARK  status: ('A' for Active; 'I' for Inactive)
REMARK    1  A    between atoms: C_2  and  C_3 
REMARK    2  A    between atoms: C_3  and  O_6 
REMARK    3  A    between atoms: C_3  and  C_4 
REMARK    4  A    between atoms: C_7  and  O_6 
REMARK    5  A    between atoms: C_9  and  C_10 
REMARK    6  A    between atoms: N_15  and  C_14 
REMARK    7  A    between atoms: N_20  and  C_19 
REMARK       I    between atoms: C_22  and  N_20 
ROOT
ATOM      1  C   LIG d   1     -16.953  63.608 116.209  0.00  0.00     0.161 C 
ATOM      2  C   LIG d   1     -16.294  64.606 116.947  0.00  0.00     0.016 C 
ATOM      3  C   LIG d   1     -15.917  65.855 116.403  0.00  0.00     0.038 C 
ATOM      4  C   LIG d   1     -16.312  66.253 115.117  0.00  0.00     0.028 C 
ATOM      5  C   LIG d   1     -16.540  65.084 114.165  0.00  0.00    -0.047 C 
ATOM      6  C   LIG d   1     -17.490  64.067 114.837  0.00  0.00     0.091 C 
ENDROOT
BRANCH   1   7
ATOM      7  O   LIG d   1     -18.016  63.039 116.998  0.00  0.00    -0.368 OA
BRANCH   7   8
ATOM      8  C   LIG d   1     -17.822  61.671 117.435  0.00  0.00     0.119 C 
BRANCH   8   9
ATOM      9  C   LIG d   1     -16.380  61.268 117.071  0.00  0.00     0.028 C 
ATOM     10  C   LIG d   1     -15.466  61.178 118.305  0.00  0.00     0.006 C 
ENDBRANCH   8   9
BRANCH   8  11
ATOM     11  C   LIG d   1     -18.722  60.705 116.658  0.00  0.00     0.028 C 
ATOM     12  C   LIG d   1     -17.926  59.711 115.799  0.00  0.00     0.006 C 
ENDBRANCH   8  11
ENDBRANCH   7   8
ENDBRANCH   1   7
BRANCH   6  13
ATOM     13  N   LIG d   1     -17.700  62.852 114.007  0.00  0.00    -0.311 N 
ATOM     14  C   LIG d   1     -18.757  62.678 113.216  0.00  0.00     0.210 C 
ATOM     15  C   LIG d   1     -18.788  61.345 112.462  0.00  0.00     0.109 C 
ATOM     16  O   LIG d   1     -19.656  63.515 113.043  0.00  0.00    -0.276 OA
ATOM     17  H   LIG d   1     -17.003  62.136 114.063  0.00  0.00     0.149 HD
ENDBRANCH   6  13
BRANCH   5  18
ATOM     18  N   LIG d   1     -17.079  65.634 112.906  0.00  0.00     0.381 N 
ATOM     19  H   LIG d   1     -16.357  65.668 112.215  0.00  0.00    -0.090 HD
ATOM     20  H   LIG d   1     -17.402  66.571 113.072  0.00  0.00    -0.090 HD
ATOM     21  H   LIG d   1     -17.832  65.068 112.582  0.00  0.00    -0.090 HD
ENDBRANCH   5  18
BRANCH   3  22
ATOM     22  C   LIG d   1     -15.103  66.706 117.135  0.00  0.00     0.382 C 
ATOM     23  O   LIG d   1     -13.909  66.882 116.790  0.00  0.00    -0.241 OA
ATOM     24  O   LIG d   1     -15.534  67.266 118.161  0.00  0.00    -0.241 OA
ENDBRANCH   3  22
TORSDOF 7
ENDMDL
