MODEL 1
REMARK VINA RESULT:      -6.0      0.000      0.000
REMARK  7 active torsions:
REMARK  status: ('A' for Active; 'I' for Inactive)
REMARK    1  A    between atoms: C_2  and  C_3 
REMARK    2  A    between atoms: C_3  and  O_6 
REMARK    3  A    between atoms: C_3  and  C_4 
REMARK    4  A    between atoms: C_7  and  O_6 
REMARK    5  A    between atoms: C_9  and  C_10 
REMARK    6  A    between atoms: N_15  and  C_14 
REMARK    7  A    between atoms: N_20  and  C_19 
REMARK       I    between atoms: C_22  and  N_20 
ROOT
ATOM      1  C   LIG d   1       0.097  82.386 110.954  0.00  0.00     0.161 C 
ATOM      2  C   LIG d   1      -1.111  82.195 111.646  0.00  0.00     0.016 C 
ATOM      3  C   LIG d   1      -1.177  81.772 112.993  0.00  0.00     0.038 C 
ATOM      4  C   LIG d   1      -0.030  81.655 113.791  0.00  0.00     0.028 C 
ATOM      5  C   LIG d   1       1.234  81.349 112.994  0.00  0.00    -0.047 C 
ATOM      6  C   LIG d   1       1.360  82.371 111.841  0.00  0.00     0.091 C 
ENDROOT
BRANCH   1   7
ATOM      7  O   LIG d   1       0.036  83.607 110.191  0.00  0.00    -0.368 OA
BRANCH   7   8
ATOM      8  C   LIG d   1       0.189  84.836 110.942  0.00  0.00     0.119 C 
BRANCH   8   9
ATOM      9  C   LIG d   1      -1.058  85.701 110.674  0.00  0.00     0.028 C 
ATOM     10  C   LIG d   1      -1.541  86.441 111.933  0.00  0.00     0.006 C 
ENDBRANCH   8   9
BRANCH   8  11
ATOM     11  C   LIG d   1       1.372  85.661 110.427  0.00  0.00     0.028 C 
ATOM     12  C   LIG d   1       2.042  86.496 111.530  0.00  0.00     0.006 C 
ENDBRANCH   8  11
ENDBRANCH   7   8
ENDBRANCH   1   7
BRANCH   6  13
ATOM     13  N   LIG d   1       2.524  82.092 110.961  0.00  0.00    -0.311 N 
ATOM     14  C   LIG d   1       3.696  82.714 111.076  0.00  0.00     0.210 C 
ATOM     15  C   LIG d   1       4.756  82.291 110.055  0.00  0.00     0.109 C 
ATOM     16  O   LIG d   1       3.968  83.554 111.947  0.00  0.00    -0.276 OA
ATOM     17  H   LIG d   1       2.401  81.401 110.246  0.00  0.00     0.149 HD
ENDBRANCH   6  13
BRANCH   5  18
ATOM     18  N   LIG d   1       2.373  81.391 113.931  0.00  0.00     0.381 N 
ATOM     19  H   LIG d   1       2.444  82.302 114.337  0.00  0.00    -0.090 HD
ATOM     20  H   LIG d   1       3.219  81.205 113.422  0.00  0.00    -0.090 HD
ATOM     21  H   LIG d   1       2.251  80.709 114.647  0.00  0.00    -0.090 HD
ENDBRANCH   5  18
BRANCH   3  22
ATOM     22  C   LIG d   1      -2.401  81.421 113.543  0.00  0.00     0.382 C 
ATOM     23  O   LIG d   1      -3.433  81.422 112.830  0.00  0.00    -0.241 OA
ATOM     24  O   LIG d   1      -2.493  81.148 114.755  0.00  0.00    -0.241 OA
ENDBRANCH   3  22
TORSDOF 7
ENDMDL
MODEL 2
REMARK VINA RESULT:      -5.6      3.712      6.325
REMARK  7 active torsions:
REMARK  status: ('A' for Active; 'I' for Inactive)
REMARK    1  A    between atoms: C_2  and  C_3 
REMARK    2  A    between atoms: C_3  and  O_6 
REMARK    3  A    between atoms: C_3  and  C_4 
REMARK    4  A    between atoms: C_7  and  O_6 
REMARK    5  A    between atoms: C_9  and  C_10 
REMARK    6  A    between atoms: N_15  and  C_14 
REMARK    7  A    between atoms: N_20  and  C_19 
REMARK       I    between atoms: C_22  and  N_20 
ROOT
ATOM      1  C   LIG d   1       3.070  86.173 113.143  0.00  0.00     0.161 C 
ATOM      2  C   LIG d   1       3.369  87.546 113.132  0.00  0.00     0.016 C 
ATOM      3  C   LIG d   1       3.723  88.274 114.291  0.00  0.00     0.038 C 
ATOM      4  C   LIG d   1       3.951  87.642 115.523  0.00  0.00     0.028 C 
ATOM      5  C   LIG d   1       3.172  86.342 115.690  0.00  0.00    -0.047 C 
ATOM      6  C   LIG d   1       3.422  85.445 114.457  0.00  0.00     0.091 C 
ENDROOT
BRANCH   1   7
ATOM      7  O   LIG d   1       3.709  85.526 112.025  0.00  0.00    -0.368 OA
BRANCH   7   8
ATOM      8  C   LIG d   1       2.894  85.350 110.840  0.00  0.00     0.119 C 
BRANCH   8   9
ATOM      9  C   LIG d   1       1.420  85.328 111.290  0.00  0.00     0.028 C 
ATOM     10  C   LIG d   1       0.464  85.825 110.193  0.00  0.00     0.006 C 
ENDBRANCH   8   9
BRANCH   8  11
ATOM     11  C   LIG d   1       3.140  83.984 110.192  0.00  0.00     0.028 C 
ATOM     12  C   LIG d   1       3.698  82.948 111.181  0.00  0.00     0.006 C 
ENDBRANCH   8  11
ENDBRANCH   7   8
ENDBRANCH   1   7
BRANCH   6  13
ATOM     13  N   LIG d   1       2.630  84.188 114.500  0.00  0.00    -0.311 N 
ATOM     14  C   LIG d   1       3.078  83.058 115.045  0.00  0.00     0.210 C 
ATOM     15  C   LIG d   1       2.109  81.874 114.966  0.00  0.00     0.109 C 
ATOM     16  O   LIG d   1       4.172  82.933 115.615  0.00  0.00    -0.276 OA
ATOM     17  H   LIG d   1       1.718  84.209 114.088  0.00  0.00     0.149 HD
ENDBRANCH   6  13
BRANCH   5  18
ATOM     18  N   LIG d   1       3.608  85.721 116.955  0.00  0.00     0.381 N 
ATOM     19  H   LIG d   1       3.539  86.385 117.700  0.00  0.00    -0.090 HD
ATOM     20  H   LIG d   1       4.570  85.445 116.867  0.00  0.00    -0.090 HD
ATOM     21  H   LIG d   1       3.044  84.925 117.157  0.00  0.00    -0.090 HD
ENDBRANCH   5  18
BRANCH   3  22
ATOM     22  C   LIG d   1       3.813  89.657 114.234  0.00  0.00     0.382 C 
ATOM     23  O   LIG d   1       3.973  90.319 115.287  0.00  0.00    -0.241 OA
ATOM     24  O   LIG d   1       3.693  90.253 113.147  0.00  0.00    -0.241 OA
ENDBRANCH   3  22
TORSDOF 7
ENDMDL
MODEL 3
REMARK VINA RESULT:      -5.4      2.539      3.602
REMARK  7 active torsions:
REMARK  status: ('A' for Active; 'I' for Inactive)
REMARK    1  A    between atoms: C_2  and  C_3 
REMARK    2  A    between atoms: C_3  and  O_6 
REMARK    3  A    between atoms: C_3  and  C_4 
REMARK    4  A    between atoms: C_7  and  O_6 
REMARK    5  A    between atoms: C_9  and  C_10 
REMARK    6  A    between atoms: N_15  and  C_14 
REMARK    7  A    between atoms: N_20  and  C_19 
REMARK       I    between atoms: C_22  and  N_20 
ROOT
ATOM      1  C   LIG d   1       0.194  82.331 112.675  0.00  0.00     0.161 C 
ATOM      2  C   LIG d   1      -1.055  81.877 113.131  0.00  0.00     0.016 C 
ATOM      3  C   LIG d   1      -1.639  80.658 112.717  0.00  0.00     0.038 C 
ATOM      4  C   LIG d   1      -0.940  79.731 111.929  0.00  0.00     0.028 C 
ATOM      5  C   LIG d   1       0.119  80.371 111.037  0.00  0.00    -0.047 C 
ATOM      6  C   LIG d   1       1.020  81.281 111.902  0.00  0.00     0.091 C 
ENDROOT
BRANCH   1   7
ATOM      7  O   LIG d   1       0.957  82.854 113.780  0.00  0.00    -0.368 OA
BRANCH   7   8
ATOM      8  C   LIG d   1       1.596  81.874 114.635  0.00  0.00     0.119 C 
BRANCH   8   9
ATOM      9  C   LIG d   1       0.737  81.738 115.907  0.00  0.00     0.028 C 
ATOM     10  C   LIG d   1       0.304  80.286 116.171  0.00  0.00     0.006 C 
ENDBRANCH   8   9
BRANCH   8  11
ATOM     11  C   LIG d   1       2.963  82.364 115.119  0.00  0.00     0.028 C 
ATOM     12  C   LIG d   1       3.318  83.761 114.587  0.00  0.00     0.006 C 
ENDBRANCH   8  11
ENDBRANCH   7   8
ENDBRANCH   1   7
BRANCH   6  13
ATOM     13  N   LIG d   1       2.031  82.012 111.093  0.00  0.00    -0.311 N 
ATOM     14  C   LIG d   1       3.344  81.836 111.229  0.00  0.00     0.210 C 
ATOM     15  C   LIG d   1       4.211  82.703 110.310  0.00  0.00     0.109 C 
ATOM     16  O   LIG d   1       3.873  81.020 111.999  0.00  0.00    -0.276 OA
ATOM     17  H   LIG d   1       1.688  82.670 110.422  0.00  0.00     0.149 HD
ENDBRANCH   6  13
BRANCH   5  18
ATOM     18  N   LIG d   1       0.862  79.281 110.376  0.00  0.00     0.381 N 
ATOM     19  H   LIG d   1       0.832  79.404 109.384  0.00  0.00    -0.090 HD
ATOM     20  H   LIG d   1       0.423  78.406 110.600  0.00  0.00    -0.090 HD
ATOM     21  H   LIG d   1       1.808  79.276 110.688  0.00  0.00    -0.090 HD
ENDBRANCH   5  18
BRANCH   3  22
ATOM     22  C   LIG d   1      -2.952  80.373 113.059  0.00  0.00     0.382 C 
ATOM     23  O   LIG d   1      -3.279  79.203 113.372  0.00  0.00    -0.241 OA
ATOM     24  O   LIG d   1      -3.823  81.263 113.016  0.00  0.00    -0.241 OA
ENDBRANCH   3  22
TORSDOF 7
ENDMDL
MODEL 4
REMARK VINA RESULT:      -5.3      6.865      9.575
REMARK  7 active torsions:
REMARK  status: ('A' for Active; 'I' for Inactive)
REMARK    1  A    between atoms: C_2  and  C_3 
REMARK    2  A    between atoms: C_3  and  O_6 
REMARK    3  A    between atoms: C_3  and  C_4 
REMARK    4  A    between atoms: C_7  and  O_6 
REMARK    5  A    between atoms: C_9  and  C_10 
REMARK    6  A    between atoms: N_15  and  C_14 
REMARK    7  A    between atoms: N_20  and  C_19 
REMARK       I    between atoms: C_22  and  N_20 
ROOT
ATOM      1  C   LIG d   1      -4.159  76.696 115.118  0.00  0.00     0.161 C 
ATOM      2  C   LIG d   1      -4.567  75.442 114.634  0.00  0.00     0.016 C 
ATOM      3  C   LIG d   1      -5.729  74.774 115.085  0.00  0.00     0.038 C 
ATOM      4  C   LIG d   1      -6.649  75.388 115.948  0.00  0.00     0.028 C 
ATOM      5  C   LIG d   1      -6.021  76.445 116.850  0.00  0.00    -0.047 C 
ATOM      6  C   LIG d   1      -5.209  77.430 115.978  0.00  0.00     0.091 C 
ENDROOT
BRANCH   1   7
ATOM      7  O   LIG d   1      -3.738  77.530 114.021  0.00  0.00    -0.368 OA
BRANCH   7   8
ATOM      8  C   LIG d   1      -2.406  77.284 113.507  0.00  0.00     0.119 C 
BRANCH   8   9
ATOM      9  C   LIG d   1      -1.411  77.557 114.651  0.00  0.00     0.028 C 
ATOM     10  C   LIG d   1      -0.501  76.351 114.938  0.00  0.00     0.006 C 
ENDBRANCH   8   9
BRANCH   8  11
ATOM     11  C   LIG d   1      -2.041  78.282 112.404  0.00  0.00     0.028 C 
ATOM     12  C   LIG d   1      -2.152  77.679 110.995  0.00  0.00     0.006 C 
ENDBRANCH   8  11
ENDBRANCH   7   8
ENDBRANCH   1   7
BRANCH   6  13
ATOM     13  N   LIG d   1      -4.493  78.448 116.791  0.00  0.00    -0.311 N 
ATOM     14  C   LIG d   1      -4.989  79.656 117.055  0.00  0.00     0.210 C 
ATOM     15  C   LIG d   1      -4.079  80.559 117.894  0.00  0.00     0.109 C 
ATOM     16  O   LIG d   1      -6.109  80.054 116.702  0.00  0.00    -0.276 OA
ATOM     17  H   LIG d   1      -3.590  78.198 117.144  0.00  0.00     0.149 HD
ENDBRANCH   6  13
BRANCH   5  18
ATOM     18  N   LIG d   1      -7.113  77.098 117.597  0.00  0.00     0.381 N 
ATOM     19  H   LIG d   1      -7.993  76.713 117.317  0.00  0.00    -0.090 HD
ATOM     20  H   LIG d   1      -7.114  78.079 117.379  0.00  0.00    -0.090 HD
ATOM     21  H   LIG d   1      -6.982  76.969 118.576  0.00  0.00    -0.090 HD
ENDBRANCH   5  18
BRANCH   3  22
ATOM     22  C   LIG d   1      -5.958  73.461 114.703  0.00  0.00     0.382 C 
ATOM     23  O   LIG d   1      -6.339  72.619 115.551  0.00  0.00    -0.241 OA
ATOM     24  O   LIG d   1      -5.747  73.099 113.530  0.00  0.00    -0.241 OA
ENDBRANCH   3  22
TORSDOF 7
ENDMDL
MODEL 5
REMARK VINA RESULT:      -5.3      2.806      5.755
REMARK  7 active torsions:
REMARK  status: ('A' for Active; 'I' for Inactive)
REMARK    1  A    between atoms: C_2  and  C_3 
REMARK    2  A    between atoms: C_3  and  O_6 
REMARK    3  A    between atoms: C_3  and  C_4 
REMARK    4  A    between atoms: C_7  and  O_6 
REMARK    5  A    between atoms: C_9  and  C_10 
REMARK    6  A    between atoms: N_15  and  C_14 
REMARK    7  A    between atoms: N_20  and  C_19 
REMARK       I    between atoms: C_22  and  N_20 
ROOT
ATOM      1  C   LIG d   1       2.793  84.206 111.916  0.00  0.00     0.161 C 
ATOM      2  C   LIG d   1       3.065  85.541 112.261  0.00  0.00     0.016 C 
ATOM      3  C   LIG d   1       2.121  86.586 112.130  0.00  0.00     0.038 C 
ATOM      4  C   LIG d   1       0.784  86.338 111.786  0.00  0.00     0.028 C 
ATOM      5  C   LIG d   1       0.598  85.081 110.944  0.00  0.00    -0.047 C 
ATOM      6  C   LIG d   1       1.306  83.899 111.644  0.00  0.00     0.091 C 
ENDROOT
BRANCH   1   7
ATOM      7  O   LIG d   1       3.310  83.325 112.933  0.00  0.00    -0.368 OA
BRANCH   7   8
ATOM      8  C   LIG d   1       2.589  83.310 114.190  0.00  0.00     0.119 C 
BRANCH   8   9
ATOM      9  C   LIG d   1       3.604  83.618 115.308  0.00  0.00     0.028 C 
ATOM     10  C   LIG d   1       3.422  85.029 115.893  0.00  0.00     0.006 C 
ENDBRANCH   8   9
BRANCH   8  11
ATOM     11  C   LIG d   1       2.049  81.913 114.506  0.00  0.00     0.028 C 
ATOM     12  C   LIG d   1       1.353  81.839 115.875  0.00  0.00     0.006 C 
ENDBRANCH   8  11
ENDBRANCH   7   8
ENDBRANCH   1   7
BRANCH   6  13
ATOM     13  N   LIG d   1       1.244  82.647 110.845  0.00  0.00    -0.311 N 
ATOM     14  C   LIG d   1       0.264  81.753 110.958  0.00  0.00     0.210 C 
ATOM     15  C   LIG d   1       0.404  80.523 110.055  0.00  0.00     0.109 C 
ATOM     16  O   LIG d   1      -0.725  81.876 111.696  0.00  0.00    -0.276 OA
ATOM     17  H   LIG d   1       1.991  82.482 110.198  0.00  0.00     0.149 HD
ENDBRANCH   6  13
BRANCH   5  18
ATOM     18  N   LIG d   1      -0.852  84.868 110.774  0.00  0.00     0.381 N 
ATOM     19  H   LIG d   1      -1.340  85.207 111.579  0.00  0.00    -0.090 HD
ATOM     20  H   LIG d   1      -1.028  83.883 110.689  0.00  0.00    -0.090 HD
ATOM     21  H   LIG d   1      -1.173  85.342 109.958  0.00  0.00    -0.090 HD
ENDBRANCH   5  18
BRANCH   3  22
ATOM     22  C   LIG d   1       2.523  87.901 112.307  0.00  0.00     0.382 C 
ATOM     23  O   LIG d   1       3.745  88.184 112.336  0.00  0.00    -0.241 OA
ATOM     24  O   LIG d   1       1.681  88.801 112.481  0.00  0.00    -0.241 OA
ENDBRANCH   3  22
TORSDOF 7
ENDMDL
MODEL 6
REMARK VINA RESULT:      -5.1      3.411      6.016
REMARK  7 active torsions:
REMARK  status: ('A' for Active; 'I' for Inactive)
REMARK    1  A    between atoms: C_2  and  C_3 
REMARK    2  A    between atoms: C_3  and  O_6 
REMARK    3  A    between atoms: C_3  and  C_4 
REMARK    4  A    between atoms: C_7  and  O_6 
REMARK    5  A    between atoms: C_9  and  C_10 
REMARK    6  A    between atoms: N_15  and  C_14 
REMARK    7  A    between atoms: N_20  and  C_19 
REMARK       I    between atoms: C_22  and  N_20 
ROOT
ATOM      1  C   LIG d   1       2.864  84.148 113.442  0.00  0.00     0.161 C 
ATOM      2  C   LIG d   1       2.501  85.198 112.582  0.00  0.00     0.016 C 
ATOM      3  C   LIG d   1       2.674  86.564 112.906  0.00  0.00     0.038 C 
ATOM      4  C   LIG d   1       3.365  86.972 114.056  0.00  0.00     0.028 C 
ATOM      5  C   LIG d   1       3.301  85.957 115.193  0.00  0.00    -0.047 C 
ATOM      6  C   LIG d   1       3.722  84.571 114.653  0.00  0.00     0.091 C 
ENDROOT
BRANCH   1   7
ATOM      7  O   LIG d   1       3.531  83.112 112.694  0.00  0.00    -0.368 OA
BRANCH   7   8
ATOM      8  C   LIG d   1       2.859  81.830 112.642  0.00  0.00     0.119 C 
BRANCH   8   9
ATOM      9  C   LIG d   1       3.073  81.252 111.229  0.00  0.00     0.028 C 
ATOM     10  C   LIG d   1       3.958  82.154 110.354  0.00  0.00     0.006 C 
ENDBRANCH   8   9
BRANCH   8  11
ATOM     11  C   LIG d   1       1.342  81.990 112.789  0.00  0.00     0.028 C 
ATOM     12  C   LIG d   1       0.556  80.852 112.119  0.00  0.00     0.006 C 
ENDBRANCH   8  11
ENDBRANCH   7   8
ENDBRANCH   1   7
BRANCH   6  13
ATOM     13  N   LIG d   1       3.606  83.504 115.681  0.00  0.00    -0.311 N 
ATOM     14  C   LIG d   1       4.633  83.078 116.415  0.00  0.00     0.210 C 
ATOM     15  C   LIG d   1       4.301  81.956 117.403  0.00  0.00     0.109 C 
ATOM     16  O   LIG d   1       5.781  83.546 116.364  0.00  0.00    -0.276 OA
ATOM     17  H   LIG d   1       2.703  83.091 115.810  0.00  0.00     0.149 HD
ENDBRANCH   6  13
BRANCH   5  18
ATOM     18  N   LIG d   1       4.175  86.446 116.276  0.00  0.00     0.381 N 
ATOM     19  H   LIG d   1       4.834  87.103 115.909  0.00  0.00    -0.090 HD
ATOM     20  H   LIG d   1       4.685  85.669 116.658  0.00  0.00    -0.090 HD
ATOM     21  H   LIG d   1       3.628  86.876 116.988  0.00  0.00    -0.090 HD
ENDBRANCH   5  18
BRANCH   3  22
ATOM     22  C   LIG d   1       2.116  87.538 112.092  0.00  0.00     0.382 C 
ATOM     23  O   LIG d   1       2.009  88.717 112.509  0.00  0.00    -0.241 OA
ATOM     24  O   LIG d   1       1.678  87.244 110.964  0.00  0.00    -0.241 OA
ENDBRANCH   3  22
TORSDOF 7
ENDMDL
MODEL 7
REMARK VINA RESULT:      -5.0      3.511      5.841
REMARK  7 active torsions:
REMARK  status: ('A' for Active; 'I' for Inactive)
REMARK    1  A    between atoms: C_2  and  C_3 
REMARK    2  A    between atoms: C_3  and  O_6 
REMARK    3  A    between atoms: C_3  and  C_4 
REMARK    4  A    between atoms: C_7  and  O_6 
REMARK    5  A    between atoms: C_9  and  C_10 
REMARK    6  A    between atoms: N_15  and  C_14 
REMARK    7  A    between atoms: N_20  and  C_19 
REMARK       I    between atoms: C_22  and  N_20 
ROOT
ATOM      1  C   LIG d   1      -2.865  80.303 113.999  0.00  0.00     0.161 C 
ATOM      2  C   LIG d   1      -3.325  79.034 114.390  0.00  0.00     0.016 C 
ATOM      3  C   LIG d   1      -2.875  77.829 113.803  0.00  0.00     0.038 C 
ATOM      4  C   LIG d   1      -1.816  77.801 112.884  0.00  0.00     0.028 C 
ATOM      5  C   LIG d   1      -1.670  79.095 112.090  0.00  0.00    -0.047 C 
ATOM      6  C   LIG d   1      -1.629  80.286 113.075  0.00  0.00     0.091 C 
ENDROOT
BRANCH   1   7
ATOM      7  O   LIG d   1      -2.608  81.110 115.165  0.00  0.00    -0.368 OA
BRANCH   7   8
ATOM      8  C   LIG d   1      -2.113  80.406 116.330  0.00  0.00     0.119 C 
BRANCH   8   9
ATOM      9  C   LIG d   1      -2.844  80.977 117.561  0.00  0.00     0.028 C 
ATOM     10  C   LIG d   1      -4.372  80.994 117.379  0.00  0.00     0.006 C 
ENDBRANCH   8   9
BRANCH   8  11
ATOM     11  C   LIG d   1      -0.628  80.700 116.569  0.00  0.00     0.028 C 
ATOM     12  C   LIG d   1      -0.398  81.755 117.662  0.00  0.00     0.006 C 
ENDBRANCH   8  11
ENDBRANCH   7   8
ENDBRANCH   1   7
BRANCH   6  13
ATOM     13  N   LIG d   1      -1.572  81.597 112.377  0.00  0.00    -0.311 N 
ATOM     14  C   LIG d   1      -0.710  82.561 112.696  0.00  0.00     0.210 C 
ATOM     15  C   LIG d   1      -0.833  83.841 111.864  0.00  0.00     0.109 C 
ATOM     16  O   LIG d   1       0.166  82.465 113.569  0.00  0.00    -0.276 OA
ATOM     17  H   LIG d   1      -2.227  81.748 111.635  0.00  0.00     0.149 HD
ENDBRANCH   6  13
BRANCH   5  18
ATOM     18  N   LIG d   1      -0.448  78.980 111.271  0.00  0.00     0.381 N 
ATOM     19  H   LIG d   1      -0.496  78.156 110.705  0.00  0.00    -0.090 HD
ATOM     20  H   LIG d   1       0.345  78.898 111.881  0.00  0.00    -0.090 HD
ATOM     21  H   LIG d   1      -0.349  79.784 110.692  0.00  0.00    -0.090 HD
ENDBRANCH   5  18
BRANCH   3  22
ATOM     22  C   LIG d   1      -3.514  76.636 114.107  0.00  0.00     0.382 C 
ATOM     23  O   LIG d   1      -2.893  75.727 114.708  0.00  0.00    -0.241 OA
ATOM     24  O   LIG d   1      -4.691  76.441 113.749  0.00  0.00    -0.241 OA
ENDBRANCH   3  22
TORSDOF 7
ENDMDL
MODEL 8
REMARK VINA RESULT:      -4.9      2.570      6.036
REMARK  7 active torsions:
REMARK  status: ('A' for Active; 'I' for Inactive)
REMARK    1  A    between atoms: C_2  and  C_3 
REMARK    2  A    between atoms: C_3  and  O_6 
REMARK    3  A    between atoms: C_3  and  C_4 
REMARK    4  A    between atoms: C_7  and  O_6 
REMARK    5  A    between atoms: C_9  and  C_10 
REMARK    6  A    between atoms: N_15  and  C_14 
REMARK    7  A    between atoms: N_20  and  C_19 
REMARK       I    between atoms: C_22  and  N_20 
ROOT
ATOM      1  C   LIG d   1       1.065  81.513 113.621  0.00  0.00     0.161 C 
ATOM      2  C   LIG d   1       1.920  82.510 113.124  0.00  0.00     0.016 C 
ATOM      3  C   LIG d   1       2.040  82.818 111.749  0.00  0.00     0.038 C 
ATOM      4  C   LIG d   1       1.194  82.248 110.785  0.00  0.00     0.028 C 
ATOM      5  C   LIG d   1       0.666  80.873 111.180  0.00  0.00    -0.047 C 
ATOM      6  C   LIG d   1       0.053  80.958 112.596  0.00  0.00     0.091 C 
ENDROOT
BRANCH   1   7
ATOM      7  O   LIG d   1       0.377  81.998 114.791  0.00  0.00    -0.368 OA
BRANCH   7   8
ATOM      8  C   LIG d   1       0.695  81.334 116.039  0.00  0.00     0.119 C 
BRANCH   8   9
ATOM      9  C   LIG d   1      -0.588  81.311 116.892  0.00  0.00     0.028 C 
ATOM     10  C   LIG d   1      -1.397  80.017 116.702  0.00  0.00     0.006 C 
ENDBRANCH   8   9
BRANCH   8  11
ATOM     11  C   LIG d   1       1.710  82.139 116.856  0.00  0.00     0.028 C 
ATOM     12  C   LIG d   1       1.061  82.923 118.007  0.00  0.00     0.006 C 
ENDBRANCH   8  11
ENDBRANCH   7   8
ENDBRANCH   1   7
BRANCH   6  13
ATOM     13  N   LIG d   1      -0.412  79.637 113.093  0.00  0.00    -0.311 N 
ATOM     14  C   LIG d   1      -1.677  79.229 113.016  0.00  0.00     0.210 C 
ATOM     15  C   LIG d   1      -1.946  77.841 113.606  0.00  0.00     0.109 C 
ATOM     16  O   LIG d   1      -2.597  79.871 112.486  0.00  0.00    -0.276 OA
ATOM     17  H   LIG d   1       0.275  79.039 113.510  0.00  0.00     0.149 HD
ENDBRANCH   6  13
BRANCH   5  18
ATOM     18  N   LIG d   1      -0.308  80.459 110.152  0.00  0.00     0.381 N 
ATOM     19  H   LIG d   1      -1.234  80.697 110.448  0.00  0.00    -0.090 HD
ATOM     20  H   LIG d   1      -0.259  79.461 110.042  0.00  0.00    -0.090 HD
ATOM     21  H   LIG d   1      -0.103  80.907 109.287  0.00  0.00    -0.090 HD
ENDBRANCH   5  18
BRANCH   3  22
ATOM     22  C   LIG d   1       3.042  83.675 111.322  0.00  0.00     0.382 C 
ATOM     23  O   LIG d   1       4.114  83.760 111.969  0.00  0.00    -0.241 OA
ATOM     24  O   LIG d   1       2.871  84.399 110.322  0.00  0.00    -0.241 OA
ENDBRANCH   3  22
TORSDOF 7
ENDMDL
MODEL 9
REMARK VINA RESULT:      -4.8      6.030      9.284
REMARK  7 active torsions:
REMARK  status: ('A' for Active; 'I' for Inactive)
REMARK    1  A    between atoms: C_2  and  C_3 
REMARK    2  A    between atoms: C_3  and  O_6 
REMARK    3  A    between atoms: C_3  and  C_4 
REMARK    4  A    between atoms: C_7  and  O_6 
REMARK    5  A    between atoms: C_9  and  C_10 
REMARK    6  A    between atoms: N_15  and  C_14 
REMARK    7  A    between atoms: N_20  and  C_19 
REMARK       I    between atoms: C_22  and  N_20 
ROOT
ATOM      1  C   LIG d   1      -2.739  76.607 114.829  0.00  0.00     0.161 C 
ATOM      2  C   LIG d   1      -2.264  75.498 115.548  0.00  0.00     0.016 C 
ATOM      3  C   LIG d   1      -1.318  75.596 116.595  0.00  0.00     0.038 C 
ATOM      4  C   LIG d   1      -0.894  76.835 117.097  0.00  0.00     0.028 C 
ATOM      5  C   LIG d   1      -0.962  77.960 116.070  0.00  0.00    -0.047 C 
ATOM      6  C   LIG d   1      -2.372  77.977 115.437  0.00  0.00     0.091 C 
ENDROOT
BRANCH   1   7
ATOM      7  O   LIG d   1      -4.166  76.502 114.656  0.00  0.00    -0.368 OA
BRANCH   7   8
ATOM      8  C   LIG d   1      -4.873  75.717 115.648  0.00  0.00     0.119 C 
BRANCH   8   9
ATOM      9  C   LIG d   1      -5.956  74.906 114.911  0.00  0.00     0.028 C 
ATOM     10  C   LIG d   1      -5.833  73.394 115.166  0.00  0.00     0.006 C 
ENDBRANCH   8   9
BRANCH   8  11
ATOM     11  C   LIG d   1      -5.634  76.613 116.629  0.00  0.00     0.028 C 
ATOM     12  C   LIG d   1      -7.154  76.588 116.403  0.00  0.00     0.006 C 
ENDBRANCH   8  11
ENDBRANCH   7   8
ENDBRANCH   1   7
BRANCH   6  13
ATOM     13  N   LIG d   1      -2.498  78.994 114.361  0.00  0.00    -0.311 N 
ATOM     14  C   LIG d   1      -2.940  80.233 114.571  0.00  0.00     0.210 C 
ATOM     15  C   LIG d   1      -3.011  81.115 113.321  0.00  0.00     0.109 C 
ATOM     16  O   LIG d   1      -3.249  80.695 115.680  0.00  0.00    -0.276 OA
ATOM     17  H   LIG d   1      -2.238  78.714 113.435  0.00  0.00     0.149 HD
ENDBRANCH   6  13
BRANCH   5  18
ATOM     18  N   LIG d   1      -0.624  79.217 116.763  0.00  0.00     0.381 N 
ATOM     19  H   LIG d   1      -1.226  79.341 117.553  0.00  0.00    -0.090 HD
ATOM     20  H   LIG d   1      -0.770  79.986 116.132  0.00  0.00    -0.090 HD
ATOM     21  H   LIG d   1       0.327  79.198 117.060  0.00  0.00    -0.090 HD
ENDBRANCH   5  18
BRANCH   3  22
ATOM     22  C   LIG d   1      -0.756  74.443 117.123  0.00  0.00     0.382 C 
ATOM     23  O   LIG d   1      -0.067  74.505 118.170  0.00  0.00    -0.241 OA
ATOM     24  O   LIG d   1      -0.892  73.350 116.542  0.00  0.00    -0.241 OA
ENDBRANCH   3  22
TORSDOF 7
ENDMDL
