MODEL 1
REMARK VINA RESULT:      -5.7      0.000      0.000
REMARK  7 active torsions:
REMARK  status: ('A' for Active; 'I' for Inactive)
REMARK    1  A    between atoms: C_2  and  C_3 
REMARK    2  A    between atoms: C_3  and  O_6 
REMARK    3  A    between atoms: C_3  and  C_4 
REMARK    4  A    between atoms: C_7  and  O_6 
REMARK    5  A    between atoms: C_9  and  C_10 
REMARK    6  A    between atoms: N_15  and  C_14 
REMARK    7  A    between atoms: N_20  and  C_19 
REMARK       I    between atoms: C_22  and  N_20 
ROOT
ATOM      1  C   LIG d   1       0.468  82.965 112.303  0.00  0.00     0.161 C 
ATOM      2  C   LIG d   1      -0.721  82.410 112.804  0.00  0.00     0.016 C 
ATOM      3  C   LIG d   1      -1.118  81.074 112.567  0.00  0.00     0.038 C 
ATOM      4  C   LIG d   1      -0.273  80.151 111.933  0.00  0.00     0.028 C 
ATOM      5  C   LIG d   1       0.718  80.798 110.971  0.00  0.00    -0.047 C 
ATOM      6  C   LIG d   1       1.456  81.942 111.704  0.00  0.00     0.091 C 
ENDROOT
BRANCH   1   7
ATOM      7  O   LIG d   1       1.115  83.744 113.329  0.00  0.00    -0.368 OA
BRANCH   7   8
ATOM      8  C   LIG d   1       0.872  85.172 113.292  0.00  0.00     0.119 C 
BRANCH   8   9
ATOM      9  C   LIG d   1       2.225  85.865 113.037  0.00  0.00     0.028 C 
ATOM     10  C   LIG d   1       2.285  86.544 111.659  0.00  0.00     0.006 C 
ENDBRANCH   8   9
BRANCH   8  11
ATOM     11  C   LIG d   1       0.401  85.692 114.653  0.00  0.00     0.028 C 
ATOM     12  C   LIG d   1      -1.131  85.734 114.777  0.00  0.00     0.006 C 
ENDBRANCH   8  11
ENDBRANCH   7   8
ENDBRANCH   1   7
BRANCH   6  13
ATOM     13  N   LIG d   1       2.383  82.682 110.809  0.00  0.00    -0.311 N 
ATOM     14  C   LIG d   1       3.661  82.913 111.107  0.00  0.00     0.210 C 
ATOM     15  C   LIG d   1       4.435  83.713 110.055  0.00  0.00     0.109 C 
ATOM     16  O   LIG d   1       4.234  82.504 112.128  0.00  0.00    -0.276 OA
ATOM     17  H   LIG d   1       2.009  83.023 109.946  0.00  0.00     0.149 HD
ENDBRANCH   6  13
BRANCH   5  18
ATOM     18  N   LIG d   1       1.625  79.741 110.487  0.00  0.00     0.381 N 
ATOM     19  H   LIG d   1       2.330  80.141 109.901  0.00  0.00    -0.090 HD
ATOM     20  H   LIG d   1       1.096  79.083 109.941  0.00  0.00    -0.090 HD
ATOM     21  H   LIG d   1       2.049  79.276 111.260  0.00  0.00    -0.090 HD
ENDBRANCH   5  18
BRANCH   3  22
ATOM     22  C   LIG d   1      -2.391  80.660 112.930  0.00  0.00     0.382 C 
ATOM     23  O   LIG d   1      -2.535  79.776 113.808  0.00  0.00    -0.241 OA
ATOM     24  O   LIG d   1      -3.394  81.128 112.360  0.00  0.00    -0.241 OA
ENDBRANCH   3  22
TORSDOF 7
ENDMDL
MODEL 2
REMARK VINA RESULT:      -5.4      2.494      6.099
REMARK  7 active torsions:
REMARK  status: ('A' for Active; 'I' for Inactive)
REMARK    1  A    between atoms: C_2  and  C_3 
REMARK    2  A    between atoms: C_3  and  O_6 
REMARK    3  A    between atoms: C_3  and  C_4 
REMARK    4  A    between atoms: C_7  and  O_6 
REMARK    5  A    between atoms: C_9  and  C_10 
REMARK    6  A    between atoms: N_15  and  C_14 
REMARK    7  A    between atoms: N_20  and  C_19 
REMARK       I    between atoms: C_22  and  N_20 
ROOT
ATOM      1  C   LIG d   1       1.567  84.561 111.211  0.00  0.00     0.161 C 
ATOM      2  C   LIG d   1       2.400  85.692 111.220  0.00  0.00     0.016 C 
ATOM      3  C   LIG d   1       2.645  86.469 112.375  0.00  0.00     0.038 C 
ATOM      4  C   LIG d   1       2.189  86.077 113.643  0.00  0.00     0.028 C 
ATOM      5  C   LIG d   1       0.928  85.221 113.595  0.00  0.00    -0.047 C 
ATOM      6  C   LIG d   1       1.151  84.053 112.607  0.00  0.00     0.091 C 
ENDROOT
BRANCH   1   7
ATOM      7  O   LIG d   1       2.190  83.502 110.457  0.00  0.00    -0.368 OA
BRANCH   7   8
ATOM      8  C   LIG d   1       2.993  82.566 111.218  0.00  0.00     0.119 C 
BRANCH   8   9
ATOM      9  C   LIG d   1       4.461  83.022 111.109  0.00  0.00     0.028 C 
ATOM     10  C   LIG d   1       5.037  83.477 112.461  0.00  0.00     0.006 C 
ENDBRANCH   8   9
BRANCH   8  11
ATOM     11  C   LIG d   1       2.956  81.167 110.597  0.00  0.00     0.028 C 
ATOM     12  C   LIG d   1       1.527  80.631 110.421  0.00  0.00     0.006 C 
ENDBRANCH   8  11
ENDBRANCH   7   8
ENDBRANCH   1   7
BRANCH   6  13
ATOM     13  N   LIG d   1      -0.065  83.215 112.437  0.00  0.00    -0.311 N 
ATOM     14  C   LIG d   1      -0.298  82.110 113.143  0.00  0.00     0.210 C 
ATOM     15  C   LIG d   1      -1.601  81.384 112.796  0.00  0.00     0.109 C 
ATOM     16  O   LIG d   1       0.436  81.679 114.045  0.00  0.00    -0.276 OA
ATOM     17  H   LIG d   1      -0.729  83.509 111.747  0.00  0.00     0.149 HD
ENDBRANCH   6  13
BRANCH   5  18
ATOM     18  N   LIG d   1       0.644  84.769 114.970  0.00  0.00     0.381 N 
ATOM     19  H   LIG d   1       0.416  83.795 114.966  0.00  0.00    -0.090 HD
ATOM     20  H   LIG d   1      -0.149  85.277 115.322  0.00  0.00    -0.090 HD
ATOM     21  H   LIG d   1       1.436  84.930 115.552  0.00  0.00    -0.090 HD
ENDBRANCH   5  18
BRANCH   3  22
ATOM     22  C   LIG d   1       3.319  87.675 112.262  0.00  0.00     0.382 C 
ATOM     23  O   LIG d   1       2.736  88.749 112.547  0.00  0.00    -0.241 OA
ATOM     24  O   LIG d   1       4.489  87.707 111.836  0.00  0.00    -0.241 OA
ENDBRANCH   3  22
TORSDOF 7
ENDMDL
MODEL 3
REMARK VINA RESULT:      -5.4      4.250      6.996
REMARK  7 active torsions:
REMARK  status: ('A' for Active; 'I' for Inactive)
REMARK    1  A    between atoms: C_2  and  C_3 
REMARK    2  A    between atoms: C_3  and  O_6 
REMARK    3  A    between atoms: C_3  and  C_4 
REMARK    4  A    between atoms: C_7  and  O_6 
REMARK    5  A    between atoms: C_9  and  C_10 
REMARK    6  A    between atoms: N_15  and  C_14 
REMARK    7  A    between atoms: N_20  and  C_19 
REMARK       I    between atoms: C_22  and  N_20 
ROOT
ATOM      1  C   LIG d   1       3.233  86.412 112.692  0.00  0.00     0.161 C 
ATOM      2  C   LIG d   1       3.559  87.779 112.697  0.00  0.00     0.016 C 
ATOM      3  C   LIG d   1       4.478  88.356 113.603  0.00  0.00     0.038 C 
ATOM      4  C   LIG d   1       5.253  87.574 114.472  0.00  0.00     0.028 C 
ATOM      5  C   LIG d   1       4.593  86.253 114.850  0.00  0.00    -0.047 C 
ATOM      6  C   LIG d   1       4.151  85.525 113.559  0.00  0.00     0.091 C 
ENDROOT
BRANCH   1   7
ATOM      7  O   LIG d   1       3.199  85.923 111.337  0.00  0.00    -0.368 OA
BRANCH   7   8
ATOM      8  C   LIG d   1       2.091  85.053 111.001  0.00  0.00     0.119 C 
BRANCH   8   9
ATOM      9  C   LIG d   1       2.660  83.866 110.199  0.00  0.00     0.028 C 
ATOM     10  C   LIG d   1       4.198  83.856 110.179  0.00  0.00     0.006 C 
ENDBRANCH   8   9
BRANCH   8  11
ATOM     11  C   LIG d   1       1.105  85.746 110.055  0.00  0.00     0.028 C 
ATOM     12  C   LIG d   1      -0.329  85.776 110.607  0.00  0.00     0.006 C 
ENDBRANCH   8  11
ENDBRANCH   7   8
ENDBRANCH   1   7
BRANCH   6  13
ATOM     13  N   LIG d   1       3.421  84.263 113.842  0.00  0.00    -0.311 N 
ATOM     14  C   LIG d   1       3.991  83.060 113.800  0.00  0.00     0.210 C 
ATOM     15  C   LIG d   1       3.053  81.888 114.105  0.00  0.00     0.109 C 
ATOM     16  O   LIG d   1       5.193  82.855 113.570  0.00  0.00    -0.276 OA
ATOM     17  H   LIG d   1       2.448  84.339 114.068  0.00  0.00     0.149 HD
ENDBRANCH   6  13
BRANCH   5  18
ATOM     18  N   LIG d   1       5.565  85.480 115.646  0.00  0.00     0.381 N 
ATOM     19  H   LIG d   1       6.468  85.528 115.217  0.00  0.00    -0.090 HD
ATOM     20  H   LIG d   1       5.276  84.518 115.666  0.00  0.00    -0.090 HD
ATOM     21  H   LIG d   1       5.610  85.841 116.573  0.00  0.00    -0.090 HD
ENDBRANCH   5  18
BRANCH   3  22
ATOM     22  C   LIG d   1       4.600  89.736 113.672  0.00  0.00     0.382 C 
ATOM     23  O   LIG d   1       4.432  90.326 114.766  0.00  0.00    -0.241 OA
ATOM     24  O   LIG d   1       4.833  90.402 112.645  0.00  0.00    -0.241 OA
ENDBRANCH   3  22
TORSDOF 7
ENDMDL
MODEL 4
REMARK VINA RESULT:      -5.2      2.432      4.457
REMARK  7 active torsions:
REMARK  status: ('A' for Active; 'I' for Inactive)
REMARK    1  A    between atoms: C_2  and  C_3 
REMARK    2  A    between atoms: C_3  and  O_6 
REMARK    3  A    between atoms: C_3  and  C_4 
REMARK    4  A    between atoms: C_7  and  O_6 
REMARK    5  A    between atoms: C_9  and  C_10 
REMARK    6  A    between atoms: N_15  and  C_14 
REMARK    7  A    between atoms: N_20  and  C_19 
REMARK       I    between atoms: C_22  and  N_20 
ROOT
ATOM      1  C   LIG d   1       1.538  84.013 112.526  0.00  0.00     0.161 C 
ATOM      2  C   LIG d   1       0.594  82.976 112.439  0.00  0.00     0.016 C 
ATOM      3  C   LIG d   1      -0.651  82.999 113.108  0.00  0.00     0.038 C 
ATOM      4  C   LIG d   1      -1.104  84.137 113.792  0.00  0.00     0.028 C 
ATOM      5  C   LIG d   1       0.025  85.012 114.326  0.00  0.00    -0.047 C 
ATOM      6  C   LIG d   1       1.015  85.310 113.177  0.00  0.00     0.091 C 
ENDROOT
BRANCH   1   7
ATOM      7  O   LIG d   1       2.079  84.292 111.219  0.00  0.00    -0.368 OA
BRANCH   7   8
ATOM      8  C   LIG d   1       3.401  83.764 110.951  0.00  0.00     0.119 C 
BRANCH   8   9
ATOM      9  C   LIG d   1       3.231  82.522 110.055  0.00  0.00     0.028 C 
ATOM     10  C   LIG d   1       4.055  81.322 110.554  0.00  0.00     0.006 C 
ENDBRANCH   8   9
BRANCH   8  11
ATOM     11  C   LIG d   1       4.067  83.253 112.232  0.00  0.00     0.028 C 
ATOM     12  C   LIG d   1       5.132  84.218 112.777  0.00  0.00     0.006 C 
ENDBRANCH   8  11
ENDBRANCH   7   8
ENDBRANCH   1   7
BRANCH   6  13
ATOM     13  N   LIG d   1       2.194  86.091 113.634  0.00  0.00    -0.311 N 
ATOM     14  C   LIG d   1       2.694  87.126 112.959  0.00  0.00     0.210 C 
ATOM     15  C   LIG d   1       3.925  87.778 113.596  0.00  0.00     0.109 C 
ATOM     16  O   LIG d   1       2.215  87.584 111.911  0.00  0.00    -0.276 OA
ATOM     17  H   LIG d   1       2.626  85.807 114.491  0.00  0.00     0.149 HD
ENDBRANCH   6  13
BRANCH   5  18
ATOM     18  N   LIG d   1      -0.585  86.229 114.895  0.00  0.00     0.381 N 
ATOM     19  H   LIG d   1       0.123  86.914 115.068  0.00  0.00    -0.090 HD
ATOM     20  H   LIG d   1      -1.020  85.996 115.770  0.00  0.00    -0.090 HD
ATOM     21  H   LIG d   1      -1.265  86.596 114.265  0.00  0.00    -0.090 HD
ENDBRANCH   5  18
BRANCH   3  22
ATOM     22  C   LIG d   1      -1.441  81.860 113.129  0.00  0.00     0.382 C 
ATOM     23  O   LIG d   1      -2.685  81.957 112.997  0.00  0.00    -0.241 OA
ATOM     24  O   LIG d   1      -0.930  80.741 113.324  0.00  0.00    -0.241 OA
ENDBRANCH   3  22
TORSDOF 7
ENDMDL
MODEL 5
REMARK VINA RESULT:      -5.1      3.080      4.969
REMARK  7 active torsions:
REMARK  status: ('A' for Active; 'I' for Inactive)
REMARK    1  A    between atoms: C_2  and  C_3 
REMARK    2  A    between atoms: C_3  and  O_6 
REMARK    3  A    between atoms: C_3  and  C_4 
REMARK    4  A    between atoms: C_7  and  O_6 
REMARK    5  A    between atoms: C_9  and  C_10 
REMARK    6  A    between atoms: N_15  and  C_14 
REMARK    7  A    between atoms: N_20  and  C_19 
REMARK       I    between atoms: C_22  and  N_20 
ROOT
ATOM      1  C   LIG d   1       2.171  84.533 114.114  0.00  0.00     0.161 C 
ATOM      2  C   LIG d   1       1.349  83.517 113.599  0.00  0.00     0.016 C 
ATOM      3  C   LIG d   1      -0.057  83.504 113.747  0.00  0.00     0.038 C 
ATOM      4  C   LIG d   1      -0.755  84.591 114.294  0.00  0.00     0.028 C 
ATOM      5  C   LIG d   1       0.073  85.408 115.280  0.00  0.00    -0.047 C 
ATOM      6  C   LIG d   1       1.418  85.782 114.617  0.00  0.00     0.091 C 
ENDROOT
BRANCH   1   7
ATOM      7  O   LIG d   1       3.161  84.905 113.134  0.00  0.00    -0.368 OA
BRANCH   7   8
ATOM      8  C   LIG d   1       2.787  85.966 112.222  0.00  0.00     0.119 C 
BRANCH   8   9
ATOM      9  C   LIG d   1       2.604  85.336 110.828  0.00  0.00     0.028 C 
ATOM     10  C   LIG d   1       1.208  85.604 110.241  0.00  0.00     0.006 C 
ENDBRANCH   8   9
BRANCH   8  11
ATOM     11  C   LIG d   1       3.918  86.987 112.061  0.00  0.00     0.028 C 
ATOM     12  C   LIG d   1       5.071  86.759 113.050  0.00  0.00     0.006 C 
ENDBRANCH   8  11
ENDBRANCH   7   8
ENDBRANCH   1   7
BRANCH   6  13
ATOM     13  N   LIG d   1       2.323  86.511 115.543  0.00  0.00    -0.311 N 
ATOM     14  C   LIG d   1       2.552  87.821 115.465  0.00  0.00     0.210 C 
ATOM     15  C   LIG d   1       3.535  88.368 116.505  0.00  0.00     0.109 C 
ATOM     16  O   LIG d   1       2.010  88.586 114.654  0.00  0.00    -0.276 OA
ATOM     17  H   LIG d   1       2.781  85.972 116.252  0.00  0.00     0.149 HD
ENDBRANCH   6  13
BRANCH   5  18
ATOM     18  N   LIG d   1      -0.728  86.585 115.667  0.00  0.00     0.381 N 
ATOM     19  H   LIG d   1      -1.013  86.502 116.622  0.00  0.00    -0.090 HD
ATOM     20  H   LIG d   1      -1.553  86.619 115.094  0.00  0.00    -0.090 HD
ATOM     21  H   LIG d   1      -0.194  87.417 115.543  0.00  0.00    -0.090 HD
ENDBRANCH   5  18
BRANCH   3  22
ATOM     22  C   LIG d   1      -0.776  82.377 113.381  0.00  0.00     0.382 C 
ATOM     23  O   LIG d   1      -1.988  82.478 113.074  0.00  0.00    -0.241 OA
ATOM     24  O   LIG d   1      -0.240  81.252 113.397  0.00  0.00    -0.241 OA
ENDBRANCH   3  22
TORSDOF 7
ENDMDL
MODEL 6
REMARK VINA RESULT:      -5.1     23.658     26.447
REMARK  7 active torsions:
REMARK  status: ('A' for Active; 'I' for Inactive)
REMARK    1  A    between atoms: C_2  and  C_3 
REMARK    2  A    between atoms: C_3  and  O_6 
REMARK    3  A    between atoms: C_3  and  C_4 
REMARK    4  A    between atoms: C_7  and  O_6 
REMARK    5  A    between atoms: C_9  and  C_10 
REMARK    6  A    between atoms: N_15  and  C_14 
REMARK    7  A    between atoms: N_20  and  C_19 
REMARK       I    between atoms: C_22  and  N_20 
ROOT
ATOM      1  C   LIG d   1     -25.336  85.442 112.811  0.00  0.00     0.161 C 
ATOM      2  C   LIG d   1     -24.276  86.316 113.103  0.00  0.00     0.016 C 
ATOM      3  C   LIG d   1     -23.038  85.888 113.637  0.00  0.00     0.038 C 
ATOM      4  C   LIG d   1     -22.721  84.528 113.773  0.00  0.00     0.028 C 
ATOM      5  C   LIG d   1     -23.943  83.637 113.965  0.00  0.00    -0.047 C 
ATOM      6  C   LIG d   1     -24.968  83.944 112.849  0.00  0.00     0.091 C 
ENDROOT
BRANCH   1   7
ATOM      7  O   LIG d   1     -25.913  85.784 111.535  0.00  0.00    -0.368 OA
BRANCH   7   8
ATOM      8  C   LIG d   1     -26.577  87.069 111.459  0.00  0.00     0.119 C 
BRANCH   8   9
ATOM      9  C   LIG d   1     -28.075  86.803 111.219  0.00  0.00     0.028 C 
ATOM     10  C   LIG d   1     -28.316  85.664 110.215  0.00  0.00     0.006 C 
ENDBRANCH   8   9
BRANCH   8  11
ATOM     11  C   LIG d   1     -26.106  87.869 110.240  0.00  0.00     0.028 C 
ATOM     12  C   LIG d   1     -26.178  89.388 110.460  0.00  0.00     0.006 C 
ENDBRANCH   8  11
ENDBRANCH   7   8
ENDBRANCH   1   7
BRANCH   6  13
ATOM     13  N   LIG d   1     -26.230  83.175 113.011  0.00  0.00    -0.311 N 
ATOM     14  C   LIG d   1     -26.829  82.531 112.011  0.00  0.00     0.210 C 
ATOM     15  C   LIG d   1     -28.130  81.817 112.389  0.00  0.00     0.109 C 
ATOM     16  O   LIG d   1     -26.388  82.455 110.854  0.00  0.00    -0.276 OA
ATOM     17  H   LIG d   1     -26.639  83.158 113.924  0.00  0.00     0.149 HD
ENDBRANCH   6  13
BRANCH   5  18
ATOM     18  N   LIG d   1     -23.480  82.237 113.955  0.00  0.00     0.381 N 
ATOM     19  H   LIG d   1     -24.123  81.671 113.439  0.00  0.00    -0.090 HD
ATOM     20  H   LIG d   1     -23.450  81.898 114.901  0.00  0.00    -0.090 HD
ATOM     21  H   LIG d   1     -22.574  82.180 113.546  0.00  0.00    -0.090 HD
ENDBRANCH   5  18
BRANCH   3  22
ATOM     22  C   LIG d   1     -22.118  86.827 114.077  0.00  0.00     0.382 C 
ATOM     23  O   LIG d   1     -20.939  86.797 113.649  0.00  0.00    -0.241 OA
ATOM     24  O   LIG d   1     -22.440  87.675 114.930  0.00  0.00    -0.241 OA
ENDBRANCH   3  22
TORSDOF 7
ENDMDL
MODEL 7
REMARK VINA RESULT:      -5.1      4.814      6.979
REMARK  7 active torsions:
REMARK  status: ('A' for Active; 'I' for Inactive)
REMARK    1  A    between atoms: C_2  and  C_3 
REMARK    2  A    between atoms: C_3  and  O_6 
REMARK    3  A    between atoms: C_3  and  C_4 
REMARK    4  A    between atoms: C_7  and  O_6 
REMARK    5  A    between atoms: C_9  and  C_10 
REMARK    6  A    between atoms: N_15  and  C_14 
REMARK    7  A    between atoms: N_20  and  C_19 
REMARK       I    between atoms: C_22  and  N_20 
ROOT
ATOM      1  C   LIG d   1      -1.049  77.581 114.547  0.00  0.00     0.161 C 
ATOM      2  C   LIG d   1      -2.230  76.987 114.073  0.00  0.00     0.016 C 
ATOM      3  C   LIG d   1      -3.116  76.254 114.896  0.00  0.00     0.038 C 
ATOM      4  C   LIG d   1      -2.957  76.194 116.289  0.00  0.00     0.028 C 
ATOM      5  C   LIG d   1      -1.509  76.353 116.740  0.00  0.00    -0.047 C 
ATOM      6  C   LIG d   1      -0.915  77.621 116.084  0.00  0.00     0.091 C 
ENDROOT
BRANCH   1   7
ATOM      7  O   LIG d   1      -0.915  78.907 113.998  0.00  0.00    -0.368 OA
BRANCH   7   8
ATOM      8  C   LIG d   1      -1.771  79.220 112.872  0.00  0.00     0.119 C 
BRANCH   8   9
ATOM      9  C   LIG d   1      -0.886  79.245 111.611  0.00  0.00     0.028 C 
ATOM     10  C   LIG d   1      -1.179  78.070 110.664  0.00  0.00     0.006 C 
ENDBRANCH   8   9
BRANCH   8  11
ATOM     11  C   LIG d   1      -2.351  80.633 112.988  0.00  0.00     0.028 C 
ATOM     12  C   LIG d   1      -1.279  81.728 112.874  0.00  0.00     0.006 C 
ENDBRANCH   8  11
ENDBRANCH   7   8
ENDBRANCH   1   7
BRANCH   6  13
ATOM     13  N   LIG d   1       0.524  77.805 116.406  0.00  0.00    -0.311 N 
ATOM     14  C   LIG d   1       0.957  78.500 117.456  0.00  0.00     0.210 C 
ATOM     15  C   LIG d   1       2.481  78.582 117.593  0.00  0.00     0.109 C 
ATOM     16  O   LIG d   1       0.224  79.029 118.305  0.00  0.00    -0.276 OA
ATOM     17  H   LIG d   1       1.187  77.382 115.786  0.00  0.00     0.149 HD
ENDBRANCH   6  13
BRANCH   5  18
ATOM     18  N   LIG d   1      -1.506  76.410 118.214  0.00  0.00     0.381 N 
ATOM     19  H   LIG d   1      -1.659  75.495 118.588  0.00  0.00    -0.090 HD
ATOM     20  H   LIG d   1      -2.255  77.005 118.518  0.00  0.00    -0.090 HD
ATOM     21  H   LIG d   1      -0.634  76.768 118.539  0.00  0.00    -0.090 HD
ENDBRANCH   5  18
BRANCH   3  22
ATOM     22  C   LIG d   1      -4.155  75.538 114.321  0.00  0.00     0.382 C 
ATOM     23  O   LIG d   1      -4.757  76.000 113.322  0.00  0.00    -0.241 OA
ATOM     24  O   LIG d   1      -4.527  74.457 114.815  0.00  0.00    -0.241 OA
ENDBRANCH   3  22
TORSDOF 7
ENDMDL
MODEL 8
REMARK VINA RESULT:      -5.0      3.533      5.654
REMARK  7 active torsions:
REMARK  status: ('A' for Active; 'I' for Inactive)
REMARK    1  A    between atoms: C_2  and  C_3 
REMARK    2  A    between atoms: C_3  and  O_6 
REMARK    3  A    between atoms: C_3  and  C_4 
REMARK    4  A    between atoms: C_7  and  O_6 
REMARK    5  A    between atoms: C_9  and  C_10 
REMARK    6  A    between atoms: N_15  and  C_14 
REMARK    7  A    between atoms: N_20  and  C_19 
REMARK       I    between atoms: C_22  and  N_20 
ROOT
ATOM      1  C   LIG d   1       1.837  85.755 114.156  0.00  0.00     0.161 C 
ATOM      2  C   LIG d   1       1.099  84.800 113.437  0.00  0.00     0.016 C 
ATOM      3  C   LIG d   1      -0.270  84.538 113.671  0.00  0.00     0.038 C 
ATOM      4  C   LIG d   1      -1.038  85.325 114.543  0.00  0.00     0.028 C 
ATOM      5  C   LIG d   1      -0.219  85.967 115.658  0.00  0.00    -0.047 C 
ATOM      6  C   LIG d   1       0.990  86.700 115.034  0.00  0.00     0.091 C 
ENDROOT
BRANCH   1   7
ATOM      7  O   LIG d   1       2.662  86.517 113.252  0.00  0.00    -0.368 OA
BRANCH   7   8
ATOM      8  C   LIG d   1       4.014  86.032 113.062  0.00  0.00     0.119 C 
BRANCH   8   9
ATOM      9  C   LIG d   1       4.966  87.040 113.735  0.00  0.00     0.028 C 
ATOM     10  C   LIG d   1       5.460  88.122 112.760  0.00  0.00     0.006 C 
ENDBRANCH   8   9
BRANCH   8  11
ATOM     11  C   LIG d   1       4.404  86.033 111.581  0.00  0.00     0.028 C 
ATOM     12  C   LIG d   1       3.875  84.804 110.825  0.00  0.00     0.006 C 
ENDBRANCH   8  11
ENDBRANCH   7   8
ENDBRANCH   1   7
BRANCH   6  13
ATOM     13  N   LIG d   1       1.890  87.285 116.062  0.00  0.00    -0.311 N 
ATOM     14  C   LIG d   1       2.398  88.514 115.978  0.00  0.00     0.210 C 
ATOM     15  C   LIG d   1       3.318  88.913 117.135  0.00  0.00     0.109 C 
ATOM     16  O   LIG d   1       2.149  89.321 115.070  0.00  0.00    -0.276 OA
ATOM     17  H   LIG d   1       2.119  86.710 116.849  0.00  0.00     0.149 HD
ENDBRANCH   6  13
BRANCH   5  18
ATOM     18  N   LIG d   1      -1.117  86.866 116.408  0.00  0.00     0.381 N 
ATOM     19  H   LIG d   1      -1.207  86.545 117.351  0.00  0.00    -0.090 HD
ATOM     20  H   LIG d   1      -2.026  86.848 115.980  0.00  0.00    -0.090 HD
ATOM     21  H   LIG d   1      -0.755  87.794 116.398  0.00  0.00    -0.090 HD
ENDBRANCH   5  18
BRANCH   3  22
ATOM     22  C   LIG d   1      -0.877  83.452 113.057  0.00  0.00     0.382 C 
ATOM     23  O   LIG d   1      -0.814  83.321 111.811  0.00  0.00    -0.241 OA
ATOM     24  O   LIG d   1      -1.523  82.626 113.729  0.00  0.00    -0.241 OA
ENDBRANCH   3  22
TORSDOF 7
ENDMDL
MODEL 9
REMARK VINA RESULT:      -4.9      3.514      6.372
REMARK  7 active torsions:
REMARK  status: ('A' for Active; 'I' for Inactive)
REMARK    1  A    between atoms: C_2  and  C_3 
REMARK    2  A    between atoms: C_3  and  O_6 
REMARK    3  A    between atoms: C_3  and  C_4 
REMARK    4  A    between atoms: C_7  and  O_6 
REMARK    5  A    between atoms: C_9  and  C_10 
REMARK    6  A    between atoms: N_15  and  C_14 
REMARK    7  A    between atoms: N_20  and  C_19 
REMARK       I    between atoms: C_22  and  N_20 
ROOT
ATOM      1  C   LIG d   1       2.279  84.700 113.461  0.00  0.00     0.161 C 
ATOM      2  C   LIG d   1       2.509  85.952 112.867  0.00  0.00     0.016 C 
ATOM      3  C   LIG d   1       3.682  86.712 113.082  0.00  0.00     0.038 C 
ATOM      4  C   LIG d   1       4.778  86.199 113.791  0.00  0.00     0.028 C 
ATOM      5  C   LIG d   1       4.391  85.149 114.827  0.00  0.00    -0.047 C 
ATOM      6  C   LIG d   1       3.511  84.074 114.148  0.00  0.00     0.091 C 
ENDROOT
BRANCH   1   7
ATOM      7  O   LIG d   1       1.734  83.789 112.485  0.00  0.00    -0.368 OA
BRANCH   7   8
ATOM      8  C   LIG d   1       1.981  84.120 111.097  0.00  0.00     0.119 C 
BRANCH   8   9
ATOM      9  C   LIG d   1       0.681  83.843 110.317  0.00  0.00     0.028 C 
ATOM     10  C   LIG d   1      -0.219  85.086 110.217  0.00  0.00     0.006 C 
ENDBRANCH   8   9
BRANCH   8  11
ATOM     11  C   LIG d   1       3.030  83.189 110.480  0.00  0.00     0.028 C 
ATOM     12  C   LIG d   1       4.368  83.895 110.211  0.00  0.00     0.006 C 
ENDBRANCH   8  11
ENDBRANCH   7   8
ENDBRANCH   1   7
BRANCH   6  13
ATOM     13  N   LIG d   1       3.019  83.054 115.110  0.00  0.00    -0.311 N 
ATOM     14  C   LIG d   1       3.691  81.943 115.408  0.00  0.00     0.210 C 
ATOM     15  C   LIG d   1       2.996  81.015 116.409  0.00  0.00     0.109 C 
ATOM     16  O   LIG d   1       4.812  81.653 114.962  0.00  0.00    -0.276 OA
ATOM     17  H   LIG d   1       2.132  83.224 115.542  0.00  0.00     0.149 HD
ENDBRANCH   6  13
BRANCH   5  18
ATOM     18  N   LIG d   1       5.638  84.601 115.393  0.00  0.00     0.381 N 
ATOM     19  H   LIG d   1       6.412  85.180 115.133  0.00  0.00    -0.090 HD
ATOM     20  H   LIG d   1       5.791  83.682 115.016  0.00  0.00    -0.090 HD
ATOM     21  H   LIG d   1       5.570  84.553 116.386  0.00  0.00    -0.090 HD
ENDBRANCH   5  18
BRANCH   3  22
ATOM     22  C   LIG d   1       3.750  88.017 112.618  0.00  0.00     0.382 C 
ATOM     23  O   LIG d   1       4.865  88.543 112.387  0.00  0.00    -0.241 OA
ATOM     24  O   LIG d   1       2.712  88.689 112.469  0.00  0.00    -0.241 OA
ENDBRANCH   3  22
TORSDOF 7
ENDMDL
