MODEL 1
REMARK VINA RESULT:      -5.4      0.000      0.000
REMARK  7 active torsions:
REMARK  status: ('A' for Active; 'I' for Inactive)
REMARK    1  A    between atoms: C_2  and  C_3 
REMARK    2  A    between atoms: C_3  and  O_6 
REMARK    3  A    between atoms: C_3  and  C_4 
REMARK    4  A    between atoms: C_7  and  O_6 
REMARK    5  A    between atoms: C_9  and  C_10 
REMARK    6  A    between atoms: N_15  and  C_14 
REMARK    7  A    between atoms: N_20  and  C_19 
REMARK       I    between atoms: C_22  and  N_20 
ROOT
ATOM      1  C   LIG d   1       0.267  83.381 112.631  0.00  0.00     0.161 C 
ATOM      2  C   LIG d   1      -0.959  82.834 113.047  0.00  0.00     0.016 C 
ATOM      3  C   LIG d   1      -1.427  81.567 112.629  0.00  0.00     0.038 C 
ATOM      4  C   LIG d   1      -0.627  80.690 111.882  0.00  0.00     0.028 C 
ATOM      5  C   LIG d   1       0.411  81.402 111.021  0.00  0.00    -0.047 C 
ATOM      6  C   LIG d   1       1.203  82.392 111.905  0.00  0.00     0.091 C 
ENDROOT
BRANCH   1   7
ATOM      7  O   LIG d   1       0.942  83.977 113.756  0.00  0.00    -0.368 OA
BRANCH   7   8
ATOM      8  C   LIG d   1       1.112  85.415 113.709  0.00  0.00     0.119 C 
BRANCH   8   9
ATOM      9  C   LIG d   1       2.623  85.699 113.595  0.00  0.00     0.028 C 
ATOM     10  C   LIG d   1       2.961  86.608 112.401  0.00  0.00     0.006 C 
ENDBRANCH   8   9
BRANCH   8  11
ATOM     11  C   LIG d   1       0.674  86.071 115.021  0.00  0.00     0.028 C 
ATOM     12  C   LIG d   1       1.659  85.816 116.173  0.00  0.00     0.006 C 
ENDBRANCH   8  11
ENDBRANCH   7   8
ENDBRANCH   1   7
BRANCH   6  13
ATOM     13  N   LIG d   1       2.182  83.192 111.124  0.00  0.00    -0.311 N 
ATOM     14  C   LIG d   1       3.421  82.779 110.859  0.00  0.00     0.210 C 
ATOM     15  C   LIG d   1       4.273  83.766 110.055  0.00  0.00     0.109 C 
ATOM     16  O   LIG d   1       3.883  81.676 111.186  0.00  0.00    -0.276 OA
ATOM     17  H   LIG d   1       1.880  84.087 110.793  0.00  0.00     0.149 HD
ENDBRANCH   6  13
BRANCH   5  18
ATOM     18  N   LIG d   1       1.264  80.369 110.404  0.00  0.00     0.381 N 
ATOM     19  H   LIG d   1       2.228  80.596 110.546  0.00  0.00    -0.090 HD
ATOM     20  H   LIG d   1       1.087  80.348 109.415  0.00  0.00    -0.090 HD
ATOM     21  H   LIG d   1       1.063  79.478 110.803  0.00  0.00    -0.090 HD
ENDBRANCH   5  18
BRANCH   3  22
ATOM     22  C   LIG d   1      -2.726  81.182 112.926  0.00  0.00     0.382 C 
ATOM     23  O   LIG d   1      -3.651  81.417 112.112  0.00  0.00    -0.241 OA
ATOM     24  O   LIG d   1      -2.991  80.643 114.017  0.00  0.00    -0.241 OA
ENDBRANCH   3  22
TORSDOF 7
ENDMDL
MODEL 2
REMARK VINA RESULT:      -5.4      2.628      4.392
REMARK  7 active torsions:
REMARK  status: ('A' for Active; 'I' for Inactive)
REMARK    1  A    between atoms: C_2  and  C_3 
REMARK    2  A    between atoms: C_3  and  O_6 
REMARK    3  A    between atoms: C_3  and  C_4 
REMARK    4  A    between atoms: C_7  and  O_6 
REMARK    5  A    between atoms: C_9  and  C_10 
REMARK    6  A    between atoms: N_15  and  C_14 
REMARK    7  A    between atoms: N_20  and  C_19 
REMARK       I    between atoms: C_22  and  N_20 
ROOT
ATOM      1  C   LIG d   1       1.855  83.906 113.071  0.00  0.00     0.161 C 
ATOM      2  C   LIG d   1       0.708  83.157 112.763  0.00  0.00     0.016 C 
ATOM      3  C   LIG d   1      -0.585  83.486 113.232  0.00  0.00     0.038 C 
ATOM      4  C   LIG d   1      -0.843  84.680 113.921  0.00  0.00     0.028 C 
ATOM      5  C   LIG d   1       0.365  85.210 114.686  0.00  0.00    -0.047 C 
ATOM      6  C   LIG d   1       1.577  85.274 113.729  0.00  0.00     0.091 C 
ENDROOT
BRANCH   1   7
ATOM      7  O   LIG d   1       2.662  84.074 111.888  0.00  0.00    -0.368 OA
BRANCH   7   8
ATOM      8  C   LIG d   1       2.472  85.311 111.158  0.00  0.00     0.119 C 
BRANCH   8   9
ATOM      9  C   LIG d   1       1.428  85.042 110.057  0.00  0.00     0.028 C 
ATOM     10  C   LIG d   1       0.227  85.999 110.141  0.00  0.00     0.006 C 
ENDBRANCH   8   9
BRANCH   8  11
ATOM     11  C   LIG d   1       3.747  85.721 110.416  0.00  0.00     0.028 C 
ATOM     12  C   LIG d   1       4.626  86.684 111.230  0.00  0.00     0.006 C 
ENDBRANCH   8  11
ENDBRANCH   7   8
ENDBRANCH   1   7
BRANCH   6  13
ATOM     13  N   LIG d   1       2.822  85.703 114.419  0.00  0.00    -0.311 N 
ATOM     14  C   LIG d   1       3.240  86.967 114.460  0.00  0.00     0.210 C 
ATOM     15  C   LIG d   1       4.559  87.188 115.206  0.00  0.00     0.109 C 
ATOM     16  O   LIG d   1       2.627  87.930 113.976  0.00  0.00    -0.276 OA
ATOM     17  H   LIG d   1       3.365  84.989 114.865  0.00  0.00     0.149 HD
ENDBRANCH   6  13
BRANCH   5  18
ATOM     18  N   LIG d   1      -0.002  86.526 115.243  0.00  0.00     0.381 N 
ATOM     19  H   LIG d   1      -0.893  86.808 114.886  0.00  0.00    -0.090 HD
ATOM     20  H   LIG d   1       0.682  87.203 114.955  0.00  0.00    -0.090 HD
ATOM     21  H   LIG d   1      -0.035  86.479 116.237  0.00  0.00    -0.090 HD
ENDBRANCH   5  18
BRANCH   3  22
ATOM     22  C   LIG d   1      -1.631  82.594 113.046  0.00  0.00     0.382 C 
ATOM     23  O   LIG d   1      -1.786  82.033 111.934  0.00  0.00    -0.241 OA
ATOM     24  O   LIG d   1      -2.446  82.377 113.962  0.00  0.00    -0.241 OA
ENDBRANCH   3  22
TORSDOF 7
ENDMDL
MODEL 3
REMARK VINA RESULT:      -5.4      2.771      4.752
REMARK  7 active torsions:
REMARK  status: ('A' for Active; 'I' for Inactive)
REMARK    1  A    between atoms: C_2  and  C_3 
REMARK    2  A    between atoms: C_3  and  O_6 
REMARK    3  A    between atoms: C_3  and  C_4 
REMARK    4  A    between atoms: C_7  and  O_6 
REMARK    5  A    between atoms: C_9  and  C_10 
REMARK    6  A    between atoms: N_15  and  C_14 
REMARK    7  A    between atoms: N_20  and  C_19 
REMARK       I    between atoms: C_22  and  N_20 
ROOT
ATOM      1  C   LIG d   1      -0.860  81.387 112.423  0.00  0.00     0.161 C 
ATOM      2  C   LIG d   1      -1.343  80.097 112.148  0.00  0.00     0.016 C 
ATOM      3  C   LIG d   1      -2.226  79.398 113.003  0.00  0.00     0.038 C 
ATOM      4  C   LIG d   1      -2.808  80.007 114.125  0.00  0.00     0.028 C 
ATOM      5  C   LIG d   1      -1.959  81.128 114.715  0.00  0.00    -0.047 C 
ATOM      6  C   LIG d   1      -1.571  82.110 113.586  0.00  0.00     0.091 C 
ENDROOT
BRANCH   1   7
ATOM      7  O   LIG d   1      -0.908  82.192 111.229  0.00  0.00    -0.368 OA
BRANCH   7   8
ATOM      8  C   LIG d   1       0.335  82.320 110.495  0.00  0.00     0.119 C 
BRANCH   8   9
ATOM      9  C   LIG d   1       1.483  81.994 111.470  0.00  0.00     0.028 C 
ATOM     10  C   LIG d   1       2.782  81.612 110.740  0.00  0.00     0.006 C 
ENDBRANCH   8   9
BRANCH   8  11
ATOM     11  C   LIG d   1       0.575  83.767 110.055  0.00  0.00     0.028 C 
ATOM     12  C   LIG d   1      -0.317  84.773 110.800  0.00  0.00     0.006 C 
ENDBRANCH   8  11
ENDBRANCH   7   8
ENDBRANCH   1   7
BRANCH   6  13
ATOM     13  N   LIG d   1      -0.669  83.192 114.062  0.00  0.00    -0.311 N 
ATOM     14  C   LIG d   1      -1.105  84.382 114.471  0.00  0.00     0.210 C 
ATOM     15  C   LIG d   1      -0.007  85.359 114.902  0.00  0.00     0.109 C 
ATOM     16  O   LIG d   1      -2.299  84.709 114.550  0.00  0.00    -0.276 OA
ATOM     17  H   LIG d   1       0.313  83.000 114.061  0.00  0.00     0.149 HD
ENDBRANCH   6  13
BRANCH   5  18
ATOM     18  N   LIG d   1      -2.745  81.763 115.790  0.00  0.00     0.381 N 
ATOM     19  H   LIG d   1      -3.139  81.060 116.382  0.00  0.00    -0.090 HD
ATOM     20  H   LIG d   1      -3.497  82.286 115.377  0.00  0.00    -0.090 HD
ATOM     21  H   LIG d   1      -2.163  82.371 116.324  0.00  0.00    -0.090 HD
ENDBRANCH   5  18
BRANCH   3  22
ATOM     22  C   LIG d   1      -2.503  78.062 112.760  0.00  0.00     0.382 C 
ATOM     23  O   LIG d   1      -1.637  77.187 113.002  0.00  0.00    -0.241 OA
ATOM     24  O   LIG d   1      -3.593  77.723 112.261  0.00  0.00    -0.241 OA
ENDBRANCH   3  22
TORSDOF 7
ENDMDL
MODEL 4
REMARK VINA RESULT:      -5.3      2.102      3.760
REMARK  7 active torsions:
REMARK  status: ('A' for Active; 'I' for Inactive)
REMARK    1  A    between atoms: C_2  and  C_3 
REMARK    2  A    between atoms: C_3  and  O_6 
REMARK    3  A    between atoms: C_3  and  C_4 
REMARK    4  A    between atoms: C_7  and  O_6 
REMARK    5  A    between atoms: C_9  and  C_10 
REMARK    6  A    between atoms: N_15  and  C_14 
REMARK    7  A    between atoms: N_20  and  C_19 
REMARK       I    between atoms: C_22  and  N_20 
ROOT
ATOM      1  C   LIG d   1       0.768  83.281 111.997  0.00  0.00     0.161 C 
ATOM      2  C   LIG d   1      -0.345  82.484 111.684  0.00  0.00     0.016 C 
ATOM      3  C   LIG d   1      -1.291  82.057 112.644  0.00  0.00     0.038 C 
ATOM      4  C   LIG d   1      -1.270  82.527 113.966  0.00  0.00     0.028 C 
ATOM      5  C   LIG d   1       0.121  82.928 114.444  0.00  0.00    -0.047 C 
ATOM      6  C   LIG d   1       0.747  83.895 113.413  0.00  0.00     0.091 C 
ENDROOT
BRANCH   1   7
ATOM      7  O   LIG d   1       0.924  84.315 111.005  0.00  0.00    -0.368 OA
BRANCH   7   8
ATOM      8  C   LIG d   1       2.032  84.154 110.086  0.00  0.00     0.119 C 
BRANCH   8   9
ATOM      9  C   LIG d   1       2.933  83.032 110.638  0.00  0.00     0.028 C 
ATOM     10  C   LIG d   1       4.423  83.282 110.353  0.00  0.00     0.006 C 
ENDBRANCH   8   9
BRANCH   8  11
ATOM     11  C   LIG d   1       2.916  85.405 110.055  0.00  0.00     0.028 C 
ATOM     12  C   LIG d   1       2.157  86.681 110.452  0.00  0.00     0.006 C 
ENDBRANCH   8  11
ENDBRANCH   7   8
ENDBRANCH   1   7
BRANCH   6  13
ATOM     13  N   LIG d   1       2.141  84.270 113.762  0.00  0.00    -0.311 N 
ATOM     14  C   LIG d   1       2.548  85.531 113.904  0.00  0.00     0.210 C 
ATOM     15  C   LIG d   1       4.032  85.698 114.246  0.00  0.00     0.109 C 
ATOM     16  O   LIG d   1       1.813  86.526 113.811  0.00  0.00    -0.276 OA
ATOM     17  H   LIG d   1       2.797  83.524 113.887  0.00  0.00     0.149 HD
ENDBRANCH   6  13
BRANCH   5  18
ATOM     18  N   LIG d   1      -0.024  83.526 115.784  0.00  0.00     0.381 N 
ATOM     19  H   LIG d   1      -0.457  82.871 116.403  0.00  0.00    -0.090 HD
ATOM     20  H   LIG d   1      -0.616  84.335 115.717  0.00  0.00    -0.090 HD
ATOM     21  H   LIG d   1       0.869  83.789 116.139  0.00  0.00    -0.090 HD
ENDBRANCH   5  18
BRANCH   3  22
ATOM     22  C   LIG d   1      -2.250  81.118 112.294  0.00  0.00     0.382 C 
ATOM     23  O   LIG d   1      -1.899  79.967 111.937  0.00  0.00    -0.241 OA
ATOM     24  O   LIG d   1      -3.458  81.420 112.288  0.00  0.00    -0.241 OA
ENDBRANCH   3  22
TORSDOF 7
ENDMDL
MODEL 5
REMARK VINA RESULT:      -5.3      2.661      5.944
REMARK  7 active torsions:
REMARK  status: ('A' for Active; 'I' for Inactive)
REMARK    1  A    between atoms: C_2  and  C_3 
REMARK    2  A    between atoms: C_3  and  O_6 
REMARK    3  A    between atoms: C_3  and  C_4 
REMARK    4  A    between atoms: C_7  and  O_6 
REMARK    5  A    between atoms: C_9  and  C_10 
REMARK    6  A    between atoms: N_15  and  C_14 
REMARK    7  A    between atoms: N_20  and  C_19 
REMARK       I    between atoms: C_22  and  N_20 
ROOT
ATOM      1  C   LIG d   1       2.246  85.733 113.136  0.00  0.00     0.161 C 
ATOM      2  C   LIG d   1       3.088  86.849 113.273  0.00  0.00     0.016 C 
ATOM      3  C   LIG d   1       4.183  87.107 112.417  0.00  0.00     0.038 C 
ATOM      4  C   LIG d   1       4.420  86.342 111.265  0.00  0.00     0.028 C 
ATOM      5  C   LIG d   1       3.900  84.912 111.370  0.00  0.00    -0.047 C 
ATOM      6  C   LIG d   1       2.422  84.948 111.820  0.00  0.00     0.091 C 
ENDROOT
BRANCH   1   7
ATOM      7  O   LIG d   1       0.872  86.135 113.300  0.00  0.00    -0.368 OA
BRANCH   7   8
ATOM      8  C   LIG d   1       0.284  85.883 114.600  0.00  0.00     0.119 C 
BRANCH   8   9
ATOM      9  C   LIG d   1       1.019  84.675 115.214  0.00  0.00     0.028 C 
ATOM     10  C   LIG d   1       1.712  85.023 116.542  0.00  0.00     0.006 C 
ENDBRANCH   8   9
BRANCH   8  11
ATOM     11  C   LIG d   1      -1.178  85.446 114.476  0.00  0.00     0.028 C 
ATOM     12  C   LIG d   1      -1.367  83.933 114.664  0.00  0.00     0.006 C 
ENDBRANCH   8  11
ENDBRANCH   7   8
ENDBRANCH   1   7
BRANCH   6  13
ATOM     13  N   LIG d   1       1.860  83.588 112.029  0.00  0.00    -0.311 N 
ATOM     14  C   LIG d   1       0.654  83.219 111.601  0.00  0.00     0.210 C 
ATOM     15  C   LIG d   1       0.260  81.778 111.939  0.00  0.00     0.109 C 
ATOM     16  O   LIG d   1      -0.115  83.939 110.947  0.00  0.00    -0.276 OA
ATOM     17  H   LIG d   1       2.430  82.930 112.524  0.00  0.00     0.149 HD
ENDBRANCH   6  13
BRANCH   5  18
ATOM     18  N   LIG d   1       4.090  84.271 110.055  0.00  0.00     0.381 N 
ATOM     19  H   LIG d   1       4.298  84.966 109.367  0.00  0.00    -0.090 HD
ATOM     20  H   LIG d   1       3.236  83.812 109.792  0.00  0.00    -0.090 HD
ATOM     21  H   LIG d   1       4.832  83.608 110.103  0.00  0.00    -0.090 HD
ENDBRANCH   5  18
BRANCH   3  22
ATOM     22  C   LIG d   1       5.079  88.118 112.732  0.00  0.00     0.382 C 
ATOM     23  O   LIG d   1       6.129  88.257 112.060  0.00  0.00    -0.241 OA
ATOM     24  O   LIG d   1       4.872  88.864 113.708  0.00  0.00    -0.241 OA
ENDBRANCH   3  22
TORSDOF 7
ENDMDL
MODEL 6
REMARK VINA RESULT:      -5.2      1.253      2.037
REMARK  7 active torsions:
REMARK  status: ('A' for Active; 'I' for Inactive)
REMARK    1  A    between atoms: C_2  and  C_3 
REMARK    2  A    between atoms: C_3  and  O_6 
REMARK    3  A    between atoms: C_3  and  C_4 
REMARK    4  A    between atoms: C_7  and  O_6 
REMARK    5  A    between atoms: C_9  and  C_10 
REMARK    6  A    between atoms: N_15  and  C_14 
REMARK    7  A    between atoms: N_20  and  C_19 
REMARK       I    between atoms: C_22  and  N_20 
ROOT
ATOM      1  C   LIG d   1      -0.054  83.781 112.300  0.00  0.00     0.161 C 
ATOM      2  C   LIG d   1      -1.146  82.980 112.675  0.00  0.00     0.016 C 
ATOM      3  C   LIG d   1      -1.249  81.606 112.356  0.00  0.00     0.038 C 
ATOM      4  C   LIG d   1      -0.189  80.900 111.768  0.00  0.00     0.028 C 
ATOM      5  C   LIG d   1       0.726  81.777 110.920  0.00  0.00    -0.047 C 
ATOM      6  C   LIG d   1       1.161  83.003 111.755  0.00  0.00     0.091 C 
ENDROOT
BRANCH   1   7
ATOM      7  O   LIG d   1       0.340  84.617 113.406  0.00  0.00    -0.368 OA
BRANCH   7   8
ATOM      8  C   LIG d   1       1.227  84.011 114.378  0.00  0.00     0.119 C 
BRANCH   8   9
ATOM      9  C   LIG d   1       0.510  84.042 115.742  0.00  0.00     0.028 C 
ATOM     10  C   LIG d   1       0.014  82.652 116.175  0.00  0.00     0.006 C 
ENDBRANCH   8   9
BRANCH   8  11
ATOM     11  C   LIG d   1       2.498  84.845 114.569  0.00  0.00     0.028 C 
ATOM     12  C   LIG d   1       2.445  86.190 113.827  0.00  0.00     0.006 C 
ENDBRANCH   8  11
ENDBRANCH   7   8
ENDBRANCH   1   7
BRANCH   6  13
ATOM     13  N   LIG d   1       1.991  83.956 110.972  0.00  0.00    -0.311 N 
ATOM     14  C   LIG d   1       3.323  83.964 111.001  0.00  0.00     0.210 C 
ATOM     15  C   LIG d   1       3.982  85.042 110.135  0.00  0.00     0.109 C 
ATOM     16  O   LIG d   1       4.021  83.159 111.636  0.00  0.00    -0.276 OA
ATOM     17  H   LIG d   1       1.506  84.623 110.405  0.00  0.00     0.149 HD
ENDBRANCH   6  13
BRANCH   5  18
ATOM     18  N   LIG d   1       1.861  80.943 110.481  0.00  0.00     0.381 N 
ATOM     19  H   LIG d   1       1.947  80.985 109.485  0.00  0.00    -0.090 HD
ATOM     20  H   LIG d   1       1.684  79.989 110.742  0.00  0.00    -0.090 HD
ATOM     21  H   LIG d   1       2.703  81.262 110.909  0.00  0.00    -0.090 HD
ENDBRANCH   5  18
BRANCH   3  22
ATOM     22  C   LIG d   1      -2.438  80.933 112.591  0.00  0.00     0.382 C 
ATOM     23  O   LIG d   1      -2.422  79.797 113.123  0.00  0.00    -0.241 OA
ATOM     24  O   LIG d   1      -3.525  81.429 112.238  0.00  0.00    -0.241 OA
ENDBRANCH   3  22
TORSDOF 7
ENDMDL
MODEL 7
REMARK VINA RESULT:      -5.2      8.716     11.393
REMARK  7 active torsions:
REMARK  status: ('A' for Active; 'I' for Inactive)
REMARK    1  A    between atoms: C_2  and  C_3 
REMARK    2  A    between atoms: C_3  and  O_6 
REMARK    3  A    between atoms: C_3  and  C_4 
REMARK    4  A    between atoms: C_7  and  O_6 
REMARK    5  A    between atoms: C_9  and  C_10 
REMARK    6  A    between atoms: N_15  and  C_14 
REMARK    7  A    between atoms: N_20  and  C_19 
REMARK       I    between atoms: C_22  and  N_20 
ROOT
ATOM      1  C   LIG d   1      -5.139  75.767 116.352  0.00  0.00     0.161 C 
ATOM      2  C   LIG d   1      -4.926  77.153 116.435  0.00  0.00     0.016 C 
ATOM      3  C   LIG d   1      -5.945  78.079 116.759  0.00  0.00     0.038 C 
ATOM      4  C   LIG d   1      -7.220  77.664 117.171  0.00  0.00     0.028 C 
ATOM      5  C   LIG d   1      -7.623  76.302 116.615  0.00  0.00    -0.047 C 
ATOM      6  C   LIG d   1      -6.496  75.286 116.907  0.00  0.00     0.091 C 
ENDROOT
BRANCH   1   7
ATOM      7  O   LIG d   1      -4.057  75.067 116.998  0.00  0.00    -0.368 OA
BRANCH   7   8
ATOM      8  C   LIG d   1      -2.747  75.676 116.884  0.00  0.00     0.119 C 
BRANCH   8   9
ATOM      9  C   LIG d   1      -2.083  75.112 115.613  0.00  0.00     0.028 C 
ATOM     10  C   LIG d   1      -1.644  76.220 114.640  0.00  0.00     0.006 C 
ENDBRANCH   8   9
BRANCH   8  11
ATOM     11  C   LIG d   1      -1.834  75.252 118.039  0.00  0.00     0.028 C 
ATOM     12  C   LIG d   1      -0.924  74.068 117.676  0.00  0.00     0.006 C 
ENDBRANCH   8  11
ENDBRANCH   7   8
ENDBRANCH   1   7
BRANCH   6  13
ATOM     13  N   LIG d   1      -6.772  73.948 116.322  0.00  0.00    -0.311 N 
ATOM     14  C   LIG d   1      -7.349  72.957 117.000  0.00  0.00     0.210 C 
ATOM     15  C   LIG d   1      -7.523  71.653 116.214  0.00  0.00     0.109 C 
ATOM     16  O   LIG d   1      -7.761  73.044 118.166  0.00  0.00    -0.276 OA
ATOM     17  H   LIG d   1      -6.499  73.801 115.370  0.00  0.00     0.149 HD
ENDBRANCH   6  13
BRANCH   5  18
ATOM     18  N   LIG d   1      -8.910  75.932 117.233  0.00  0.00     0.381 N 
ATOM     19  H   LIG d   1      -9.250  75.083 116.825  0.00  0.00    -0.090 HD
ATOM     20  H   LIG d   1      -9.580  76.659 117.052  0.00  0.00    -0.090 HD
ATOM     21  H   LIG d   1      -8.795  75.813 118.216  0.00  0.00    -0.090 HD
ENDBRANCH   5  18
BRANCH   3  22
ATOM     22  C   LIG d   1      -5.704  79.438 116.632  0.00  0.00     0.382 C 
ATOM     23  O   LIG d   1      -6.618  80.262 116.876  0.00  0.00    -0.241 OA
ATOM     24  O   LIG d   1      -4.598  79.849 116.235  0.00  0.00    -0.241 OA
ENDBRANCH   3  22
TORSDOF 7
ENDMDL
MODEL 8
REMARK VINA RESULT:      -5.1      6.476      9.901
REMARK  7 active torsions:
REMARK  status: ('A' for Active; 'I' for Inactive)
REMARK    1  A    between atoms: C_2  and  C_3 
REMARK    2  A    between atoms: C_3  and  O_6 
REMARK    3  A    between atoms: C_3  and  C_4 
REMARK    4  A    between atoms: C_7  and  O_6 
REMARK    5  A    between atoms: C_9  and  C_10 
REMARK    6  A    between atoms: N_15  and  C_14 
REMARK    7  A    between atoms: N_20  and  C_19 
REMARK       I    between atoms: C_22  and  N_20 
ROOT
ATOM      1  C   LIG d   1      -3.591  76.229 114.295  0.00  0.00     0.161 C 
ATOM      2  C   LIG d   1      -2.938  77.437 114.001  0.00  0.00     0.016 C 
ATOM      3  C   LIG d   1      -3.225  78.656 114.656  0.00  0.00     0.038 C 
ATOM      4  C   LIG d   1      -4.084  78.719 115.764  0.00  0.00     0.028 C 
ATOM      5  C   LIG d   1      -5.144  77.622 115.770  0.00  0.00    -0.047 C 
ATOM      6  C   LIG d   1      -4.452  76.254 115.576  0.00  0.00     0.091 C 
ENDROOT
BRANCH   1   7
ATOM      7  O   LIG d   1      -2.630  75.157 114.359  0.00  0.00    -0.368 OA
BRANCH   7   8
ATOM      8  C   LIG d   1      -1.441  75.412 115.147  0.00  0.00     0.119 C 
BRANCH   8   9
ATOM      9  C   LIG d   1      -0.227  74.964 114.312  0.00  0.00     0.028 C 
ATOM     10  C   LIG d   1      -0.204  73.445 114.076  0.00  0.00     0.006 C 
ENDBRANCH   8   9
BRANCH   8  11
ATOM     11  C   LIG d   1      -1.410  74.542 116.407  0.00  0.00     0.028 C 
ATOM     12  C   LIG d   1      -1.420  75.369 117.703  0.00  0.00     0.006 C 
ENDBRANCH   8  11
ENDBRANCH   7   8
ENDBRANCH   1   7
BRANCH   6  13
ATOM     13  N   LIG d   1      -5.425  75.134 115.486  0.00  0.00    -0.311 N 
ATOM     14  C   LIG d   1      -5.848  74.444 116.544  0.00  0.00     0.210 C 
ATOM     15  C   LIG d   1      -6.836  73.317 116.227  0.00  0.00     0.109 C 
ATOM     16  O   LIG d   1      -5.523  74.679 117.717  0.00  0.00    -0.276 OA
ATOM     17  H   LIG d   1      -5.764  74.897 114.575  0.00  0.00     0.149 HD
ENDBRANCH   6  13
BRANCH   5  18
ATOM     18  N   LIG d   1      -5.881  77.722 117.044  0.00  0.00     0.381 N 
ATOM     19  H   LIG d   1      -6.574  78.440 116.980  0.00  0.00    -0.090 HD
ATOM     20  H   LIG d   1      -5.236  77.971 117.774  0.00  0.00    -0.090 HD
ATOM     21  H   LIG d   1      -6.314  76.850 117.257  0.00  0.00    -0.090 HD
ENDBRANCH   5  18
BRANCH   3  22
ATOM     22  C   LIG d   1      -2.679  79.838 114.179  0.00  0.00     0.382 C 
ATOM     23  O   LIG d   1      -3.220  80.435 113.217  0.00  0.00    -0.241 OA
ATOM     24  O   LIG d   1      -1.628  80.292 114.669  0.00  0.00    -0.241 OA
ENDBRANCH   3  22
TORSDOF 7
ENDMDL
MODEL 9
REMARK VINA RESULT:      -5.0      7.925     11.082
REMARK  7 active torsions:
REMARK  status: ('A' for Active; 'I' for Inactive)
REMARK    1  A    between atoms: C_2  and  C_3 
REMARK    2  A    between atoms: C_3  and  O_6 
REMARK    3  A    between atoms: C_3  and  C_4 
REMARK    4  A    between atoms: C_7  and  O_6 
REMARK    5  A    between atoms: C_9  and  C_10 
REMARK    6  A    between atoms: N_15  and  C_14 
REMARK    7  A    between atoms: N_20  and  C_19 
REMARK       I    between atoms: C_22  and  N_20 
ROOT
ATOM      1  C   LIG d   1      -5.514  75.575 115.906  0.00  0.00     0.161 C 
ATOM      2  C   LIG d   1      -6.053  74.278 115.943  0.00  0.00     0.016 C 
ATOM      3  C   LIG d   1      -7.197  73.931 116.698  0.00  0.00     0.038 C 
ATOM      4  C   LIG d   1      -7.974  74.898 117.352  0.00  0.00     0.028 C 
ATOM      5  C   LIG d   1      -7.184  76.138 117.757  0.00  0.00    -0.047 C 
ATOM      6  C   LIG d   1      -6.413  76.666 116.525  0.00  0.00     0.091 C 
ENDROOT
BRANCH   1   7
ATOM      7  O   LIG d   1      -5.167  75.921 114.551  0.00  0.00    -0.368 OA
BRANCH   7   8
ATOM      8  C   LIG d   1      -3.754  76.091 114.279  0.00  0.00     0.119 C 
BRANCH   8   9
ATOM      9  C   LIG d   1      -2.981  75.597 115.518  0.00  0.00     0.028 C 
ATOM     10  C   LIG d   1      -1.613  74.995 115.155  0.00  0.00     0.006 C 
ENDBRANCH   8   9
BRANCH   8  11
ATOM     11  C   LIG d   1      -3.388  77.572 114.137  0.00  0.00     0.028 C 
ATOM     12  C   LIG d   1      -2.901  77.932 112.724  0.00  0.00     0.006 C 
ENDBRANCH   8  11
ENDBRANCH   7   8
ENDBRANCH   1   7
BRANCH   6  13
ATOM     13  N   LIG d   1      -5.548  77.829 116.853  0.00  0.00    -0.311 N 
ATOM     14  C   LIG d   1      -5.998  79.080 116.924  0.00  0.00     0.210 C 
ATOM     15  C   LIG d   1      -4.934  80.131 117.257  0.00  0.00     0.109 C 
ATOM     16  O   LIG d   1      -7.183  79.415 116.776  0.00  0.00    -0.276 OA
ATOM     17  H   LIG d   1      -4.578  77.643 117.019  0.00  0.00     0.149 HD
ENDBRANCH   6  13
BRANCH   5  18
ATOM     18  N   LIG d   1      -8.141  77.118 118.303  0.00  0.00     0.381 N 
ATOM     19  H   LIG d   1      -7.742  78.035 118.273  0.00  0.00    -0.090 HD
ATOM     20  H   LIG d   1      -8.331  76.888 119.262  0.00  0.00    -0.090 HD
ATOM     21  H   LIG d   1      -8.987  77.100 117.775  0.00  0.00    -0.090 HD
ENDBRANCH   5  18
BRANCH   3  22
ATOM     22  C   LIG d   1      -7.551  72.598 116.836  0.00  0.00     0.382 C 
ATOM     23  O   LIG d   1      -7.227  71.768 115.952  0.00  0.00    -0.241 OA
ATOM     24  O   LIG d   1      -8.228  72.222 117.812  0.00  0.00    -0.241 OA
ENDBRANCH   3  22
TORSDOF 7
ENDMDL
