MODEL 1
REMARK VINA RESULT:      -5.6      0.000      0.000
REMARK  7 active torsions:
REMARK  status: ('A' for Active; 'I' for Inactive)
REMARK    1  A    between atoms: C_2  and  C_3 
REMARK    2  A    between atoms: C_3  and  O_6 
REMARK    3  A    between atoms: C_3  and  C_4 
REMARK    4  A    between atoms: C_7  and  O_6 
REMARK    5  A    between atoms: C_9  and  C_10 
REMARK    6  A    between atoms: N_15  and  C_14 
REMARK    7  A    between atoms: N_20  and  C_19 
REMARK       I    between atoms: C_22  and  N_20 
ROOT
ATOM      1  C   LIG d   1       3.906  85.071 112.533  0.00  0.00     0.161 C 
ATOM      2  C   LIG d   1       4.460  86.307 112.906  0.00  0.00     0.016 C 
ATOM      3  C   LIG d   1       4.016  87.546 112.391  0.00  0.00     0.038 C 
ATOM      4  C   LIG d   1       2.878  87.646 111.576  0.00  0.00     0.028 C 
ATOM      5  C   LIG d   1       2.597  86.381 110.772  0.00  0.00    -0.047 C 
ATOM      6  C   LIG d   1       2.592  85.168 111.730  0.00  0.00     0.091 C 
ENDROOT
BRANCH   1   7
ATOM      7  O   LIG d   1       3.720  84.247 113.701  0.00  0.00    -0.368 OA
BRANCH   7   8
ATOM      8  C   LIG d   1       3.139  84.899 114.856  0.00  0.00     0.119 C 
BRANCH   8   9
ATOM      9  C   LIG d   1       3.845  84.340 116.107  0.00  0.00     0.028 C 
ATOM     10  C   LIG d   1       5.254  84.925 116.297  0.00  0.00     0.006 C 
ENDBRANCH   8   9
BRANCH   8  11
ATOM     11  C   LIG d   1       1.663  84.527 115.023  0.00  0.00     0.028 C 
ATOM     12  C   LIG d   1       1.370  83.066 114.645  0.00  0.00     0.006 C 
ENDBRANCH   8  11
ENDBRANCH   7   8
ENDBRANCH   1   7
BRANCH   6  13
ATOM     13  N   LIG d   1       2.407  83.879 111.013  0.00  0.00    -0.311 N 
ATOM     14  C   LIG d   1       1.216  83.325 110.796  0.00  0.00     0.210 C 
ATOM     15  C   LIG d   1       1.251  81.985 110.055  0.00  0.00     0.109 C 
ATOM     16  O   LIG d   1       0.131  83.831 111.120  0.00  0.00    -0.276 OA
ATOM     17  H   LIG d   1       3.233  83.416 110.689  0.00  0.00     0.149 HD
ENDBRANCH   6  13
BRANCH   5  18
ATOM     18  N   LIG d   1       1.311  86.572 110.075  0.00  0.00     0.381 N 
ATOM     19  H   LIG d   1       0.667  85.859 110.351  0.00  0.00    -0.090 HD
ATOM     20  H   LIG d   1       1.464  86.494 109.085  0.00  0.00    -0.090 HD
ATOM     21  H   LIG d   1       0.937  87.470 110.291  0.00  0.00    -0.090 HD
ENDBRANCH   5  18
BRANCH   3  22
ATOM     22  C   LIG d   1       4.737  88.700 112.659  0.00  0.00     0.382 C 
ATOM     23  O   LIG d   1       5.965  88.629 112.903  0.00  0.00    -0.241 OA
ATOM     24  O   LIG d   1       4.165  89.806 112.703  0.00  0.00    -0.241 OA
ENDBRANCH   3  22
TORSDOF 7
ENDMDL
MODEL 2
REMARK VINA RESULT:      -5.4      2.163      4.246
REMARK  7 active torsions:
REMARK  status: ('A' for Active; 'I' for Inactive)
REMARK    1  A    between atoms: C_2  and  C_3 
REMARK    2  A    between atoms: C_3  and  O_6 
REMARK    3  A    between atoms: C_3  and  C_4 
REMARK    4  A    between atoms: C_7  and  O_6 
REMARK    5  A    between atoms: C_9  and  C_10 
REMARK    6  A    between atoms: N_15  and  C_14 
REMARK    7  A    between atoms: N_20  and  C_19 
REMARK       I    between atoms: C_22  and  N_20 
ROOT
ATOM      1  C   LIG d   1       3.628  85.371 112.669  0.00  0.00     0.161 C 
ATOM      2  C   LIG d   1       4.172  86.604 112.273  0.00  0.00     0.016 C 
ATOM      3  C   LIG d   1       4.581  87.603 113.185  0.00  0.00     0.038 C 
ATOM      4  C   LIG d   1       4.613  87.376 114.569  0.00  0.00     0.028 C 
ATOM      5  C   LIG d   1       3.601  86.335 115.035  0.00  0.00    -0.047 C 
ATOM      6  C   LIG d   1       3.759  85.061 114.175  0.00  0.00     0.091 C 
ENDROOT
BRANCH   1   7
ATOM      7  O   LIG d   1       4.206  84.307 111.886  0.00  0.00    -0.368 OA
BRANCH   7   8
ATOM      8  C   LIG d   1       3.598  84.065 110.594  0.00  0.00     0.119 C 
BRANCH   8   9
ATOM      9  C   LIG d   1       2.071  84.028 110.800  0.00  0.00     0.028 C 
ATOM     10  C   LIG d   1       1.351  85.167 110.057  0.00  0.00     0.006 C 
ENDBRANCH   8   9
BRANCH   8  11
ATOM     11  C   LIG d   1       3.967  82.679 110.056  0.00  0.00     0.028 C 
ATOM     12  C   LIG d   1       2.881  81.626 110.326  0.00  0.00     0.006 C 
ENDBRANCH   8  11
ENDBRANCH   7   8
ENDBRANCH   1   7
BRANCH   6  13
ATOM     13  N   LIG d   1       2.749  84.022 114.509  0.00  0.00    -0.311 N 
ATOM     14  C   LIG d   1       2.966  83.045 115.388  0.00  0.00     0.210 C 
ATOM     15  C   LIG d   1       1.800  82.069 115.570  0.00  0.00     0.109 C 
ATOM     16  O   LIG d   1       4.002  82.913 116.057  0.00  0.00    -0.276 OA
ATOM     17  H   LIG d   1       1.869  84.073 114.035  0.00  0.00     0.149 HD
ENDBRANCH   6  13
BRANCH   5  18
ATOM     18  N   LIG d   1       3.837  86.096 116.472  0.00  0.00     0.381 N 
ATOM     19  H   LIG d   1       3.294  86.737 117.015  0.00  0.00    -0.090 HD
ATOM     20  H   LIG d   1       4.808  86.256 116.673  0.00  0.00    -0.090 HD
ATOM     21  H   LIG d   1       3.592  85.159 116.706  0.00  0.00    -0.090 HD
ENDBRANCH   5  18
BRANCH   3  22
ATOM     22  C   LIG d   1       4.926  88.862 112.717  0.00  0.00     0.382 C 
ATOM     23  O   LIG d   1       6.085  89.074 112.285  0.00  0.00    -0.241 OA
ATOM     24  O   LIG d   1       4.107  89.799 112.762  0.00  0.00    -0.241 OA
ENDBRANCH   3  22
TORSDOF 7
ENDMDL
MODEL 3
REMARK VINA RESULT:      -5.1      1.276      2.070
REMARK  7 active torsions:
REMARK  status: ('A' for Active; 'I' for Inactive)
REMARK    1  A    between atoms: C_2  and  C_3 
REMARK    2  A    between atoms: C_3  and  O_6 
REMARK    3  A    between atoms: C_3  and  C_4 
REMARK    4  A    between atoms: C_7  and  O_6 
REMARK    5  A    between atoms: C_9  and  C_10 
REMARK    6  A    between atoms: N_15  and  C_14 
REMARK    7  A    between atoms: N_20  and  C_19 
REMARK       I    between atoms: C_22  and  N_20 
ROOT
ATOM      1  C   LIG d   1       3.307  85.435 113.275  0.00  0.00     0.161 C 
ATOM      2  C   LIG d   1       3.971  86.668 113.394  0.00  0.00     0.016 C 
ATOM      3  C   LIG d   1       3.796  87.736 112.485  0.00  0.00     0.038 C 
ATOM      4  C   LIG d   1       2.825  87.698 111.474  0.00  0.00     0.028 C 
ATOM      5  C   LIG d   1       2.490  86.285 111.009  0.00  0.00    -0.047 C 
ATOM      6  C   LIG d   1       2.161  85.415 112.243  0.00  0.00     0.091 C 
ENDROOT
BRANCH   1   7
ATOM      7  O   LIG d   1       2.826  85.013 114.567  0.00  0.00    -0.368 OA
BRANCH   7   8
ATOM      8  C   LIG d   1       3.703  84.138 115.319  0.00  0.00     0.119 C 
BRANCH   8   9
ATOM      9  C   LIG d   1       2.873  82.915 115.756  0.00  0.00     0.028 C 
ATOM     10  C   LIG d   1       1.394  83.035 115.352  0.00  0.00     0.006 C 
ENDBRANCH   8   9
BRANCH   8  11
ATOM     11  C   LIG d   1       4.167  84.799 116.620  0.00  0.00     0.028 C 
ATOM     12  C   LIG d   1       3.259  85.960 117.056  0.00  0.00     0.006 C 
ENDBRANCH   8  11
ENDBRANCH   7   8
ENDBRANCH   1   7
BRANCH   6  13
ATOM     13  N   LIG d   1       1.904  83.996 111.884  0.00  0.00    -0.311 N 
ATOM     14  C   LIG d   1       2.839  83.181 111.399  0.00  0.00     0.210 C 
ATOM     15  C   LIG d   1       2.358  81.763 111.076  0.00  0.00     0.109 C 
ATOM     16  O   LIG d   1       4.030  83.489 111.237  0.00  0.00    -0.276 OA
ATOM     17  H   LIG d   1       0.972  83.654 112.014  0.00  0.00     0.149 HD
ENDBRANCH   6  13
BRANCH   5  18
ATOM     18  N   LIG d   1       1.369  86.384 110.055  0.00  0.00     0.381 N 
ATOM     19  H   LIG d   1       1.175  85.483 109.666  0.00  0.00    -0.090 HD
ATOM     20  H   LIG d   1       1.632  87.001 109.307  0.00  0.00    -0.090 HD
ATOM     21  H   LIG d   1       0.559  86.736 110.516  0.00  0.00    -0.090 HD
ENDBRANCH   5  18
BRANCH   3  22
ATOM     22  C   LIG d   1       4.627  88.844 112.559  0.00  0.00     0.382 C 
ATOM     23  O   LIG d   1       4.148  89.970 112.836  0.00  0.00    -0.241 OA
ATOM     24  O   LIG d   1       5.843  88.739 112.309  0.00  0.00    -0.241 OA
ENDBRANCH   3  22
TORSDOF 7
ENDMDL
MODEL 4
REMARK VINA RESULT:      -5.1      2.206      4.331
REMARK  7 active torsions:
REMARK  status: ('A' for Active; 'I' for Inactive)
REMARK    1  A    between atoms: C_2  and  C_3 
REMARK    2  A    between atoms: C_3  and  O_6 
REMARK    3  A    between atoms: C_3  and  C_4 
REMARK    4  A    between atoms: C_7  and  O_6 
REMARK    5  A    between atoms: C_9  and  C_10 
REMARK    6  A    between atoms: N_15  and  C_14 
REMARK    7  A    between atoms: N_20  and  C_19 
REMARK       I    between atoms: C_22  and  N_20 
ROOT
ATOM      1  C   LIG d   1       3.347  85.466 112.950  0.00  0.00     0.161 C 
ATOM      2  C   LIG d   1       3.925  86.647 112.456  0.00  0.00     0.016 C 
ATOM      3  C   LIG d   1       4.503  87.636 113.285  0.00  0.00     0.038 C 
ATOM      4  C   LIG d   1       4.679  87.438 114.663  0.00  0.00     0.028 C 
ATOM      5  C   LIG d   1       3.658  86.484 115.273  0.00  0.00    -0.047 C 
ATOM      6  C   LIG d   1       3.628  85.182 114.440  0.00  0.00     0.091 C 
ENDROOT
BRANCH   1   7
ATOM      7  O   LIG d   1       3.756  84.346 112.141  0.00  0.00    -0.368 OA
BRANCH   7   8
ATOM      8  C   LIG d   1       2.731  83.754 111.305  0.00  0.00     0.119 C 
BRANCH   8   9
ATOM      9  C   LIG d   1       3.276  82.411 110.784  0.00  0.00     0.028 C 
ATOM     10  C   LIG d   1       2.192  81.322 110.720  0.00  0.00     0.006 C 
ENDBRANCH   8   9
BRANCH   8  11
ATOM     11  C   LIG d   1       2.473  84.601 110.055  0.00  0.00     0.028 C 
ATOM     12  C   LIG d   1       1.103  85.297 110.078  0.00  0.00     0.006 C 
ENDBRANCH   8  11
ENDBRANCH   7   8
ENDBRANCH   1   7
BRANCH   6  13
ATOM     13  N   LIG d   1       2.595  84.226 114.919  0.00  0.00    -0.311 N 
ATOM     14  C   LIG d   1       2.882  83.113 115.591  0.00  0.00     0.210 C 
ATOM     15  C   LIG d   1       1.670  82.258 115.974  0.00  0.00     0.109 C 
ATOM     16  O   LIG d   1       4.023  82.768 115.935  0.00  0.00    -0.276 OA
ATOM     17  H   LIG d   1       1.641  84.444 114.711  0.00  0.00     0.149 HD
ENDBRANCH   6  13
BRANCH   5  18
ATOM     18  N   LIG d   1       4.041  86.261 116.680  0.00  0.00     0.381 N 
ATOM     19  H   LIG d   1       4.149  85.282 116.851  0.00  0.00    -0.090 HD
ATOM     20  H   LIG d   1       3.309  86.606 117.275  0.00  0.00    -0.090 HD
ATOM     21  H   LIG d   1       4.893  86.737 116.881  0.00  0.00    -0.090 HD
ENDBRANCH   5  18
BRANCH   3  22
ATOM     22  C   LIG d   1       4.878  88.855 112.742  0.00  0.00     0.382 C 
ATOM     23  O   LIG d   1       4.047  89.793 112.676  0.00  0.00    -0.241 OA
ATOM     24  O   LIG d   1       6.022  89.015 112.276  0.00  0.00    -0.241 OA
ENDBRANCH   3  22
TORSDOF 7
ENDMDL
MODEL 5
REMARK VINA RESULT:      -5.0      3.190      5.536
REMARK  7 active torsions:
REMARK  status: ('A' for Active; 'I' for Inactive)
REMARK    1  A    between atoms: C_2  and  C_3 
REMARK    2  A    between atoms: C_3  and  O_6 
REMARK    3  A    between atoms: C_3  and  C_4 
REMARK    4  A    between atoms: C_7  and  O_6 
REMARK    5  A    between atoms: C_9  and  C_10 
REMARK    6  A    between atoms: N_15  and  C_14 
REMARK    7  A    between atoms: N_20  and  C_19 
REMARK       I    between atoms: C_22  and  N_20 
ROOT
ATOM      1  C   LIG d   1       3.571  87.513 114.525  0.00  0.00     0.161 C 
ATOM      2  C   LIG d   1       3.140  86.802 113.392  0.00  0.00     0.016 C 
ATOM      3  C   LIG d   1       3.768  86.896 112.129  0.00  0.00     0.038 C 
ATOM      4  C   LIG d   1       4.970  87.596 111.949  0.00  0.00     0.028 C 
ATOM      5  C   LIG d   1       5.161  88.737 112.943  0.00  0.00    -0.047 C 
ATOM      6  C   LIG d   1       4.946  88.196 114.375  0.00  0.00     0.091 C 
ENDROOT
BRANCH   1   7
ATOM      7  O   LIG d   1       3.564  86.647 115.677  0.00  0.00    -0.368 OA
BRANCH   7   8
ATOM      8  C   LIG d   1       4.680  85.730 115.792  0.00  0.00     0.119 C 
BRANCH   8   9
ATOM      9  C   LIG d   1       4.128  84.304 115.605  0.00  0.00     0.028 C 
ATOM     10  C   LIG d   1       2.656  84.183 116.036  0.00  0.00     0.006 C 
ENDBRANCH   8   9
BRANCH   8  11
ATOM     11  C   LIG d   1       5.276  85.752 117.202  0.00  0.00     0.028 C 
ATOM     12  C   LIG d   1       4.486  86.647 118.170  0.00  0.00     0.006 C 
ENDBRANCH   8  11
ENDBRANCH   7   8
ENDBRANCH   1   7
BRANCH   6  13
ATOM     13  N   LIG d   1       5.032  89.265 115.404  0.00  0.00    -0.311 N 
ATOM     14  C   LIG d   1       6.040  89.373 116.267  0.00  0.00     0.210 C 
ATOM     15  C   LIG d   1       5.922  90.536 117.257  0.00  0.00     0.109 C 
ATOM     16  O   LIG d   1       7.036  88.635 116.287  0.00  0.00    -0.276 OA
ATOM     17  H   LIG d   1       4.280  89.926 115.438  0.00  0.00     0.149 HD
ENDBRANCH   6  13
BRANCH   5  18
ATOM     18  N   LIG d   1       6.511  89.292 112.731  0.00  0.00     0.381 N 
ATOM     19  H   LIG d   1       7.176  88.783 113.278  0.00  0.00    -0.090 HD
ATOM     20  H   LIG d   1       6.520  90.250 113.034  0.00  0.00    -0.090 HD
ATOM     21  H   LIG d   1       6.754  89.239 111.766  0.00  0.00    -0.090 HD
ENDBRANCH   5  18
BRANCH   3  22
ATOM     22  C   LIG d   1       3.171  86.316 111.020  0.00  0.00     0.382 C 
ATOM     23  O   LIG d   1       3.595  85.220 110.581  0.00  0.00    -0.241 OA
ATOM     24  O   LIG d   1       2.243  86.897 110.426  0.00  0.00    -0.241 OA
ENDBRANCH   3  22
TORSDOF 7
ENDMDL
MODEL 6
REMARK VINA RESULT:      -4.8      2.271      5.588
REMARK  7 active torsions:
REMARK  status: ('A' for Active; 'I' for Inactive)
REMARK    1  A    between atoms: C_2  and  C_3 
REMARK    2  A    between atoms: C_3  and  O_6 
REMARK    3  A    between atoms: C_3  and  C_4 
REMARK    4  A    between atoms: C_7  and  O_6 
REMARK    5  A    between atoms: C_9  and  C_10 
REMARK    6  A    between atoms: N_15  and  C_14 
REMARK    7  A    between atoms: N_20  and  C_19 
REMARK       I    between atoms: C_22  and  N_20 
ROOT
ATOM      1  C   LIG d   1       0.514  84.364 113.008  0.00  0.00     0.161 C 
ATOM      2  C   LIG d   1      -0.489  83.391 113.148  0.00  0.00     0.016 C 
ATOM      3  C   LIG d   1      -0.470  82.150 112.470  0.00  0.00     0.038 C 
ATOM      4  C   LIG d   1       0.638  81.733 111.718  0.00  0.00     0.028 C 
ATOM      5  C   LIG d   1       1.448  82.890 111.141  0.00  0.00    -0.047 C 
ATOM      6  C   LIG d   1       1.785  83.882 112.278  0.00  0.00     0.091 C 
ENDROOT
BRANCH   1   7
ATOM      7  O   LIG d   1       0.853  84.906 114.299  0.00  0.00    -0.368 OA
BRANCH   7   8
ATOM      8  C   LIG d   1       1.948  84.260 114.994  0.00  0.00     0.119 C 
BRANCH   8   9
ATOM      9  C   LIG d   1       1.345  83.454 116.160  0.00  0.00     0.028 C 
ATOM     10  C   LIG d   1       1.681  84.064 117.531  0.00  0.00     0.006 C 
ENDBRANCH   8   9
BRANCH   8  11
ATOM     11  C   LIG d   1       2.876  85.288 115.649  0.00  0.00     0.028 C 
ATOM     12  C   LIG d   1       2.644  86.716 115.130  0.00  0.00     0.006 C 
ENDBRANCH   8  11
ENDBRANCH   7   8
ENDBRANCH   1   7
BRANCH   6  13
ATOM     13  N   LIG d   1       2.505  85.085 111.785  0.00  0.00    -0.311 N 
ATOM     14  C   LIG d   1       3.808  85.286 111.969  0.00  0.00     0.210 C 
ATOM     15  C   LIG d   1       4.347  86.602 111.398  0.00  0.00     0.109 C 
ATOM     16  O   LIG d   1       4.577  84.485 112.523  0.00  0.00    -0.276 OA
ATOM     17  H   LIG d   1       1.964  85.772 111.297  0.00  0.00     0.149 HD
ENDBRANCH   6  13
BRANCH   5  18
ATOM     18  N   LIG d   1       2.647  82.318 110.499  0.00  0.00     0.381 N 
ATOM     19  H   LIG d   1       2.759  81.364 110.780  0.00  0.00    -0.090 HD
ATOM     20  H   LIG d   1       3.455  82.833 110.801  0.00  0.00    -0.090 HD
ATOM     21  H   LIG d   1       2.561  82.371 109.508  0.00  0.00    -0.090 HD
ENDBRANCH   5  18
BRANCH   3  22
ATOM     22  C   LIG d   1      -1.586  81.328 112.510  0.00  0.00     0.382 C 
ATOM     23  O   LIG d   1      -1.502  80.138 112.123  0.00  0.00    -0.241 OA
ATOM     24  O   LIG d   1      -2.686  81.774 112.886  0.00  0.00    -0.241 OA
ENDBRANCH   3  22
TORSDOF 7
ENDMDL
MODEL 7
REMARK VINA RESULT:      -4.7     10.074     11.615
REMARK  7 active torsions:
REMARK  status: ('A' for Active; 'I' for Inactive)
REMARK    1  A    between atoms: C_2  and  C_3 
REMARK    2  A    between atoms: C_3  and  O_6 
REMARK    3  A    between atoms: C_3  and  C_4 
REMARK    4  A    between atoms: C_7  and  O_6 
REMARK    5  A    between atoms: C_9  and  C_10 
REMARK    6  A    between atoms: N_15  and  C_14 
REMARK    7  A    between atoms: N_20  and  C_19 
REMARK       I    between atoms: C_22  and  N_20 
ROOT
ATOM      1  C   LIG d   1      12.701  78.928 114.366  0.00  0.00     0.161 C 
ATOM      2  C   LIG d   1      11.668  79.707 114.913  0.00  0.00     0.016 C 
ATOM      3  C   LIG d   1      10.946  80.671 114.173  0.00  0.00     0.038 C 
ATOM      4  C   LIG d   1      11.109  80.817 112.787  0.00  0.00     0.028 C 
ATOM      5  C   LIG d   1      12.492  80.406 112.293  0.00  0.00    -0.047 C 
ATOM      6  C   LIG d   1      12.817  78.993 112.829  0.00  0.00     0.091 C 
ENDROOT
BRANCH   1   7
ATOM      7  O   LIG d   1      12.564  77.560 114.800  0.00  0.00    -0.368 OA
BRANCH   7   8
ATOM      8  C   LIG d   1      11.553  77.309 115.807  0.00  0.00     0.119 C 
BRANCH   8   9
ATOM      9  C   LIG d   1      12.229  76.545 116.962  0.00  0.00     0.028 C 
ATOM     10  C   LIG d   1      11.212  75.997 117.977  0.00  0.00     0.006 C 
ENDBRANCH   8   9
BRANCH   8  11
ATOM     11  C   LIG d   1      10.464  76.370 115.281  0.00  0.00     0.028 C 
ATOM     12  C   LIG d   1       9.116  77.078 115.071  0.00  0.00     0.006 C 
ENDBRANCH   8  11
ENDBRANCH   7   8
ENDBRANCH   1   7
BRANCH   6  13
ATOM     13  N   LIG d   1      14.187  78.550 112.462  0.00  0.00    -0.311 N 
ATOM     14  C   LIG d   1      14.475  77.928 111.319  0.00  0.00     0.210 C 
ATOM     15  C   LIG d   1      15.947  77.539 111.148  0.00  0.00     0.109 C 
ATOM     16  O   LIG d   1      13.657  77.691 110.417  0.00  0.00    -0.276 OA
ATOM     17  H   LIG d   1      14.918  78.730 113.122  0.00  0.00     0.149 HD
ENDBRANCH   6  13
BRANCH   5  18
ATOM     18  N   LIG d   1      12.478  80.476 110.819  0.00  0.00     0.381 N 
ATOM     19  H   LIG d   1      13.394  80.293 110.463  0.00  0.00    -0.090 HD
ATOM     20  H   LIG d   1      12.211  81.404 110.541  0.00  0.00    -0.090 HD
ATOM     21  H   LIG d   1      11.831  79.813 110.452  0.00  0.00    -0.090 HD
ENDBRANCH   5  18
BRANCH   3  22
ATOM     22  C   LIG d   1      10.078  81.531 114.828  0.00  0.00     0.382 C 
ATOM     23  O   LIG d   1       9.581  81.200 115.931  0.00  0.00    -0.241 OA
ATOM     24  O   LIG d   1       9.751  82.615 114.308  0.00  0.00    -0.241 OA
ENDBRANCH   3  22
TORSDOF 7
ENDMDL
MODEL 8
REMARK VINA RESULT:      -4.6      9.908     12.240
REMARK  7 active torsions:
REMARK  status: ('A' for Active; 'I' for Inactive)
REMARK    1  A    between atoms: C_2  and  C_3 
REMARK    2  A    between atoms: C_3  and  O_6 
REMARK    3  A    between atoms: C_3  and  C_4 
REMARK    4  A    between atoms: C_7  and  O_6 
REMARK    5  A    between atoms: C_9  and  C_10 
REMARK    6  A    between atoms: N_15  and  C_14 
REMARK    7  A    between atoms: N_20  and  C_19 
REMARK       I    between atoms: C_22  and  N_20 
ROOT
ATOM      1  C   LIG d   1      10.909  78.536 114.164  0.00  0.00     0.161 C 
ATOM      2  C   LIG d   1       9.593  78.940 114.443  0.00  0.00     0.016 C 
ATOM      3  C   LIG d   1       8.864  78.496 115.570  0.00  0.00     0.038 C 
ATOM      4  C   LIG d   1       9.460  77.730 116.583  0.00  0.00     0.028 C 
ATOM      5  C   LIG d   1      10.630  76.884 116.094  0.00  0.00    -0.047 C 
ATOM      6  C   LIG d   1      11.613  77.789 115.316  0.00  0.00     0.091 C 
ENDROOT
BRANCH   1   7
ATOM      7  O   LIG d   1      11.692  79.673 113.752  0.00  0.00    -0.368 OA
BRANCH   7   8
ATOM      8  C   LIG d   1      12.391  79.542 112.489  0.00  0.00     0.119 C 
BRANCH   8   9
ATOM      9  C   LIG d   1      13.803  80.130 112.678  0.00  0.00     0.028 C 
ATOM     10  C   LIG d   1      14.880  79.316 111.942  0.00  0.00     0.006 C 
ENDBRANCH   8   9
BRANCH   8  11
ATOM     11  C   LIG d   1      11.738  80.397 111.400  0.00  0.00     0.028 C 
ATOM     12  C   LIG d   1      10.794  81.468 111.969  0.00  0.00     0.006 C 
ENDBRANCH   8  11
ENDBRANCH   7   8
ENDBRANCH   1   7
BRANCH   6  13
ATOM     13  N   LIG d   1      12.745  77.025 114.731  0.00  0.00    -0.311 N 
ATOM     14  C   LIG d   1      14.021  77.260 115.031  0.00  0.00     0.210 C 
ATOM     15  C   LIG d   1      15.032  76.371 114.300  0.00  0.00     0.109 C 
ATOM     16  O   LIG d   1      14.411  78.099 115.857  0.00  0.00    -0.276 OA
ATOM     17  H   LIG d   1      12.518  76.304 114.074  0.00  0.00     0.149 HD
ENDBRANCH   6  13
BRANCH   5  18
ATOM     18  N   LIG d   1      11.242  76.246 117.274  0.00  0.00     0.381 N 
ATOM     19  H   LIG d   1      11.877  76.882 117.713  0.00  0.00    -0.090 HD
ATOM     20  H   LIG d   1      11.762  75.439 116.975  0.00  0.00    -0.090 HD
ATOM     21  H   LIG d   1      10.534  75.973 117.920  0.00  0.00    -0.090 HD
ENDBRANCH   5  18
BRANCH   3  22
ATOM     22  C   LIG d   1       7.512  78.785 115.672  0.00  0.00     0.382 C 
ATOM     23  O   LIG d   1       7.087  79.468 116.635  0.00  0.00    -0.241 OA
ATOM     24  O   LIG d   1       6.705  78.335 114.836  0.00  0.00    -0.241 OA
ENDBRANCH   3  22
TORSDOF 7
ENDMDL
MODEL 9
REMARK VINA RESULT:      -4.5      8.365     11.887
REMARK  7 active torsions:
REMARK  status: ('A' for Active; 'I' for Inactive)
REMARK    1  A    between atoms: C_2  and  C_3 
REMARK    2  A    between atoms: C_3  and  O_6 
REMARK    3  A    between atoms: C_3  and  C_4 
REMARK    4  A    between atoms: C_7  and  O_6 
REMARK    5  A    between atoms: C_9  and  C_10 
REMARK    6  A    between atoms: N_15  and  C_14 
REMARK    7  A    between atoms: N_20  and  C_19 
REMARK       I    between atoms: C_22  and  N_20 
ROOT
ATOM      1  C   LIG d   1      -1.714  76.632 114.448  0.00  0.00     0.161 C 
ATOM      2  C   LIG d   1      -3.075  76.754 114.776  0.00  0.00     0.016 C 
ATOM      3  C   LIG d   1      -3.684  76.054 115.843  0.00  0.00     0.038 C 
ATOM      4  C   LIG d   1      -2.936  75.295 116.755  0.00  0.00     0.028 C 
ATOM      5  C   LIG d   1      -1.644  74.740 116.164  0.00  0.00    -0.047 C 
ATOM      6  C   LIG d   1      -0.859  75.895 115.500  0.00  0.00     0.091 C 
ENDROOT
BRANCH   1   7
ATOM      7  O   LIG d   1      -1.159  77.934 114.175  0.00  0.00    -0.368 OA
BRANCH   7   8
ATOM      8  C   LIG d   1      -1.773  78.674 113.091  0.00  0.00     0.119 C 
BRANCH   8   9
ATOM      9  C   LIG d   1      -1.585  77.849 111.803  0.00  0.00     0.028 C 
ATOM     10  C   LIG d   1      -2.866  77.786 110.954  0.00  0.00     0.006 C 
ENDBRANCH   8   9
BRANCH   8  11
ATOM     11  C   LIG d   1      -1.044  79.996 112.836  0.00  0.00     0.028 C 
ATOM     12  C   LIG d   1      -2.002  81.193 112.724  0.00  0.00     0.006 C 
ENDBRANCH   8  11
ENDBRANCH   7   8
ENDBRANCH   1   7
BRANCH   6  13
ATOM     13  N   LIG d   1       0.378  75.424 114.824  0.00  0.00    -0.311 N 
ATOM     14  C   LIG d   1       0.391  74.457 113.909  0.00  0.00     0.210 C 
ATOM     15  C   LIG d   1       1.775  74.112 113.352  0.00  0.00     0.109 C 
ATOM     16  O   LIG d   1      -0.617  73.874 113.482  0.00  0.00    -0.276 OA
ATOM     17  H   LIG d   1       1.237  75.865 115.088  0.00  0.00     0.149 HD
ENDBRANCH   6  13
BRANCH   5  18
ATOM     18  N   LIG d   1      -0.898  74.088 117.258  0.00  0.00     0.381 N 
ATOM     19  H   LIG d   1      -0.112  73.595 116.884  0.00  0.00    -0.090 HD
ATOM     20  H   LIG d   1      -1.501  73.424 117.711  0.00  0.00    -0.090 HD
ATOM     21  H   LIG d   1      -0.590  74.771 117.914  0.00  0.00    -0.090 HD
ENDBRANCH   5  18
BRANCH   3  22
ATOM     22  C   LIG d   1      -5.064  76.078 115.981  0.00  0.00     0.382 C 
ATOM     23  O   LIG d   1      -5.640  77.134 116.338  0.00  0.00    -0.241 OA
ATOM     24  O   LIG d   1      -5.735  75.045 115.797  0.00  0.00    -0.241 OA
ENDBRANCH   3  22
TORSDOF 7
ENDMDL
