MODEL 1
REMARK VINA RESULT:      -5.5      0.000      0.000
REMARK  7 active torsions:
REMARK  status: ('A' for Active; 'I' for Inactive)
REMARK    1  A    between atoms: C_2  and  C_3 
REMARK    2  A    between atoms: C_3  and  O_6 
REMARK    3  A    between atoms: C_3  and  C_4 
REMARK    4  A    between atoms: C_7  and  O_6 
REMARK    5  A    between atoms: C_9  and  C_10 
REMARK    6  A    between atoms: N_15  and  C_14 
REMARK    7  A    between atoms: N_20  and  C_19 
REMARK       I    between atoms: C_22  and  N_20 
ROOT
ATOM      1  C   LIG d   1       0.272  83.517 111.990  0.00  0.00     0.161 C 
ATOM      2  C   LIG d   1      -0.845  82.720 111.687  0.00  0.00     0.016 C 
ATOM      3  C   LIG d   1      -1.687  82.155 112.673  0.00  0.00     0.038 C 
ATOM      4  C   LIG d   1      -1.557  82.476 114.032  0.00  0.00     0.028 C 
ATOM      5  C   LIG d   1      -0.139  82.872 114.428  0.00  0.00    -0.047 C 
ATOM      6  C   LIG d   1       0.364  83.970 113.462  0.00  0.00     0.091 C 
ENDROOT
BRANCH   1   7
ATOM      7  O   LIG d   1       0.308  84.660 111.111  0.00  0.00    -0.368 OA
BRANCH   7   8
ATOM      8  C   LIG d   1       1.404  84.701 110.165  0.00  0.00     0.119 C 
BRANCH   8   9
ATOM      9  C   LIG d   1       2.255  83.436 110.386  0.00  0.00     0.028 C 
ATOM     10  C   LIG d   1       3.751  83.755 110.545  0.00  0.00     0.006 C 
ENDBRANCH   8   9
BRANCH   8  11
ATOM     11  C   LIG d   1       2.343  85.877 110.451  0.00  0.00     0.028 C 
ATOM     12  C   LIG d   1       1.597  87.134 110.923  0.00  0.00     0.006 C 
ENDBRANCH   8  11
ENDBRANCH   7   8
ENDBRANCH   1   7
BRANCH   6  13
ATOM     13  N   LIG d   1       1.775  84.355 113.726  0.00  0.00    -0.311 N 
ATOM     14  C   LIG d   1       2.134  85.555 114.179  0.00  0.00     0.210 C 
ATOM     15  C   LIG d   1       3.642  85.751 114.365  0.00  0.00     0.109 C 
ATOM     16  O   LIG d   1       1.345  86.465 114.476  0.00  0.00    -0.276 OA
ATOM     17  H   LIG d   1       2.478  83.666 113.543  0.00  0.00     0.149 HD
ENDBRANCH   6  13
BRANCH   5  18
ATOM     18  N   LIG d   1      -0.175  83.313 115.835  0.00  0.00     0.381 N 
ATOM     19  H   LIG d   1      -1.125  83.391 116.141  0.00  0.00    -0.090 HD
ATOM     20  H   LIG d   1       0.253  84.219 115.903  0.00  0.00    -0.090 HD
ATOM     21  H   LIG d   1       0.314  82.662 116.409  0.00  0.00    -0.090 HD
ENDBRANCH   5  18
BRANCH   3  22
ATOM     22  C   LIG d   1      -2.648  81.226 112.304  0.00  0.00     0.382 C 
ATOM     23  O   LIG d   1      -2.299  80.109 111.851  0.00  0.00    -0.241 OA
ATOM     24  O   LIG d   1      -3.859  81.507 112.378  0.00  0.00    -0.241 OA
ENDBRANCH   3  22
TORSDOF 7
ENDMDL
MODEL 2
REMARK VINA RESULT:      -5.5      9.146     11.754
REMARK  7 active torsions:
REMARK  status: ('A' for Active; 'I' for Inactive)
REMARK    1  A    between atoms: C_2  and  C_3 
REMARK    2  A    between atoms: C_3  and  O_6 
REMARK    3  A    between atoms: C_3  and  C_4 
REMARK    4  A    between atoms: C_7  and  O_6 
REMARK    5  A    between atoms: C_9  and  C_10 
REMARK    6  A    between atoms: N_15  and  C_14 
REMARK    7  A    between atoms: N_20  and  C_19 
REMARK       I    between atoms: C_22  and  N_20 
ROOT
ATOM      1  C   LIG d   1      -5.984  74.681 116.492  0.00  0.00     0.161 C 
ATOM      2  C   LIG d   1      -6.633  73.504 116.087  0.00  0.00     0.016 C 
ATOM      3  C   LIG d   1      -8.017  73.275 116.269  0.00  0.00     0.038 C 
ATOM      4  C   LIG d   1      -8.878  74.279 116.737  0.00  0.00     0.028 C 
ATOM      5  C   LIG d   1      -8.186  75.305 117.628  0.00  0.00    -0.047 C 
ATOM      6  C   LIG d   1      -6.927  75.832 116.902  0.00  0.00     0.091 C 
ENDROOT
BRANCH   1   7
ATOM      7  O   LIG d   1      -5.078  75.120 115.460  0.00  0.00    -0.368 OA
BRANCH   7   8
ATOM      8  C   LIG d   1      -3.727  74.602 115.535  0.00  0.00     0.119 C 
BRANCH   8   9
ATOM      9  C   LIG d   1      -3.098  75.138 116.836  0.00  0.00     0.028 C 
ATOM     10  C   LIG d   1      -1.940  74.256 117.334  0.00  0.00     0.006 C 
ENDBRANCH   8   9
BRANCH   8  11
ATOM     11  C   LIG d   1      -2.855  75.156 114.405  0.00  0.00     0.028 C 
ATOM     12  C   LIG d   1      -3.357  76.506 113.871  0.00  0.00     0.006 C 
ENDBRANCH   8  11
ENDBRANCH   7   8
ENDBRANCH   1   7
BRANCH   6  13
ATOM     13  N   LIG d   1      -6.144  76.778 117.740  0.00  0.00    -0.311 N 
ATOM     14  C   LIG d   1      -5.648  77.925 117.280  0.00  0.00     0.210 C 
ATOM     15  C   LIG d   1      -4.855  78.743 118.305  0.00  0.00     0.109 C 
ATOM     16  O   LIG d   1      -5.816  78.359 116.131  0.00  0.00    -0.276 OA
ATOM     17  H   LIG d   1      -5.987  76.519 118.694  0.00  0.00     0.149 HD
ENDBRANCH   6  13
BRANCH   5  18
ATOM     18  N   LIG d   1      -9.165  76.366 117.930  0.00  0.00     0.381 N 
ATOM     19  H   LIG d   1      -8.749  77.051 118.528  0.00  0.00    -0.090 HD
ATOM     20  H   LIG d   1      -9.947  75.959 118.414  0.00  0.00    -0.090 HD
ATOM     21  H   LIG d   1      -9.475  76.795 117.086  0.00  0.00    -0.090 HD
ENDBRANCH   5  18
BRANCH   3  22
ATOM     22  C   LIG d   1      -8.544  72.018 116.020  0.00  0.00     0.382 C 
ATOM     23  O   LIG d   1      -7.786  71.072 115.699  0.00  0.00    -0.241 OA
ATOM     24  O   LIG d   1      -9.775  71.828 116.070  0.00  0.00    -0.241 OA
ENDBRANCH   3  22
TORSDOF 7
ENDMDL
MODEL 3
REMARK VINA RESULT:      -5.3      2.129      4.094
REMARK  7 active torsions:
REMARK  status: ('A' for Active; 'I' for Inactive)
REMARK    1  A    between atoms: C_2  and  C_3 
REMARK    2  A    between atoms: C_3  and  O_6 
REMARK    3  A    between atoms: C_3  and  C_4 
REMARK    4  A    between atoms: C_7  and  O_6 
REMARK    5  A    between atoms: C_9  and  C_10 
REMARK    6  A    between atoms: N_15  and  C_14 
REMARK    7  A    between atoms: N_20  and  C_19 
REMARK       I    between atoms: C_22  and  N_20 
ROOT
ATOM      1  C   LIG d   1      -1.012  82.881 112.063  0.00  0.00     0.161 C 
ATOM      2  C   LIG d   1      -1.852  81.790 112.341  0.00  0.00     0.016 C 
ATOM      3  C   LIG d   1      -1.423  80.443 112.285  0.00  0.00     0.038 C 
ATOM      4  C   LIG d   1      -0.076  80.102 112.095  0.00  0.00     0.028 C 
ATOM      5  C   LIG d   1       0.709  81.149 111.311  0.00  0.00    -0.047 C 
ATOM      6  C   LIG d   1       0.488  82.533 111.962  0.00  0.00     0.091 C 
ENDROOT
BRANCH   1   7
ATOM      7  O   LIG d   1      -1.221  83.919 113.041  0.00  0.00    -0.368 OA
BRANCH   7   8
ATOM      8  C   LIG d   1      -1.237  83.496 114.427  0.00  0.00     0.119 C 
BRANCH   8   9
ATOM      9  C   LIG d   1      -2.548  84.009 115.053  0.00  0.00     0.028 C 
ATOM     10  C   LIG d   1      -3.459  82.864 115.527  0.00  0.00     0.006 C 
ENDBRANCH   8   9
BRANCH   8  11
ATOM     11  C   LIG d   1      -0.116  84.166 115.227  0.00  0.00     0.028 C 
ATOM     12  C   LIG d   1      -0.026  85.679 114.974  0.00  0.00     0.006 C 
ENDBRANCH   8  11
ENDBRANCH   7   8
ENDBRANCH   1   7
BRANCH   6  13
ATOM     13  N   LIG d   1       1.153  83.627 111.208  0.00  0.00    -0.311 N 
ATOM     14  C   LIG d   1       2.096  84.410 111.731  0.00  0.00     0.210 C 
ATOM     15  C   LIG d   1       2.636  85.489 110.788  0.00  0.00     0.109 C 
ATOM     16  O   LIG d   1       2.558  84.293 112.876  0.00  0.00    -0.276 OA
ATOM     17  H   LIG d   1       0.861  83.772 110.262  0.00  0.00     0.149 HD
ENDBRANCH   6  13
BRANCH   5  18
ATOM     18  N   LIG d   1       2.124  80.732 111.306  0.00  0.00     0.381 N 
ATOM     19  H   LIG d   1       2.334  80.256 110.451  0.00  0.00    -0.090 HD
ATOM     20  H   LIG d   1       2.279  80.096 112.068  0.00  0.00    -0.090 HD
ATOM     21  H   LIG d   1       2.715  81.529 111.404  0.00  0.00    -0.090 HD
ENDBRANCH   5  18
BRANCH   3  22
ATOM     22  C   LIG d   1      -2.355  79.421 112.382  0.00  0.00     0.382 C 
ATOM     23  O   LIG d   1      -3.556  79.688 112.626  0.00  0.00    -0.241 OA
ATOM     24  O   LIG d   1      -2.001  78.232 112.272  0.00  0.00    -0.241 OA
ENDBRANCH   3  22
TORSDOF 7
ENDMDL
MODEL 4
REMARK VINA RESULT:      -4.9      2.375      6.447
REMARK  7 active torsions:
REMARK  status: ('A' for Active; 'I' for Inactive)
REMARK    1  A    between atoms: C_2  and  C_3 
REMARK    2  A    between atoms: C_3  and  O_6 
REMARK    3  A    between atoms: C_3  and  C_4 
REMARK    4  A    between atoms: C_7  and  O_6 
REMARK    5  A    between atoms: C_9  and  C_10 
REMARK    6  A    between atoms: N_15  and  C_14 
REMARK    7  A    between atoms: N_20  and  C_19 
REMARK       I    between atoms: C_22  and  N_20 
ROOT
ATOM      1  C   LIG d   1      -0.445  82.760 114.062  0.00  0.00     0.161 C 
ATOM      2  C   LIG d   1       0.362  83.904 114.177  0.00  0.00     0.016 C 
ATOM      3  C   LIG d   1       0.760  84.690 113.071  0.00  0.00     0.038 C 
ATOM      4  C   LIG d   1       0.249  84.470 111.783  0.00  0.00     0.028 C 
ATOM      5  C   LIG d   1      -0.167  83.025 111.536  0.00  0.00    -0.047 C 
ATOM      6  C   LIG d   1      -1.103  82.569 112.679  0.00  0.00     0.091 C 
ENDROOT
BRANCH   1   7
ATOM      7  O   LIG d   1      -1.448  82.764 115.097  0.00  0.00    -0.368 OA
BRANCH   7   8
ATOM      8  C   LIG d   1      -1.396  81.664 116.039  0.00  0.00     0.119 C 
BRANCH   8   9
ATOM      9  C   LIG d   1      -2.805  81.045 116.106  0.00  0.00     0.028 C 
ATOM     10  C   LIG d   1      -3.915  82.109 116.107  0.00  0.00     0.006 C 
ENDBRANCH   8   9
BRANCH   8  11
ATOM     11  C   LIG d   1      -1.102  82.159 117.458  0.00  0.00     0.028 C 
ATOM     12  C   LIG d   1       0.381  82.501 117.676  0.00  0.00     0.006 C 
ENDBRANCH   8  11
ENDBRANCH   7   8
ENDBRANCH   1   7
BRANCH   6  13
ATOM     13  N   LIG d   1      -1.490  81.139 112.559  0.00  0.00    -0.311 N 
ATOM     14  C   LIG d   1      -2.752  80.728 112.455  0.00  0.00     0.210 C 
ATOM     15  C   LIG d   1      -2.932  79.210 112.362  0.00  0.00     0.109 C 
ATOM     16  O   LIG d   1      -3.738  81.478 112.398  0.00  0.00    -0.276 OA
ATOM     17  H   LIG d   1      -0.750  80.464 112.565  0.00  0.00     0.149 HD
ENDBRANCH   6  13
BRANCH   5  18
ATOM     18  N   LIG d   1      -0.807  82.966 110.208  0.00  0.00     0.381 N 
ATOM     19  H   LIG d   1      -0.213  82.480 109.567  0.00  0.00    -0.090 HD
ATOM     20  H   LIG d   1      -0.937  83.903 109.868  0.00  0.00    -0.090 HD
ATOM     21  H   LIG d   1      -1.687  82.503 110.273  0.00  0.00    -0.090 HD
ENDBRANCH   5  18
BRANCH   3  22
ATOM     22  C   LIG d   1       1.710  85.686 113.242  0.00  0.00     0.382 C 
ATOM     23  O   LIG d   1       2.693  85.754 112.465  0.00  0.00    -0.241 OA
ATOM     24  O   LIG d   1       1.621  86.489 114.190  0.00  0.00    -0.241 OA
ENDBRANCH   3  22
TORSDOF 7
ENDMDL
MODEL 5
REMARK VINA RESULT:      -4.8      2.973      6.093
REMARK  7 active torsions:
REMARK  status: ('A' for Active; 'I' for Inactive)
REMARK    1  A    between atoms: C_2  and  C_3 
REMARK    2  A    between atoms: C_3  and  O_6 
REMARK    3  A    between atoms: C_3  and  C_4 
REMARK    4  A    between atoms: C_7  and  O_6 
REMARK    5  A    between atoms: C_9  and  C_10 
REMARK    6  A    between atoms: N_15  and  C_14 
REMARK    7  A    between atoms: N_20  and  C_19 
REMARK       I    between atoms: C_22  and  N_20 
ROOT
ATOM      1  C   LIG d   1       0.290  81.120 113.611  0.00  0.00     0.161 C 
ATOM      2  C   LIG d   1       1.000  82.217 113.095  0.00  0.00     0.016 C 
ATOM      3  C   LIG d   1       1.239  82.410 111.715  0.00  0.00     0.038 C 
ATOM      4  C   LIG d   1       0.650  81.592 110.739  0.00  0.00     0.028 C 
ATOM      5  C   LIG d   1       0.344  80.183 111.235  0.00  0.00    -0.047 C 
ATOM      6  C   LIG d   1      -0.455  80.277 112.555  0.00  0.00     0.091 C 
ENDROOT
BRANCH   1   7
ATOM      7  O   LIG d   1      -0.625  81.566 114.632  0.00  0.00    -0.368 OA
BRANCH   7   8
ATOM      8  C   LIG d   1      -0.442  82.925 115.102  0.00  0.00     0.119 C 
BRANCH   8   9
ATOM      9  C   LIG d   1      -0.130  82.856 116.609  0.00  0.00     0.028 C 
ATOM     10  C   LIG d   1       1.230  83.485 116.956  0.00  0.00     0.006 C 
ENDBRANCH   8   9
BRANCH   8  11
ATOM     11  C   LIG d   1      -1.740  83.731 114.993  0.00  0.00     0.028 C 
ATOM     12  C   LIG d   1      -1.509  85.168 114.501  0.00  0.00     0.006 C 
ENDBRANCH   8  11
ENDBRANCH   7   8
ENDBRANCH   1   7
BRANCH   6  13
ATOM     13  N   LIG d   1      -0.723  78.943 113.152  0.00  0.00    -0.311 N 
ATOM     14  C   LIG d   1      -1.947  78.441 113.305  0.00  0.00     0.210 C 
ATOM     15  C   LIG d   1      -2.001  77.058 113.961  0.00  0.00     0.109 C 
ATOM     16  O   LIG d   1      -2.991  78.996 112.931  0.00  0.00    -0.276 OA
ATOM     17  H   LIG d   1       0.069  78.411 113.454  0.00  0.00     0.149 HD
ENDBRANCH   6  13
BRANCH   5  18
ATOM     18  N   LIG d   1      -0.391  79.484 110.164  0.00  0.00     0.381 N 
ATOM     19  H   LIG d   1      -1.351  79.380 110.423  0.00  0.00    -0.090 HD
ATOM     20  H   LIG d   1       0.004  78.568 110.043  0.00  0.00    -0.090 HD
ATOM     21  H   LIG d   1      -0.323  79.997 109.312  0.00  0.00    -0.090 HD
ENDBRANCH   5  18
BRANCH   3  22
ATOM     22  C   LIG d   1       2.108  83.408 111.301  0.00  0.00     0.382 C 
ATOM     23  O   LIG d   1       1.654  84.484 110.843  0.00  0.00    -0.241 OA
ATOM     24  O   LIG d   1       3.340  83.228 111.339  0.00  0.00    -0.241 OA
ENDBRANCH   3  22
TORSDOF 7
ENDMDL
MODEL 6
REMARK VINA RESULT:      -4.8     23.361     26.371
REMARK  7 active torsions:
REMARK  status: ('A' for Active; 'I' for Inactive)
REMARK    1  A    between atoms: C_2  and  C_3 
REMARK    2  A    between atoms: C_3  and  O_6 
REMARK    3  A    between atoms: C_3  and  C_4 
REMARK    4  A    between atoms: C_7  and  O_6 
REMARK    5  A    between atoms: C_9  and  C_10 
REMARK    6  A    between atoms: N_15  and  C_14 
REMARK    7  A    between atoms: N_20  and  C_19 
REMARK       I    between atoms: C_22  and  N_20 
ROOT
ATOM      1  C   LIG d   1     -25.412  85.888 113.731  0.00  0.00     0.161 C 
ATOM      2  C   LIG d   1     -24.428  86.848 114.019  0.00  0.00     0.016 C 
ATOM      3  C   LIG d   1     -23.084  86.521 114.313  0.00  0.00     0.038 C 
ATOM      4  C   LIG d   1     -22.596  85.211 114.190  0.00  0.00     0.028 C 
ATOM      5  C   LIG d   1     -23.666  84.144 114.394  0.00  0.00    -0.047 C 
ATOM      6  C   LIG d   1     -24.874  84.464 113.483  0.00  0.00     0.091 C 
ENDROOT
BRANCH   1   7
ATOM      7  O   LIG d   1     -26.208  86.325 112.612  0.00  0.00    -0.368 OA
BRANCH   7   8
ATOM      8  C   LIG d   1     -27.431  87.030 112.936  0.00  0.00     0.119 C 
BRANCH   8   9
ATOM      9  C   LIG d   1     -28.604  86.064 112.681  0.00  0.00     0.028 C 
ATOM     10  C   LIG d   1     -29.581  86.594 111.618  0.00  0.00     0.006 C 
ENDBRANCH   8   9
BRANCH   8  11
ATOM     11  C   LIG d   1     -27.663  88.209 111.986  0.00  0.00     0.028 C 
ATOM     12  C   LIG d   1     -26.553  89.269 112.069  0.00  0.00     0.006 C 
ENDBRANCH   8  11
ENDBRANCH   7   8
ENDBRANCH   1   7
BRANCH   6  13
ATOM     13  N   LIG d   1     -26.001  83.516 113.683  0.00  0.00    -0.311 N 
ATOM     14  C   LIG d   1     -26.684  82.967 112.679  0.00  0.00     0.210 C 
ATOM     15  C   LIG d   1     -27.820  82.033 113.106  0.00  0.00     0.109 C 
ATOM     16  O   LIG d   1     -26.436  83.141 111.477  0.00  0.00    -0.276 OA
ATOM     17  H   LIG d   1     -26.249  83.295 114.627  0.00  0.00     0.149 HD
ENDBRANCH   6  13
BRANCH   5  18
ATOM     18  N   LIG d   1     -23.052  82.835 114.102  0.00  0.00     0.381 N 
ATOM     19  H   LIG d   1     -23.554  82.112 114.578  0.00  0.00    -0.090 HD
ATOM     20  H   LIG d   1     -22.106  82.838 114.440  0.00  0.00    -0.090 HD
ATOM     21  H   LIG d   1     -23.062  82.665 113.121  0.00  0.00    -0.090 HD
ENDBRANCH   5  18
BRANCH   3  22
ATOM     22  C   LIG d   1     -22.222  87.504 114.774  0.00  0.00     0.382 C 
ATOM     23  O   LIG d   1     -22.616  88.331 115.632  0.00  0.00    -0.241 OA
ATOM     24  O   LIG d   1     -21.070  87.602 114.311  0.00  0.00    -0.241 OA
ENDBRANCH   3  22
TORSDOF 7
ENDMDL
MODEL 7
REMARK VINA RESULT:      -4.5     10.977     13.475
REMARK  7 active torsions:
REMARK  status: ('A' for Active; 'I' for Inactive)
REMARK    1  A    between atoms: C_2  and  C_3 
REMARK    2  A    between atoms: C_3  and  O_6 
REMARK    3  A    between atoms: C_3  and  C_4 
REMARK    4  A    between atoms: C_7  and  O_6 
REMARK    5  A    between atoms: C_9  and  C_10 
REMARK    6  A    between atoms: N_15  and  C_14 
REMARK    7  A    between atoms: N_20  and  C_19 
REMARK       I    between atoms: C_22  and  N_20 
ROOT
ATOM      1  C   LIG d   1      12.876  80.151 114.906  0.00  0.00     0.161 C 
ATOM      2  C   LIG d   1      11.878  80.825 115.631  0.00  0.00     0.016 C 
ATOM      3  C   LIG d   1      10.859  81.593 115.024  0.00  0.00     0.038 C 
ATOM      4  C   LIG d   1      10.678  81.617 113.633  0.00  0.00     0.028 C 
ATOM      5  C   LIG d   1      11.961  81.363 112.850  0.00  0.00    -0.047 C 
ATOM      6  C   LIG d   1      12.628  80.075 113.385  0.00  0.00     0.091 C 
ENDROOT
BRANCH   1   7
ATOM      7  O   LIG d   1      13.068  78.830 115.450  0.00  0.00    -0.368 OA
BRANCH   7   8
ATOM      8  C   LIG d   1      12.252  77.780 114.875  0.00  0.00     0.119 C 
BRANCH   8   9
ATOM      9  C   LIG d   1      11.189  77.394 115.922  0.00  0.00     0.028 C 
ATOM     10  C   LIG d   1       9.762  77.748 115.468  0.00  0.00     0.006 C 
ENDBRANCH   8   9
BRANCH   8  11
ATOM     11  C   LIG d   1      13.068  76.506 114.639  0.00  0.00     0.028 C 
ATOM     12  C   LIG d   1      14.584  76.758 114.659  0.00  0.00     0.006 C 
ENDBRANCH   8  11
ENDBRANCH   7   8
ENDBRANCH   1   7
BRANCH   6  13
ATOM     13  N   LIG d   1      13.934  79.799 112.731  0.00  0.00    -0.311 N 
ATOM     14  C   LIG d   1      14.072  78.988 111.683  0.00  0.00     0.210 C 
ATOM     15  C   LIG d   1      15.508  78.827 111.175  0.00  0.00     0.109 C 
ATOM     16  O   LIG d   1      13.138  78.411 111.107  0.00  0.00    -0.276 OA
ATOM     17  H   LIG d   1      14.741  80.250 113.115  0.00  0.00     0.149 HD
ENDBRANCH   6  13
BRANCH   5  18
ATOM     18  N   LIG d   1      11.603  81.278 111.422  0.00  0.00     0.381 N 
ATOM     19  H   LIG d   1      12.273  81.780 110.874  0.00  0.00    -0.090 HD
ATOM     20  H   LIG d   1      10.703  81.704 111.286  0.00  0.00    -0.090 HD
ATOM     21  H   LIG d   1      11.575  80.325 111.133  0.00  0.00    -0.090 HD
ENDBRANCH   5  18
BRANCH   3  22
ATOM     22  C   LIG d   1      10.031  82.381 115.809  0.00  0.00     0.382 C 
ATOM     23  O   LIG d   1       9.065  82.989 115.288  0.00  0.00    -0.241 OA
ATOM     24  O   LIG d   1      10.265  82.527 117.024  0.00  0.00    -0.241 OA
ENDBRANCH   3  22
TORSDOF 7
ENDMDL
MODEL 8
REMARK VINA RESULT:      -4.2      2.629      6.430
REMARK  7 active torsions:
REMARK  status: ('A' for Active; 'I' for Inactive)
REMARK    1  A    between atoms: C_2  and  C_3 
REMARK    2  A    between atoms: C_3  and  O_6 
REMARK    3  A    between atoms: C_3  and  C_4 
REMARK    4  A    between atoms: C_7  and  O_6 
REMARK    5  A    between atoms: C_9  and  C_10 
REMARK    6  A    between atoms: N_15  and  C_14 
REMARK    7  A    between atoms: N_20  and  C_19 
REMARK       I    between atoms: C_22  and  N_20 
ROOT
ATOM      1  C   LIG d   1       0.283  82.523 114.970  0.00  0.00     0.161 C 
ATOM      2  C   LIG d   1       0.671  83.676 115.673  0.00  0.00     0.016 C 
ATOM      3  C   LIG d   1       0.617  84.977 115.123  0.00  0.00     0.038 C 
ATOM      4  C   LIG d   1       0.026  85.232 113.877  0.00  0.00     0.028 C 
ATOM      5  C   LIG d   1       0.083  84.042 112.925  0.00  0.00    -0.047 C 
ATOM      6  C   LIG d   1      -0.469  82.793 113.650  0.00  0.00     0.091 C 
ENDROOT
BRANCH   1   7
ATOM      7  O   LIG d   1      -0.500  81.668 115.827  0.00  0.00    -0.368 OA
BRANCH   7   8
ATOM      8  C   LIG d   1      -1.420  82.337 116.725  0.00  0.00     0.119 C 
BRANCH   8   9
ATOM      9  C   LIG d   1      -1.238  81.713 118.122  0.00  0.00     0.028 C 
ATOM     10  C   LIG d   1      -0.408  80.419 118.084  0.00  0.00     0.006 C 
ENDBRANCH   8   9
BRANCH   8  11
ATOM     11  C   LIG d   1      -2.876  82.056 116.342  0.00  0.00     0.028 C 
ATOM     12  C   LIG d   1      -3.458  83.119 115.397  0.00  0.00     0.006 C 
ENDBRANCH   8  11
ENDBRANCH   7   8
ENDBRANCH   1   7
BRANCH   6  13
ATOM     13  N   LIG d   1      -0.371  81.565 112.818  0.00  0.00    -0.311 N 
ATOM     14  C   LIG d   1      -1.359  81.126 112.040  0.00  0.00     0.210 C 
ATOM     15  C   LIG d   1      -1.057  79.830 111.281  0.00  0.00     0.109 C 
ATOM     16  O   LIG d   1      -2.444  81.705 111.881  0.00  0.00    -0.276 OA
ATOM     17  H   LIG d   1       0.487  81.051 112.862  0.00  0.00     0.149 HD
ENDBRANCH   6  13
BRANCH   5  18
ATOM     18  N   LIG d   1      -0.689  84.398 111.719  0.00  0.00     0.381 N 
ATOM     19  H   LIG d   1      -0.609  83.670 111.038  0.00  0.00    -0.090 HD
ATOM     20  H   LIG d   1      -0.307  85.241 111.327  0.00  0.00    -0.090 HD
ATOM     21  H   LIG d   1      -1.646  84.537 111.956  0.00  0.00    -0.090 HD
ENDBRANCH   5  18
BRANCH   3  22
ATOM     22  C   LIG d   1       1.196  86.036 115.806  0.00  0.00     0.382 C 
ATOM     23  O   LIG d   1       0.631  87.157 115.820  0.00  0.00    -0.241 OA
ATOM     24  O   LIG d   1       2.297  85.897 116.372  0.00  0.00    -0.241 OA
ENDBRANCH   3  22
TORSDOF 7
ENDMDL
MODEL 9
REMARK VINA RESULT:      -4.2     24.402     27.292
REMARK  7 active torsions:
REMARK  status: ('A' for Active; 'I' for Inactive)
REMARK    1  A    between atoms: C_2  and  C_3 
REMARK    2  A    between atoms: C_3  and  O_6 
REMARK    3  A    between atoms: C_3  and  C_4 
REMARK    4  A    between atoms: C_7  and  O_6 
REMARK    5  A    between atoms: C_9  and  C_10 
REMARK    6  A    between atoms: N_15  and  C_14 
REMARK    7  A    between atoms: N_20  and  C_19 
REMARK       I    between atoms: C_22  and  N_20 
ROOT
ATOM      1  C   LIG d   1     -26.692  85.773 114.415  0.00  0.00     0.161 C 
ATOM      2  C   LIG d   1     -25.794  86.784 114.795  0.00  0.00     0.016 C 
ATOM      3  C   LIG d   1     -24.444  86.823 114.374  0.00  0.00     0.038 C 
ATOM      4  C   LIG d   1     -23.939  85.930 113.417  0.00  0.00     0.028 C 
ATOM      5  C   LIG d   1     -24.670  84.592 113.392  0.00  0.00    -0.047 C 
ATOM      6  C   LIG d   1     -26.190  84.852 113.283  0.00  0.00     0.091 C 
ENDROOT
BRANCH   1   7
ATOM      7  O   LIG d   1     -27.962  86.355 114.061  0.00  0.00    -0.368 OA
BRANCH   7   8
ATOM      8  C   LIG d   1     -28.143  86.687 112.662  0.00  0.00     0.119 C 
BRANCH   8   9
ATOM      9  C   LIG d   1     -27.942  88.208 112.517  0.00  0.00     0.028 C 
ATOM     10  C   LIG d   1     -26.630  88.560 111.797  0.00  0.00     0.006 C 
ENDBRANCH   8   9
BRANCH   8  11
ATOM     11  C   LIG d   1     -29.582  86.422 112.209  0.00  0.00     0.028 C 
ATOM     12  C   LIG d   1     -29.675  85.340 111.122  0.00  0.00     0.006 C 
ENDBRANCH   8  11
ENDBRANCH   7   8
ENDBRANCH   1   7
BRANCH   6  13
ATOM     13  N   LIG d   1     -26.985  83.598 113.337  0.00  0.00    -0.311 N 
ATOM     14  C   LIG d   1     -27.260  82.858 112.265  0.00  0.00     0.210 C 
ATOM     15  C   LIG d   1     -28.112  81.614 112.539  0.00  0.00     0.109 C 
ATOM     16  O   LIG d   1     -26.853  83.096 111.118  0.00  0.00    -0.276 OA
ATOM     17  H   LIG d   1     -27.329  83.314 114.234  0.00  0.00     0.149 HD
ENDBRANCH   6  13
BRANCH   5  18
ATOM     18  N   LIG d   1     -24.134  83.813 112.261  0.00  0.00     0.381 N 
ATOM     19  H   LIG d   1     -24.694  82.997 112.116  0.00  0.00    -0.090 HD
ATOM     20  H   LIG d   1     -23.199  83.518 112.482  0.00  0.00    -0.090 HD
ATOM     21  H   LIG d   1     -24.128  84.371 111.435  0.00  0.00    -0.090 HD
ENDBRANCH   5  18
BRANCH   3  22
ATOM     22  C   LIG d   1     -23.574  87.740 114.944  0.00  0.00     0.382 C 
ATOM     23  O   LIG d   1     -22.363  87.447 115.091  0.00  0.00    -0.241 OA
ATOM     24  O   LIG d   1     -23.993  88.840 115.353  0.00  0.00    -0.241 OA
ENDBRANCH   3  22
TORSDOF 7
ENDMDL
