MODEL 1
REMARK VINA RESULT:      -5.9      0.000      0.000
REMARK  7 active torsions:
REMARK  status: ('A' for Active; 'I' for Inactive)
REMARK    1  A    between atoms: C_2  and  C_3 
REMARK    2  A    between atoms: C_3  and  O_6 
REMARK    3  A    between atoms: C_3  and  C_4 
REMARK    4  A    between atoms: C_7  and  O_6 
REMARK    5  A    between atoms: C_9  and  C_10 
REMARK    6  A    between atoms: N_15  and  C_14 
REMARK    7  A    between atoms: N_20  and  C_19 
REMARK       I    between atoms: C_22  and  N_20 
ROOT
ATOM      1  C   LIG d   1      -3.077  77.797 115.240  0.00  0.00     0.161 C 
ATOM      2  C   LIG d   1      -3.212  78.857 114.328  0.00  0.00     0.016 C 
ATOM      3  C   LIG d   1      -2.241  79.168 113.348  0.00  0.00     0.038 C 
ATOM      4  C   LIG d   1      -1.133  78.341 113.113  0.00  0.00     0.028 C 
ATOM      5  C   LIG d   1      -0.698  77.548 114.341  0.00  0.00    -0.047 C 
ATOM      6  C   LIG d   1      -1.927  76.817 114.927  0.00  0.00     0.091 C 
ENDROOT
BRANCH   1   7
ATOM      7  O   LIG d   1      -4.326  77.086 115.350  0.00  0.00    -0.368 OA
BRANCH   7   8
ATOM      8  C   LIG d   1      -4.943  77.080 116.661  0.00  0.00     0.119 C 
BRANCH   8   9
ATOM      9  C   LIG d   1      -6.465  76.960 116.456  0.00  0.00     0.028 C 
ATOM     10  C   LIG d   1      -6.830  75.971 115.336  0.00  0.00     0.006 C 
ENDBRANCH   8   9
BRANCH   8  11
ATOM     11  C   LIG d   1      -4.734  78.415 117.381  0.00  0.00     0.028 C 
ATOM     12  C   LIG d   1      -5.967  79.330 117.307  0.00  0.00     0.006 C 
ENDBRANCH   8  11
ENDBRANCH   7   8
ENDBRANCH   1   7
BRANCH   6  13
ATOM     13  N   LIG d   1      -1.607  76.084 116.180  0.00  0.00    -0.311 N 
ATOM     14  C   LIG d   1      -1.243  74.803 116.208  0.00  0.00     0.210 C 
ATOM     15  C   LIG d   1      -0.978  74.237 117.606  0.00  0.00     0.109 C 
ATOM     16  O   LIG d   1      -1.083  74.092 115.205  0.00  0.00    -0.276 OA
ATOM     17  H   LIG d   1      -1.681  76.595 117.038  0.00  0.00     0.149 HD
ENDBRANCH   6  13
BRANCH   5  18
ATOM     18  N   LIG d   1       0.376  76.629 113.921  0.00  0.00     0.381 N 
ATOM     19  H   LIG d   1       1.228  76.868 114.387  0.00  0.00    -0.090 HD
ATOM     20  H   LIG d   1       0.519  76.727 112.931  0.00  0.00    -0.090 HD
ATOM     21  H   LIG d   1       0.124  75.689 114.135  0.00  0.00    -0.090 HD
ENDBRANCH   5  18
BRANCH   3  22
ATOM     22  C   LIG d   1      -2.355  80.340 112.616  0.00  0.00     0.382 C 
ATOM     23  O   LIG d   1      -3.410  81.017 112.676  0.00  0.00    -0.241 OA
ATOM     24  O   LIG d   1      -1.433  80.707 111.863  0.00  0.00    -0.241 OA
ENDBRANCH   3  22
TORSDOF 7
ENDMDL
MODEL 2
REMARK VINA RESULT:      -5.6      7.203     10.165
REMARK  7 active torsions:
REMARK  status: ('A' for Active; 'I' for Inactive)
REMARK    1  A    between atoms: C_2  and  C_3 
REMARK    2  A    between atoms: C_3  and  O_6 
REMARK    3  A    between atoms: C_3  and  C_4 
REMARK    4  A    between atoms: C_7  and  O_6 
REMARK    5  A    between atoms: C_9  and  C_10 
REMARK    6  A    between atoms: N_15  and  C_14 
REMARK    7  A    between atoms: N_20  and  C_19 
REMARK       I    between atoms: C_22  and  N_20 
ROOT
ATOM      1  C   LIG d   1       1.905  84.267 113.326  0.00  0.00     0.161 C 
ATOM      2  C   LIG d   1       1.104  83.186 112.921  0.00  0.00     0.016 C 
ATOM      3  C   LIG d   1      -0.010  83.321 112.062  0.00  0.00     0.038 C 
ATOM      4  C   LIG d   1      -0.311  84.534 111.424  0.00  0.00     0.028 C 
ATOM      5  C   LIG d   1       0.166  85.759 112.196  0.00  0.00    -0.047 C 
ATOM      6  C   LIG d   1       1.659  85.579 112.552  0.00  0.00     0.091 C 
ENDROOT
BRANCH   1   7
ATOM      7  O   LIG d   1       3.296  83.897 113.256  0.00  0.00    -0.368 OA
BRANCH   7   8
ATOM      8  C   LIG d   1       3.577  82.555 112.790  0.00  0.00     0.119 C 
BRANCH   8   9
ATOM      9  C   LIG d   1       4.495  81.885 113.830  0.00  0.00     0.028 C 
ATOM     10  C   LIG d   1       3.842  81.799 115.220  0.00  0.00     0.006 C 
ENDBRANCH   8   9
BRANCH   8  11
ATOM     11  C   LIG d   1       4.385  82.574 111.489  0.00  0.00     0.028 C 
ATOM     12  C   LIG d   1       3.829  81.611 110.428  0.00  0.00     0.006 C 
ENDBRANCH   8  11
ENDBRANCH   7   8
ENDBRANCH   1   7
BRANCH   6  13
ATOM     13  N   LIG d   1       2.183  86.695 113.381  0.00  0.00    -0.311 N 
ATOM     14  C   LIG d   1       3.132  87.534 112.966  0.00  0.00     0.210 C 
ATOM     15  C   LIG d   1       3.541  88.601 113.985  0.00  0.00     0.109 C 
ATOM     16  O   LIG d   1       3.649  87.514 111.839  0.00  0.00    -0.276 OA
ATOM     17  H   LIG d   1       1.796  86.803 114.298  0.00  0.00     0.149 HD
ENDBRANCH   6  13
BRANCH   5  18
ATOM     18  N   LIG d   1      -0.089  86.944 111.354  0.00  0.00     0.381 N 
ATOM     19  H   LIG d   1      -0.976  86.852 110.900  0.00  0.00    -0.090 HD
ATOM     20  H   LIG d   1       0.623  87.000 110.648  0.00  0.00    -0.090 HD
ATOM     21  H   LIG d   1      -0.079  87.768 111.913  0.00  0.00    -0.090 HD
ENDBRANCH   5  18
BRANCH   3  22
ATOM     22  C   LIG d   1      -0.861  82.245 111.865  0.00  0.00     0.382 C 
ATOM     23  O   LIG d   1      -0.546  81.335 111.060  0.00  0.00    -0.241 OA
ATOM     24  O   LIG d   1      -1.960  82.193 112.449  0.00  0.00    -0.241 OA
ENDBRANCH   3  22
TORSDOF 7
ENDMDL
MODEL 3
REMARK VINA RESULT:      -5.1      8.856     11.248
REMARK  7 active torsions:
REMARK  status: ('A' for Active; 'I' for Inactive)
REMARK    1  A    between atoms: C_2  and  C_3 
REMARK    2  A    between atoms: C_3  and  O_6 
REMARK    3  A    between atoms: C_3  and  C_4 
REMARK    4  A    between atoms: C_7  and  O_6 
REMARK    5  A    between atoms: C_9  and  C_10 
REMARK    6  A    between atoms: N_15  and  C_14 
REMARK    7  A    between atoms: N_20  and  C_19 
REMARK       I    between atoms: C_22  and  N_20 
ROOT
ATOM      1  C   LIG d   1       2.762  86.176 114.263  0.00  0.00     0.161 C 
ATOM      2  C   LIG d   1       3.164  87.481 113.933  0.00  0.00     0.016 C 
ATOM      3  C   LIG d   1       4.274  88.127 114.523  0.00  0.00     0.038 C 
ATOM      4  C   LIG d   1       5.155  87.451 115.380  0.00  0.00     0.028 C 
ATOM      5  C   LIG d   1       4.503  86.294 116.130  0.00  0.00    -0.047 C 
ATOM      6  C   LIG d   1       3.777  85.383 115.114  0.00  0.00     0.091 C 
ENDROOT
BRANCH   1   7
ATOM      7  O   LIG d   1       2.437  85.447 113.063  0.00  0.00    -0.368 OA
BRANCH   7   8
ATOM      8  C   LIG d   1       3.557  84.903 112.324  0.00  0.00     0.119 C 
BRANCH   8   9
ATOM      9  C   LIG d   1       3.520  85.516 110.910  0.00  0.00     0.028 C 
ATOM     10  C   LIG d   1       2.094  85.889 110.470  0.00  0.00     0.006 C 
ENDBRANCH   8   9
BRANCH   8  11
ATOM     11  C   LIG d   1       3.408  83.393 112.115  0.00  0.00     0.028 C 
ATOM     12  C   LIG d   1       4.746  82.643 112.211  0.00  0.00     0.006 C 
ENDBRANCH   8  11
ENDBRANCH   7   8
ENDBRANCH   1   7
BRANCH   6  13
ATOM     13  N   LIG d   1       3.041  84.273 115.773  0.00  0.00    -0.311 N 
ATOM     14  C   LIG d   1       3.563  83.064 115.972  0.00  0.00     0.210 C 
ATOM     15  C   LIG d   1       2.627  82.059 116.651  0.00  0.00     0.109 C 
ATOM     16  O   LIG d   1       4.723  82.738 115.681  0.00  0.00    -0.276 OA
ATOM     17  H   LIG d   1       2.103  84.460 116.069  0.00  0.00     0.149 HD
ENDBRANCH   6  13
BRANCH   5  18
ATOM     18  N   LIG d   1       5.563  85.594 116.879  0.00  0.00     0.381 N 
ATOM     19  H   LIG d   1       6.386  86.163 116.914  0.00  0.00    -0.090 HD
ATOM     20  H   LIG d   1       5.790  84.740 116.400  0.00  0.00    -0.090 HD
ATOM     21  H   LIG d   1       5.251  85.392 117.803  0.00  0.00    -0.090 HD
ENDBRANCH   5  18
BRANCH   3  22
ATOM     22  C   LIG d   1       4.489  89.476 114.288  0.00  0.00     0.382 C 
ATOM     23  O   LIG d   1       4.740  89.878 113.127  0.00  0.00    -0.241 OA
ATOM     24  O   LIG d   1       4.480  90.291 115.231  0.00  0.00    -0.241 OA
ENDBRANCH   3  22
TORSDOF 7
ENDMDL
MODEL 4
REMARK VINA RESULT:      -4.9     12.113     14.032
REMARK  7 active torsions:
REMARK  status: ('A' for Active; 'I' for Inactive)
REMARK    1  A    between atoms: C_2  and  C_3 
REMARK    2  A    between atoms: C_3  and  O_6 
REMARK    3  A    between atoms: C_3  and  C_4 
REMARK    4  A    between atoms: C_7  and  O_6 
REMARK    5  A    between atoms: C_9  and  C_10 
REMARK    6  A    between atoms: N_15  and  C_14 
REMARK    7  A    between atoms: N_20  and  C_19 
REMARK       I    between atoms: C_22  and  N_20 
ROOT
ATOM      1  C   LIG d   1      11.402  78.402 115.960  0.00  0.00     0.161 C 
ATOM      2  C   LIG d   1      11.584  79.697 115.447  0.00  0.00     0.016 C 
ATOM      3  C   LIG d   1      12.157  79.959 114.182  0.00  0.00     0.038 C 
ATOM      4  C   LIG d   1      12.450  78.932 113.273  0.00  0.00     0.028 C 
ATOM      5  C   LIG d   1      12.751  77.596 113.945  0.00  0.00    -0.047 C 
ATOM      6  C   LIG d   1      11.613  77.266 114.937  0.00  0.00     0.091 C 
ENDROOT
BRANCH   1   7
ATOM      7  O   LIG d   1      10.099  78.295 116.566  0.00  0.00    -0.368 OA
BRANCH   7   8
ATOM      8  C   LIG d   1       9.107  79.251 116.117  0.00  0.00     0.119 C 
BRANCH   8   9
ATOM      9  C   LIG d   1       8.379  79.785 117.366  0.00  0.00     0.028 C 
ATOM     10  C   LIG d   1       8.849  81.196 117.759  0.00  0.00     0.006 C 
ENDBRANCH   8   9
BRANCH   8  11
ATOM     11  C   LIG d   1       8.022  78.573 115.274  0.00  0.00     0.028 C 
ATOM     12  C   LIG d   1       6.699  79.355 115.266  0.00  0.00     0.006 C 
ENDBRANCH   8  11
ENDBRANCH   7   8
ENDBRANCH   1   7
BRANCH   6  13
ATOM     13  N   LIG d   1      11.871  76.016 115.700  0.00  0.00    -0.311 N 
ATOM     14  C   LIG d   1      11.427  74.820 115.318  0.00  0.00     0.210 C 
ATOM     15  C   LIG d   1      11.788  73.666 116.259  0.00  0.00     0.109 C 
ATOM     16  O   LIG d   1      10.797  74.600 114.272  0.00  0.00    -0.276 OA
ATOM     17  H   LIG d   1      12.401  76.099 116.545  0.00  0.00     0.149 HD
ENDBRANCH   6  13
BRANCH   5  18
ATOM     18  N   LIG d   1      12.902  76.586 112.881  0.00  0.00     0.381 N 
ATOM     19  H   LIG d   1      12.123  75.959 112.896  0.00  0.00    -0.090 HD
ATOM     20  H   LIG d   1      13.737  76.054 113.054  0.00  0.00    -0.090 HD
ATOM     21  H   LIG d   1      12.962  77.033 111.993  0.00  0.00    -0.090 HD
ENDBRANCH   5  18
BRANCH   3  22
ATOM     22  C   LIG d   1      12.480  81.261 113.830  0.00  0.00     0.382 C 
ATOM     23  O   LIG d   1      12.194  81.691 112.686  0.00  0.00    -0.241 OA
ATOM     24  O   LIG d   1      13.092  81.998 114.626  0.00  0.00    -0.241 OA
ENDBRANCH   3  22
TORSDOF 7
ENDMDL
MODEL 5
REMARK VINA RESULT:      -4.9      2.654      5.243
REMARK  7 active torsions:
REMARK  status: ('A' for Active; 'I' for Inactive)
REMARK    1  A    between atoms: C_2  and  C_3 
REMARK    2  A    between atoms: C_3  and  O_6 
REMARK    3  A    between atoms: C_3  and  C_4 
REMARK    4  A    between atoms: C_7  and  O_6 
REMARK    5  A    between atoms: C_9  and  C_10 
REMARK    6  A    between atoms: N_15  and  C_14 
REMARK    7  A    between atoms: N_20  and  C_19 
REMARK       I    between atoms: C_22  and  N_20 
ROOT
ATOM      1  C   LIG d   1      -1.036  76.840 114.942  0.00  0.00     0.161 C 
ATOM      2  C   LIG d   1      -2.356  76.453 114.655  0.00  0.00     0.016 C 
ATOM      3  C   LIG d   1      -3.465  76.820 115.451  0.00  0.00     0.038 C 
ATOM      4  C   LIG d   1      -3.348  77.731 116.511  0.00  0.00     0.028 C 
ATOM      5  C   LIG d   1      -1.961  77.749 117.144  0.00  0.00    -0.047 C 
ATOM      6  C   LIG d   1      -0.903  77.926 116.031  0.00  0.00     0.091 C 
ENDROOT
BRANCH   1   7
ATOM      7  O   LIG d   1      -0.376  77.261 113.732  0.00  0.00    -0.368 OA
BRANCH   7   8
ATOM      8  C   LIG d   1      -1.224  77.434 112.570  0.00  0.00     0.119 C 
BRANCH   8   9
ATOM      9  C   LIG d   1      -0.557  76.693 111.396  0.00  0.00     0.028 C 
ATOM     10  C   LIG d   1       0.417  75.601 111.868  0.00  0.00     0.006 C 
ENDBRANCH   8   9
BRANCH   8  11
ATOM     11  C   LIG d   1      -1.287  78.902 112.140  0.00  0.00     0.028 C 
ATOM     12  C   LIG d   1      -2.455  79.663 112.789  0.00  0.00     0.006 C 
ENDBRANCH   8  11
ENDBRANCH   7   8
ENDBRANCH   1   7
BRANCH   6  13
ATOM     13  N   LIG d   1       0.486  77.869 116.555  0.00  0.00    -0.311 N 
ATOM     14  C   LIG d   1       1.126  78.926 117.052  0.00  0.00     0.210 C 
ATOM     15  C   LIG d   1       2.559  78.654 117.519  0.00  0.00     0.109 C 
ATOM     16  O   LIG d   1       0.632  80.057 117.179  0.00  0.00    -0.276 OA
ATOM     17  H   LIG d   1       0.952  76.983 116.519  0.00  0.00     0.149 HD
ENDBRANCH   6  13
BRANCH   5  18
ATOM     18  N   LIG d   1      -1.940  78.837 118.140  0.00  0.00     0.381 N 
ATOM     19  H   LIG d   1      -2.794  79.355 118.094  0.00  0.00    -0.090 HD
ATOM     20  H   LIG d   1      -1.181  79.459 117.925  0.00  0.00    -0.090 HD
ATOM     21  H   LIG d   1      -1.821  78.459 119.055  0.00  0.00    -0.090 HD
ENDBRANCH   5  18
BRANCH   3  22
ATOM     22  C   LIG d   1      -4.703  76.242 115.213  0.00  0.00     0.382 C 
ATOM     23  O   LIG d   1      -4.784  75.192 114.530  0.00  0.00    -0.241 OA
ATOM     24  O   LIG d   1      -5.744  76.781 115.635  0.00  0.00    -0.241 OA
ENDBRANCH   3  22
TORSDOF 7
ENDMDL
MODEL 6
REMARK VINA RESULT:      -4.7      2.509      5.211
REMARK  7 active torsions:
REMARK  status: ('A' for Active; 'I' for Inactive)
REMARK    1  A    between atoms: C_2  and  C_3 
REMARK    2  A    between atoms: C_3  and  O_6 
REMARK    3  A    between atoms: C_3  and  C_4 
REMARK    4  A    between atoms: C_7  and  O_6 
REMARK    5  A    between atoms: C_9  and  C_10 
REMARK    6  A    between atoms: N_15  and  C_14 
REMARK    7  A    between atoms: N_20  and  C_19 
REMARK       I    between atoms: C_22  and  N_20 
ROOT
ATOM      1  C   LIG d   1      -3.181  75.912 115.696  0.00  0.00     0.161 C 
ATOM      2  C   LIG d   1      -4.545  75.803 115.377  0.00  0.00     0.016 C 
ATOM      3  C   LIG d   1      -5.550  76.600 115.971  0.00  0.00     0.038 C 
ATOM      4  C   LIG d   1      -5.239  77.672 116.821  0.00  0.00     0.028 C 
ATOM      5  C   LIG d   1      -3.918  77.495 117.561  0.00  0.00    -0.047 C 
ATOM      6  C   LIG d   1      -2.812  77.151 116.539  0.00  0.00     0.091 C 
ENDROOT
BRANCH   1   7
ATOM      7  O   LIG d   1      -2.392  75.872 114.491  0.00  0.00    -0.368 OA
BRANCH   7   8
ATOM      8  C   LIG d   1      -1.965  77.153 113.966  0.00  0.00     0.119 C 
BRANCH   8   9
ATOM      9  C   LIG d   1      -2.807  77.442 112.708  0.00  0.00     0.028 C 
ATOM     10  C   LIG d   1      -2.351  78.716 111.977  0.00  0.00     0.006 C 
ENDBRANCH   8   9
BRANCH   8  11
ATOM     11  C   LIG d   1      -0.514  77.099 113.479  0.00  0.00     0.028 C 
ATOM     12  C   LIG d   1       0.286  75.951 114.115  0.00  0.00     0.006 C 
ENDBRANCH   8  11
ENDBRANCH   7   8
ENDBRANCH   1   7
BRANCH   6  13
ATOM     13  N   LIG d   1      -1.503  76.878 117.189  0.00  0.00    -0.311 N 
ATOM     14  C   LIG d   1      -0.541  77.791 117.310  0.00  0.00     0.210 C 
ATOM     15  C   LIG d   1       0.737  77.296 117.995  0.00  0.00     0.109 C 
ATOM     16  O   LIG d   1      -0.636  78.972 116.943  0.00  0.00    -0.276 OA
ATOM     17  H   LIG d   1      -1.353  75.954 117.543  0.00  0.00     0.149 HD
ENDBRANCH   6  13
BRANCH   5  18
ATOM     18  N   LIG d   1      -3.652  78.743 118.303  0.00  0.00     0.381 N 
ATOM     19  H   LIG d   1      -3.595  79.511 117.664  0.00  0.00    -0.090 HD
ATOM     20  H   LIG d   1      -2.769  78.659 118.774  0.00  0.00    -0.090 HD
ATOM     21  H   LIG d   1      -4.377  78.906 118.967  0.00  0.00    -0.090 HD
ENDBRANCH   5  18
BRANCH   3  22
ATOM     22  C   LIG d   1      -6.885  76.302 115.748  0.00  0.00     0.382 C 
ATOM     23  O   LIG d   1      -7.294  76.091 114.580  0.00  0.00    -0.241 OA
ATOM     24  O   LIG d   1      -7.696  76.286 116.693  0.00  0.00    -0.241 OA
ENDBRANCH   3  22
TORSDOF 7
ENDMDL
MODEL 7
REMARK VINA RESULT:      -4.6      8.002     10.999
REMARK  7 active torsions:
REMARK  status: ('A' for Active; 'I' for Inactive)
REMARK    1  A    between atoms: C_2  and  C_3 
REMARK    2  A    between atoms: C_3  and  O_6 
REMARK    3  A    between atoms: C_3  and  C_4 
REMARK    4  A    between atoms: C_7  and  O_6 
REMARK    5  A    between atoms: C_9  and  C_10 
REMARK    6  A    between atoms: N_15  and  C_14 
REMARK    7  A    between atoms: N_20  and  C_19 
REMARK       I    between atoms: C_22  and  N_20 
ROOT
ATOM      1  C   LIG d   1       3.473  84.282 114.075  0.00  0.00     0.161 C 
ATOM      2  C   LIG d   1       3.049  83.112 114.727  0.00  0.00     0.016 C 
ATOM      3  C   LIG d   1       2.398  83.113 115.982  0.00  0.00     0.038 C 
ATOM      4  C   LIG d   1       1.990  84.302 116.605  0.00  0.00     0.028 C 
ATOM      5  C   LIG d   1       2.844  85.508 116.227  0.00  0.00    -0.047 C 
ATOM      6  C   LIG d   1       2.937  85.594 114.686  0.00  0.00     0.091 C 
ENDROOT
BRANCH   1   7
ATOM      7  O   LIG d   1       3.140  84.209 112.674  0.00  0.00    -0.368 OA
BRANCH   7   8
ATOM      8  C   LIG d   1       4.257  84.120 111.757  0.00  0.00     0.119 C 
BRANCH   8   9
ATOM      9  C   LIG d   1       3.837  84.811 110.446  0.00  0.00     0.028 C 
ATOM     10  C   LIG d   1       2.484  85.533 110.571  0.00  0.00     0.006 C 
ENDBRANCH   8   9
BRANCH   8  11
ATOM     11  C   LIG d   1       4.549  82.666 111.373  0.00  0.00     0.028 C 
ATOM     12  C   LIG d   1       3.275  81.869 111.049  0.00  0.00     0.006 C 
ENDBRANCH   8  11
ENDBRANCH   7   8
ENDBRANCH   1   7
BRANCH   6  13
ATOM     13  N   LIG d   1       3.824  86.697 114.232  0.00  0.00    -0.311 N 
ATOM     14  C   LIG d   1       3.401  87.719 113.491  0.00  0.00     0.210 C 
ATOM     15  C   LIG d   1       4.483  88.737 113.116  0.00  0.00     0.109 C 
ATOM     16  O   LIG d   1       2.227  87.897 113.135  0.00  0.00    -0.276 OA
ATOM     17  H   LIG d   1       4.787  86.648 114.503  0.00  0.00     0.149 HD
ENDBRANCH   6  13
BRANCH   5  18
ATOM     18  N   LIG d   1       2.225  86.700 116.836  0.00  0.00     0.381 N 
ATOM     19  H   LIG d   1       1.501  86.421 117.467  0.00  0.00    -0.090 HD
ATOM     20  H   LIG d   1       1.812  87.259 116.110  0.00  0.00    -0.090 HD
ATOM     21  H   LIG d   1       2.914  87.231 117.322  0.00  0.00    -0.090 HD
ENDBRANCH   5  18
BRANCH   3  22
ATOM     22  C   LIG d   1       2.186  81.915 116.647  0.00  0.00     0.382 C 
ATOM     23  O   LIG d   1       1.219  81.800 117.438  0.00  0.00    -0.241 OA
ATOM     24  O   LIG d   1       2.974  80.962 116.499  0.00  0.00    -0.241 OA
ENDBRANCH   3  22
TORSDOF 7
ENDMDL
MODEL 8
REMARK VINA RESULT:      -4.6      2.601      5.708
REMARK  7 active torsions:
REMARK  status: ('A' for Active; 'I' for Inactive)
REMARK    1  A    between atoms: C_2  and  C_3 
REMARK    2  A    between atoms: C_3  and  O_6 
REMARK    3  A    between atoms: C_3  and  C_4 
REMARK    4  A    between atoms: C_7  and  O_6 
REMARK    5  A    between atoms: C_9  and  C_10 
REMARK    6  A    between atoms: N_15  and  C_14 
REMARK    7  A    between atoms: N_20  and  C_19 
REMARK       I    between atoms: C_22  and  N_20 
ROOT
ATOM      1  C   LIG d   1      -1.408  78.872 114.708  0.00  0.00     0.161 C 
ATOM      2  C   LIG d   1      -2.356  77.943 115.169  0.00  0.00     0.016 C 
ATOM      3  C   LIG d   1      -3.177  77.178 114.310  0.00  0.00     0.038 C 
ATOM      4  C   LIG d   1      -2.999  77.180 112.918  0.00  0.00     0.028 C 
ATOM      5  C   LIG d   1      -2.399  78.477 112.386  0.00  0.00    -0.047 C 
ATOM      6  C   LIG d   1      -1.123  78.807 113.193  0.00  0.00     0.091 C 
ENDROOT
BRANCH   1   7
ATOM      7  O   LIG d   1      -0.183  78.733 115.455  0.00  0.00    -0.368 OA
BRANCH   7   8
ATOM      8  C   LIG d   1      -0.315  78.229 116.807  0.00  0.00     0.119 C 
BRANCH   8   9
ATOM      9  C   LIG d   1       0.140  79.348 117.764  0.00  0.00     0.028 C 
ATOM     10  C   LIG d   1       1.574  79.821 117.474  0.00  0.00     0.006 C 
ENDBRANCH   8   9
BRANCH   8  11
ATOM     11  C   LIG d   1       0.643  77.062 117.063  0.00  0.00     0.028 C 
ATOM     12  C   LIG d   1      -0.082  75.713 117.187  0.00  0.00     0.006 C 
ENDBRANCH   8  11
ENDBRANCH   7   8
ENDBRANCH   1   7
BRANCH   6  13
ATOM     13  N   LIG d   1      -0.519  80.105 112.793  0.00  0.00    -0.311 N 
ATOM     14  C   LIG d   1      -1.238  81.175 112.456  0.00  0.00     0.210 C 
ATOM     15  C   LIG d   1      -0.417  82.405 112.057  0.00  0.00     0.109 C 
ATOM     16  O   LIG d   1      -2.477  81.231 112.481  0.00  0.00    -0.276 OA
ATOM     17  H   LIG d   1       0.480  80.157 112.775  0.00  0.00     0.149 HD
ENDBRANCH   6  13
BRANCH   5  18
ATOM     18  N   LIG d   1      -2.141  78.291 110.946  0.00  0.00     0.381 N 
ATOM     19  H   LIG d   1      -1.583  77.472 110.805  0.00  0.00    -0.090 HD
ATOM     20  H   LIG d   1      -1.629  79.084 110.602  0.00  0.00    -0.090 HD
ATOM     21  H   LIG d   1      -3.003  78.203 110.453  0.00  0.00    -0.090 HD
ENDBRANCH   5  18
BRANCH   3  22
ATOM     22  C   LIG d   1      -4.216  76.428 114.840  0.00  0.00     0.382 C 
ATOM     23  O   LIG d   1      -5.060  76.971 115.593  0.00  0.00    -0.241 OA
ATOM     24  O   LIG d   1      -4.296  75.207 114.610  0.00  0.00    -0.241 OA
ENDBRANCH   3  22
TORSDOF 7
ENDMDL
MODEL 9
REMARK VINA RESULT:      -4.6     14.228     16.595
REMARK  7 active torsions:
REMARK  status: ('A' for Active; 'I' for Inactive)
REMARK    1  A    between atoms: C_2  and  C_3 
REMARK    2  A    between atoms: C_3  and  O_6 
REMARK    3  A    between atoms: C_3  and  C_4 
REMARK    4  A    between atoms: C_7  and  O_6 
REMARK    5  A    between atoms: C_9  and  C_10 
REMARK    6  A    between atoms: N_15  and  C_14 
REMARK    7  A    between atoms: N_20  and  C_19 
REMARK       I    between atoms: C_22  and  N_20 
ROOT
ATOM      1  C   LIG d   1      13.002  77.380 113.249  0.00  0.00     0.161 C 
ATOM      2  C   LIG d   1      13.239  78.739 112.986  0.00  0.00     0.016 C 
ATOM      3  C   LIG d   1      12.475  79.787 113.550  0.00  0.00     0.038 C 
ATOM      4  C   LIG d   1      11.511  79.550 114.541  0.00  0.00     0.028 C 
ATOM      5  C   LIG d   1      10.893  78.158 114.465  0.00  0.00    -0.047 C 
ATOM      6  C   LIG d   1      12.026  77.108 114.414  0.00  0.00     0.091 C 
ENDROOT
BRANCH   1   7
ATOM      7  O   LIG d   1      14.252  76.700 113.474  0.00  0.00    -0.368 OA
BRANCH   7   8
ATOM      8  C   LIG d   1      15.452  77.484 113.259  0.00  0.00     0.119 C 
BRANCH   8   9
ATOM      9  C   LIG d   1      16.301  76.750 112.203  0.00  0.00     0.028 C 
ATOM     10  C   LIG d   1      16.198  77.400 110.813  0.00  0.00     0.006 C 
ENDBRANCH   8   9
BRANCH   8  11
ATOM     11  C   LIG d   1      16.322  77.529 114.519  0.00  0.00     0.028 C 
ATOM     12  C   LIG d   1      15.732  76.713 115.680  0.00  0.00     0.006 C 
ENDBRANCH   8  11
ENDBRANCH   7   8
ENDBRANCH   1   7
BRANCH   6  13
ATOM     13  N   LIG d   1      11.510  75.724 114.254  0.00  0.00    -0.311 N 
ATOM     14  C   LIG d   1      11.681  74.767 115.165  0.00  0.00     0.210 C 
ATOM     15  C   LIG d   1      11.086  73.406 114.792  0.00  0.00     0.109 C 
ATOM     16  O   LIG d   1      12.242  74.926 116.259  0.00  0.00    -0.276 OA
ATOM     17  H   LIG d   1      11.015  75.516 113.408  0.00  0.00     0.149 HD
ENDBRANCH   6  13
BRANCH   5  18
ATOM     18  N   LIG d   1      10.009  77.998 115.635  0.00  0.00     0.381 N 
ATOM     19  H   LIG d   1      10.331  77.239 116.201  0.00  0.00    -0.090 HD
ATOM     20  H   LIG d   1       9.082  77.782 115.315  0.00  0.00    -0.090 HD
ATOM     21  H   LIG d   1       9.996  78.839 116.170  0.00  0.00    -0.090 HD
ENDBRANCH   5  18
BRANCH   3  22
ATOM     22  C   LIG d   1      12.645  81.085 113.093  0.00  0.00     0.382 C 
ATOM     23  O   LIG d   1      11.867  81.552 112.226  0.00  0.00    -0.241 OA
ATOM     24  O   LIG d   1      13.594  81.780 113.504  0.00  0.00    -0.241 OA
ENDBRANCH   3  22
TORSDOF 7
ENDMDL
