MODEL 1
REMARK VINA RESULT:      -5.6      0.000      0.000
REMARK  7 active torsions:
REMARK  status: ('A' for Active; 'I' for Inactive)
REMARK    1  A    between atoms: C_2  and  C_3 
REMARK    2  A    between atoms: C_3  and  O_6 
REMARK    3  A    between atoms: C_3  and  C_4 
REMARK    4  A    between atoms: C_7  and  O_6 
REMARK    5  A    between atoms: C_9  and  C_10 
REMARK    6  A    between atoms: N_15  and  C_14 
REMARK    7  A    between atoms: N_20  and  C_19 
REMARK       I    between atoms: C_22  and  N_20 
ROOT
ATOM      1  C   LIG d   1       1.535  83.809 113.363  0.00  0.00     0.161 C 
ATOM      2  C   LIG d   1       2.088  85.099 113.308  0.00  0.00     0.016 C 
ATOM      3  C   LIG d   1       1.769  86.039 112.300  0.00  0.00     0.038 C 
ATOM      4  C   LIG d   1       0.755  85.803 111.360  0.00  0.00     0.028 C 
ATOM      5  C   LIG d   1       0.529  84.323 111.072  0.00  0.00    -0.047 C 
ATOM      6  C   LIG d   1       0.344  83.574 112.411  0.00  0.00     0.091 C 
ENDROOT
BRANCH   1   7
ATOM      7  O   LIG d   1       1.161  83.496 114.720  0.00  0.00    -0.368 OA
BRANCH   7   8
ATOM      8  C   LIG d   1       1.882  84.203 115.759  0.00  0.00     0.119 C 
BRANCH   8   9
ATOM      9  C   LIG d   1       2.842  83.196 116.423  0.00  0.00     0.028 C 
ATOM     10  C   LIG d   1       4.313  83.466 116.066  0.00  0.00     0.006 C 
ENDBRANCH   8   9
BRANCH   8  11
ATOM     11  C   LIG d   1       0.941  84.663 116.876  0.00  0.00     0.028 C 
ATOM     12  C   LIG d   1       0.640  83.554 117.897  0.00  0.00     0.006 C 
ENDBRANCH   8  11
ENDBRANCH   7   8
ENDBRANCH   1   7
BRANCH   6  13
ATOM     13  N   LIG d   1       0.201  82.106 112.224  0.00  0.00    -0.311 N 
ATOM     14  C   LIG d   1      -0.976  81.487 112.158  0.00  0.00     0.210 C 
ATOM     15  C   LIG d   1      -0.899  79.967 111.982  0.00  0.00     0.109 C 
ATOM     16  O   LIG d   1      -2.078  82.056 112.196  0.00  0.00    -0.276 OA
ATOM     17  H   LIG d   1       1.044  81.571 112.153  0.00  0.00     0.149 HD
ENDBRANCH   6  13
BRANCH   5  18
ATOM     18  N   LIG d   1      -0.644  84.216 110.183  0.00  0.00     0.381 N 
ATOM     19  H   LIG d   1      -1.174  83.402 110.419  0.00  0.00    -0.090 HD
ATOM     20  H   LIG d   1      -0.325  84.122 109.235  0.00  0.00    -0.090 HD
ATOM     21  H   LIG d   1      -1.213  85.029 110.270  0.00  0.00    -0.090 HD
ENDBRANCH   5  18
BRANCH   3  22
ATOM     22  C   LIG d   1       2.497  87.215 112.203  0.00  0.00     0.382 C 
ATOM     23  O   LIG d   1       1.953  88.313 112.471  0.00  0.00    -0.241 OA
ATOM     24  O   LIG d   1       3.678  87.196 111.807  0.00  0.00    -0.241 OA
ENDBRANCH   3  22
TORSDOF 7
ENDMDL
MODEL 2
REMARK VINA RESULT:      -5.5      2.535      4.718
REMARK  7 active torsions:
REMARK  status: ('A' for Active; 'I' for Inactive)
REMARK    1  A    between atoms: C_2  and  C_3 
REMARK    2  A    between atoms: C_3  and  O_6 
REMARK    3  A    between atoms: C_3  and  C_4 
REMARK    4  A    between atoms: C_7  and  O_6 
REMARK    5  A    between atoms: C_9  and  C_10 
REMARK    6  A    between atoms: N_15  and  C_14 
REMARK    7  A    between atoms: N_20  and  C_19 
REMARK       I    between atoms: C_22  and  N_20 
ROOT
ATOM      1  C   LIG d   1       1.015  84.592 113.753  0.00  0.00     0.161 C 
ATOM      2  C   LIG d   1       1.276  85.862 113.212  0.00  0.00     0.016 C 
ATOM      3  C   LIG d   1       2.490  86.559 113.413  0.00  0.00     0.038 C 
ATOM      4  C   LIG d   1       3.591  85.963 114.046  0.00  0.00     0.028 C 
ATOM      5  C   LIG d   1       3.201  84.879 115.045  0.00  0.00    -0.047 C 
ATOM      6  C   LIG d   1       2.245  83.880 114.354  0.00  0.00     0.091 C 
ENDROOT
BRANCH   1   7
ATOM      7  O   LIG d   1       0.389  83.757 112.759  0.00  0.00    -0.368 OA
BRANCH   7   8
ATOM      8  C   LIG d   1       0.743  84.031 111.381  0.00  0.00     0.119 C 
BRANCH   8   9
ATOM      9  C   LIG d   1      -0.564  84.070 110.566  0.00  0.00     0.028 C 
ATOM     10  C   LIG d   1      -0.896  85.482 110.056  0.00  0.00     0.006 C 
ENDBRANCH   8   9
BRANCH   8  11
ATOM     11  C   LIG d   1       1.564  82.887 110.778  0.00  0.00     0.028 C 
ATOM     12  C   LIG d   1       3.072  83.183 110.755  0.00  0.00     0.006 C 
ENDBRANCH   8  11
ENDBRANCH   7   8
ENDBRANCH   1   7
BRANCH   6  13
ATOM     13  N   LIG d   1       1.749  82.833 115.285  0.00  0.00    -0.311 N 
ATOM     14  C   LIG d   1       2.337  81.648 115.436  0.00  0.00     0.210 C 
ATOM     15  C   LIG d   1       1.651  80.708 116.433  0.00  0.00     0.109 C 
ATOM     16  O   LIG d   1       3.380  81.298 114.864  0.00  0.00    -0.276 OA
ATOM     17  H   LIG d   1       0.925  83.046 115.812  0.00  0.00     0.149 HD
ENDBRANCH   6  13
BRANCH   5  18
ATOM     18  N   LIG d   1       4.445  84.250 115.528  0.00  0.00     0.381 N 
ATOM     19  H   LIG d   1       4.333  83.965 116.480  0.00  0.00    -0.090 HD
ATOM     20  H   LIG d   1       5.188  84.924 115.486  0.00  0.00    -0.090 HD
ATOM     21  H   LIG d   1       4.670  83.461 114.962  0.00  0.00    -0.090 HD
ENDBRANCH   5  18
BRANCH   3  22
ATOM     22  C   LIG d   1       2.598  87.882 113.011  0.00  0.00     0.382 C 
ATOM     23  O   LIG d   1       1.695  88.400 112.311  0.00  0.00    -0.241 OA
ATOM     24  O   LIG d   1       3.607  88.550 113.303  0.00  0.00    -0.241 OA
ENDBRANCH   3  22
TORSDOF 7
ENDMDL
MODEL 3
REMARK VINA RESULT:      -5.3      1.338      1.659
REMARK  7 active torsions:
REMARK  status: ('A' for Active; 'I' for Inactive)
REMARK    1  A    between atoms: C_2  and  C_3 
REMARK    2  A    between atoms: C_3  and  O_6 
REMARK    3  A    between atoms: C_3  and  C_4 
REMARK    4  A    between atoms: C_7  and  O_6 
REMARK    5  A    between atoms: C_9  and  C_10 
REMARK    6  A    between atoms: N_15  and  C_14 
REMARK    7  A    between atoms: N_20  and  C_19 
REMARK       I    between atoms: C_22  and  N_20 
ROOT
ATOM      1  C   LIG d   1       1.872  84.784 113.705  0.00  0.00     0.161 C 
ATOM      2  C   LIG d   1       2.409  86.022 114.096  0.00  0.00     0.016 C 
ATOM      3  C   LIG d   1       2.449  87.155 113.250  0.00  0.00     0.038 C 
ATOM      4  C   LIG d   1       1.815  87.169 111.999  0.00  0.00     0.028 C 
ATOM      5  C   LIG d   1       1.703  85.788 111.361  0.00  0.00    -0.047 C 
ATOM      6  C   LIG d   1       1.076  84.812 112.383  0.00  0.00     0.091 C 
ENDROOT
BRANCH   1   7
ATOM      7  O   LIG d   1       1.061  84.246 114.767  0.00  0.00    -0.368 OA
BRANCH   7   8
ATOM      8  C   LIG d   1       1.667  84.223 116.083  0.00  0.00     0.119 C 
BRANCH   8   9
ATOM      9  C   LIG d   1       1.891  82.747 116.464  0.00  0.00     0.028 C 
ATOM     10  C   LIG d   1       3.319  82.269 116.151  0.00  0.00     0.006 C 
ENDBRANCH   8   9
BRANCH   8  11
ATOM     11  C   LIG d   1       0.713  84.776 117.146  0.00  0.00     0.028 C 
ATOM     12  C   LIG d   1       0.325  83.729 118.201  0.00  0.00     0.006 C 
ENDBRANCH   8  11
ENDBRANCH   7   8
ENDBRANCH   1   7
BRANCH   6  13
ATOM     13  N   LIG d   1       1.008  83.420 111.869  0.00  0.00    -0.311 N 
ATOM     14  C   LIG d   1      -0.118  82.709 111.824  0.00  0.00     0.210 C 
ATOM     15  C   LIG d   1       0.036  81.287 111.277  0.00  0.00     0.109 C 
ATOM     16  O   LIG d   1      -1.236  83.133 112.156  0.00  0.00    -0.276 OA
ATOM     17  H   LIG d   1       1.863  83.008 111.551  0.00  0.00     0.149 HD
ENDBRANCH   6  13
BRANCH   5  18
ATOM     18  N   LIG d   1       0.902  85.929 110.130  0.00  0.00     0.381 N 
ATOM     19  H   LIG d   1       1.500  85.889 109.330  0.00  0.00    -0.090 HD
ATOM     20  H   LIG d   1       0.447  86.825 110.139  0.00  0.00    -0.090 HD
ATOM     21  H   LIG d   1       0.220  85.204 110.082  0.00  0.00    -0.090 HD
ENDBRANCH   5  18
BRANCH   3  22
ATOM     22  C   LIG d   1       3.165  88.277 113.638  0.00  0.00     0.382 C 
ATOM     23  O   LIG d   1       4.198  88.610 113.010  0.00  0.00    -0.241 OA
ATOM     24  O   LIG d   1       2.815  88.935 114.636  0.00  0.00    -0.241 OA
ENDBRANCH   3  22
TORSDOF 7
ENDMDL
MODEL 4
REMARK VINA RESULT:      -5.2     25.050     27.129
REMARK  7 active torsions:
REMARK  status: ('A' for Active; 'I' for Inactive)
REMARK    1  A    between atoms: C_2  and  C_3 
REMARK    2  A    between atoms: C_3  and  O_6 
REMARK    3  A    between atoms: C_3  and  C_4 
REMARK    4  A    between atoms: C_7  and  O_6 
REMARK    5  A    between atoms: C_9  and  C_10 
REMARK    6  A    between atoms: N_15  and  C_14 
REMARK    7  A    between atoms: N_20  and  C_19 
REMARK       I    between atoms: C_22  and  N_20 
ROOT
ATOM      1  C   LIG d   1     -25.914  85.836 113.800  0.00  0.00     0.161 C 
ATOM      2  C   LIG d   1     -24.728  86.588 113.761  0.00  0.00     0.016 C 
ATOM      3  C   LIG d   1     -23.485  86.061 113.343  0.00  0.00     0.038 C 
ATOM      4  C   LIG d   1     -23.373  84.778 112.787  0.00  0.00     0.028 C 
ATOM      5  C   LIG d   1     -24.446  83.811 113.276  0.00  0.00    -0.047 C 
ATOM      6  C   LIG d   1     -25.834  84.467 113.092  0.00  0.00     0.091 C 
ENDROOT
BRANCH   1   7
ATOM      7  O   LIG d   1     -27.004  86.613 113.265  0.00  0.00    -0.368 OA
BRANCH   7   8
ATOM      8  C   LIG d   1     -26.715  87.377 112.069  0.00  0.00     0.119 C 
BRANCH   8   9
ATOM      9  C   LIG d   1     -27.260  88.802 112.287  0.00  0.00     0.028 C 
ATOM     10  C   LIG d   1     -27.194  89.657 111.010  0.00  0.00     0.006 C 
ENDBRANCH   8   9
BRANCH   8  11
ATOM     11  C   LIG d   1     -27.480  86.831 110.860  0.00  0.00     0.028 C 
ATOM     12  C   LIG d   1     -28.700  85.985 111.259  0.00  0.00     0.006 C 
ENDBRANCH   8  11
ENDBRANCH   7   8
ENDBRANCH   1   7
BRANCH   6  13
ATOM     13  N   LIG d   1     -26.935  83.621 113.623  0.00  0.00    -0.311 N 
ATOM     14  C   LIG d   1     -27.638  82.777 112.871  0.00  0.00     0.210 C 
ATOM     15  C   LIG d   1     -28.742  82.016 113.612  0.00  0.00     0.109 C 
ATOM     16  O   LIG d   1     -27.432  82.562 111.667  0.00  0.00    -0.276 OA
ATOM     17  H   LIG d   1     -27.149  83.709 114.597  0.00  0.00     0.149 HD
ENDBRANCH   6  13
BRANCH   5  18
ATOM     18  N   LIG d   1     -24.295  82.556 112.515  0.00  0.00     0.381 N 
ATOM     19  H   LIG d   1     -25.031  81.923 112.756  0.00  0.00    -0.090 HD
ATOM     20  H   LIG d   1     -23.419  82.130 112.762  0.00  0.00    -0.090 HD
ATOM     21  H   LIG d   1     -24.316  82.745 111.537  0.00  0.00    -0.090 HD
ENDBRANCH   5  18
BRANCH   3  22
ATOM     22  C   LIG d   1     -22.329  86.807 113.516  0.00  0.00     0.382 C 
ATOM     23  O   LIG d   1     -22.357  87.857 114.202  0.00  0.00    -0.241 OA
ATOM     24  O   LIG d   1     -21.268  86.467 112.958  0.00  0.00    -0.241 OA
ENDBRANCH   3  22
TORSDOF 7
ENDMDL
MODEL 5
REMARK VINA RESULT:      -4.9      2.543      4.742
REMARK  7 active torsions:
REMARK  status: ('A' for Active; 'I' for Inactive)
REMARK    1  A    between atoms: C_2  and  C_3 
REMARK    2  A    between atoms: C_3  and  O_6 
REMARK    3  A    between atoms: C_3  and  C_4 
REMARK    4  A    between atoms: C_7  and  O_6 
REMARK    5  A    between atoms: C_9  and  C_10 
REMARK    6  A    between atoms: N_15  and  C_14 
REMARK    7  A    between atoms: N_20  and  C_19 
REMARK       I    between atoms: C_22  and  N_20 
ROOT
ATOM      1  C   LIG d   1       1.814  84.320 113.411  0.00  0.00     0.161 C 
ATOM      2  C   LIG d   1       2.050  85.593 112.865  0.00  0.00     0.016 C 
ATOM      3  C   LIG d   1       2.688  86.637 113.572  0.00  0.00     0.038 C 
ATOM      4  C   LIG d   1       3.273  86.431 114.830  0.00  0.00     0.028 C 
ATOM      5  C   LIG d   1       2.618  85.308 115.626  0.00  0.00    -0.047 C 
ATOM      6  C   LIG d   1       2.544  84.042 114.741  0.00  0.00     0.091 C 
ENDROOT
BRANCH   1   7
ATOM      7  O   LIG d   1       2.137  83.305 112.440  0.00  0.00    -0.368 OA
BRANCH   7   8
ATOM      8  C   LIG d   1       1.574  83.486 111.117  0.00  0.00     0.119 C 
BRANCH   8   9
ATOM      9  C   LIG d   1       0.792  82.205 110.768  0.00  0.00     0.028 C 
ATOM     10  C   LIG d   1       0.779  81.191 111.924  0.00  0.00     0.006 C 
ENDBRANCH   8   9
BRANCH   8  11
ATOM     11  C   LIG d   1       2.672  83.592 110.055  0.00  0.00     0.028 C 
ATOM     12  C   LIG d   1       3.775  82.535 110.229  0.00  0.00     0.006 C 
ENDBRANCH   8  11
ENDBRANCH   7   8
ENDBRANCH   1   7
BRANCH   6  13
ATOM     13  N   LIG d   1       1.840  82.920 115.415  0.00  0.00    -0.311 N 
ATOM     14  C   LIG d   1       2.332  81.684 115.486  0.00  0.00     0.210 C 
ATOM     15  C   LIG d   1       1.435  80.673 116.208  0.00  0.00     0.109 C 
ATOM     16  O   LIG d   1       3.439  81.337 115.049  0.00  0.00    -0.276 OA
ATOM     17  H   LIG d   1       0.949  83.121 115.824  0.00  0.00     0.149 HD
ENDBRANCH   6  13
BRANCH   5  18
ATOM     18  N   LIG d   1       3.411  85.109 116.854  0.00  0.00     0.381 N 
ATOM     19  H   LIG d   1       3.060  85.697 117.583  0.00  0.00    -0.090 HD
ATOM     20  H   LIG d   1       4.364  85.370 116.670  0.00  0.00    -0.090 HD
ATOM     21  H   LIG d   1       3.369  84.155 117.137  0.00  0.00    -0.090 HD
ENDBRANCH   5  18
BRANCH   3  22
ATOM     22  C   LIG d   1       2.710  87.916 113.037  0.00  0.00     0.382 C 
ATOM     23  O   LIG d   1       3.622  88.715 113.360  0.00  0.00    -0.241 OA
ATOM     24  O   LIG d   1       1.806  88.296 112.270  0.00  0.00    -0.241 OA
ENDBRANCH   3  22
TORSDOF 7
ENDMDL
MODEL 6
REMARK VINA RESULT:      -4.8      2.328      4.629
REMARK  7 active torsions:
REMARK  status: ('A' for Active; 'I' for Inactive)
REMARK    1  A    between atoms: C_2  and  C_3 
REMARK    2  A    between atoms: C_3  and  O_6 
REMARK    3  A    between atoms: C_3  and  C_4 
REMARK    4  A    between atoms: C_7  and  O_6 
REMARK    5  A    between atoms: C_9  and  C_10 
REMARK    6  A    between atoms: N_15  and  C_14 
REMARK    7  A    between atoms: N_20  and  C_19 
REMARK       I    between atoms: C_22  and  N_20 
ROOT
ATOM      1  C   LIG d   1       1.154  84.136 113.613  0.00  0.00     0.161 C 
ATOM      2  C   LIG d   1       1.931  85.069 114.320  0.00  0.00     0.016 C 
ATOM      3  C   LIG d   1       3.015  84.708 115.152  0.00  0.00     0.038 C 
ATOM      4  C   LIG d   1       3.495  83.391 115.215  0.00  0.00     0.028 C 
ATOM      5  C   LIG d   1       2.429  82.343 114.913  0.00  0.00    -0.047 C 
ATOM      6  C   LIG d   1       1.732  82.706 113.582  0.00  0.00     0.091 C 
ENDROOT
BRANCH   1   7
ATOM      7  O   LIG d   1       0.920  84.611 112.272  0.00  0.00    -0.368 OA
BRANCH   7   8
ATOM      8  C   LIG d   1       1.171  86.019 112.042  0.00  0.00     0.119 C 
BRANCH   8   9
ATOM      9  C   LIG d   1      -0.157  86.659 111.593  0.00  0.00     0.028 C 
ATOM     10  C   LIG d   1      -0.842  85.862 110.470  0.00  0.00     0.006 C 
ENDBRANCH   8   9
BRANCH   8  11
ATOM     11  C   LIG d   1       2.138  86.229 110.873  0.00  0.00     0.028 C 
ATOM     12  C   LIG d   1       3.453  85.451 111.040  0.00  0.00     0.006 C 
ENDBRANCH   8  11
ENDBRANCH   7   8
ENDBRANCH   1   7
BRANCH   6  13
ATOM     13  N   LIG d   1       0.618  81.778 113.254  0.00  0.00    -0.311 N 
ATOM     14  C   LIG d   1       0.553  81.081 112.121  0.00  0.00     0.210 C 
ATOM     15  C   LIG d   1      -0.691  80.198 111.975  0.00  0.00     0.109 C 
ATOM     16  O   LIG d   1       1.424  81.084 111.238  0.00  0.00    -0.276 OA
ATOM     17  H   LIG d   1      -0.116  81.690 113.930  0.00  0.00     0.149 HD
ENDBRANCH   6  13
BRANCH   5  18
ATOM     18  N   LIG d   1       3.095  81.028 114.878  0.00  0.00     0.381 N 
ATOM     19  H   LIG d   1       3.214  80.683 115.809  0.00  0.00    -0.090 HD
ATOM     20  H   LIG d   1       4.003  81.134 114.462  0.00  0.00    -0.090 HD
ATOM     21  H   LIG d   1       2.551  80.384 114.345  0.00  0.00    -0.090 HD
ENDBRANCH   5  18
BRANCH   3  22
ATOM     22  C   LIG d   1       3.607  85.664 115.963  0.00  0.00     0.382 C 
ATOM     23  O   LIG d   1       3.811  85.417 117.176  0.00  0.00    -0.241 OA
ATOM     24  O   LIG d   1       3.899  86.786 115.508  0.00  0.00    -0.241 OA
ENDBRANCH   3  22
TORSDOF 7
ENDMDL
MODEL 7
REMARK VINA RESULT:      -4.7     10.323     12.818
REMARK  7 active torsions:
REMARK  status: ('A' for Active; 'I' for Inactive)
REMARK    1  A    between atoms: C_2  and  C_3 
REMARK    2  A    between atoms: C_3  and  O_6 
REMARK    3  A    between atoms: C_3  and  C_4 
REMARK    4  A    between atoms: C_7  and  O_6 
REMARK    5  A    between atoms: C_9  and  C_10 
REMARK    6  A    between atoms: N_15  and  C_14 
REMARK    7  A    between atoms: N_20  and  C_19 
REMARK       I    between atoms: C_22  and  N_20 
ROOT
ATOM      1  C   LIG d   1      11.650  79.799 113.972  0.00  0.00     0.161 C 
ATOM      2  C   LIG d   1      11.813  79.024 112.812  0.00  0.00     0.016 C 
ATOM      3  C   LIG d   1      13.050  78.875 112.142  0.00  0.00     0.038 C 
ATOM      4  C   LIG d   1      14.247  79.373 112.677  0.00  0.00     0.028 C 
ATOM      5  C   LIG d   1      14.049  80.587 113.578  0.00  0.00    -0.047 C 
ATOM      6  C   LIG d   1      12.967  80.259 114.632  0.00  0.00     0.091 C 
ENDROOT
BRANCH   1   7
ATOM      7  O   LIG d   1      10.834  79.089 114.923  0.00  0.00    -0.368 OA
BRANCH   7   8
ATOM      8  C   LIG d   1       9.478  79.573 115.087  0.00  0.00     0.119 C 
BRANCH   8   9
ATOM      9  C   LIG d   1       9.422  80.351 116.416  0.00  0.00     0.028 C 
ATOM     10  C   LIG d   1      10.170  79.631 117.550  0.00  0.00     0.006 C 
ENDBRANCH   8   9
BRANCH   8  11
ATOM     11  C   LIG d   1       8.489  78.415 115.253  0.00  0.00     0.028 C 
ATOM     12  C   LIG d   1       7.028  78.846 115.049  0.00  0.00     0.006 C 
ENDBRANCH   8  11
ENDBRANCH   7   8
ENDBRANCH   1   7
BRANCH   6  13
ATOM     13  N   LIG d   1      12.651  81.422 115.502  0.00  0.00    -0.311 N 
ATOM     14  C   LIG d   1      13.224  81.628 116.687  0.00  0.00     0.210 C 
ATOM     15  C   LIG d   1      12.740  82.877 117.430  0.00  0.00     0.109 C 
ATOM     16  O   LIG d   1      14.109  80.912 117.179  0.00  0.00    -0.276 OA
ATOM     17  H   LIG d   1      11.966  82.070 115.166  0.00  0.00     0.149 HD
ENDBRANCH   6  13
BRANCH   5  18
ATOM     18  N   LIG d   1      15.357  80.917 114.175  0.00  0.00     0.381 N 
ATOM     19  H   LIG d   1      15.223  81.463 115.003  0.00  0.00    -0.090 HD
ATOM     20  H   LIG d   1      15.886  81.463 113.519  0.00  0.00    -0.090 HD
ATOM     21  H   LIG d   1      15.851  80.081 114.397  0.00  0.00    -0.090 HD
ENDBRANCH   5  18
BRANCH   3  22
ATOM     22  C   LIG d   1      13.090  78.255 110.902  0.00  0.00     0.382 C 
ATOM     23  O   LIG d   1      12.023  78.010 110.290  0.00  0.00    -0.241 OA
ATOM     24  O   LIG d   1      14.176  77.899 110.409  0.00  0.00    -0.241 OA
ENDBRANCH   3  22
TORSDOF 7
ENDMDL
MODEL 8
REMARK VINA RESULT:      -4.6     24.241     27.251
REMARK  7 active torsions:
REMARK  status: ('A' for Active; 'I' for Inactive)
REMARK    1  A    between atoms: C_2  and  C_3 
REMARK    2  A    between atoms: C_3  and  O_6 
REMARK    3  A    between atoms: C_3  and  C_4 
REMARK    4  A    between atoms: C_7  and  O_6 
REMARK    5  A    between atoms: C_9  and  C_10 
REMARK    6  A    between atoms: N_15  and  C_14 
REMARK    7  A    between atoms: N_20  and  C_19 
REMARK       I    between atoms: C_22  and  N_20 
ROOT
ATOM      1  C   LIG d   1     -16.607  64.113 114.169  0.00  0.00     0.161 C 
ATOM      2  C   LIG d   1     -17.580  64.703 113.346  0.00  0.00     0.016 C 
ATOM      3  C   LIG d   1     -18.970  64.563 113.561  0.00  0.00     0.038 C 
ATOM      4  C   LIG d   1     -19.484  63.943 114.710  0.00  0.00     0.028 C 
ATOM      5  C   LIG d   1     -18.546  62.898 115.305  0.00  0.00    -0.047 C 
ATOM      6  C   LIG d   1     -17.147  63.527 115.490  0.00  0.00     0.091 C 
ENDROOT
BRANCH   1   7
ATOM      7  O   LIG d   1     -15.553  65.060 114.435  0.00  0.00    -0.368 OA
BRANCH   7   8
ATOM      8  C   LIG d   1     -15.967  66.433 114.644  0.00  0.00     0.119 C 
BRANCH   8   9
ATOM      9  C   LIG d   1     -14.954  67.337 113.916  0.00  0.00     0.028 C 
ATOM     10  C   LIG d   1     -15.633  68.508 113.185  0.00  0.00     0.006 C 
ENDBRANCH   8   9
BRANCH   8  11
ATOM     11  C   LIG d   1     -15.871  66.825 116.122  0.00  0.00     0.028 C 
ATOM     12  C   LIG d   1     -14.740  66.092 116.861  0.00  0.00     0.006 C 
ENDBRANCH   8  11
ENDBRANCH   7   8
ENDBRANCH   1   7
BRANCH   6  13
ATOM     13  N   LIG d   1     -16.147  62.547 115.990  0.00  0.00    -0.311 N 
ATOM     14  C   LIG d   1     -15.818  62.426 117.274  0.00  0.00     0.210 C 
ATOM     15  C   LIG d   1     -14.750  61.368 117.571  0.00  0.00     0.109 C 
ATOM     16  O   LIG d   1     -16.332  63.071 118.200  0.00  0.00    -0.276 OA
ATOM     17  H   LIG d   1     -15.703  61.961 115.310  0.00  0.00     0.149 HD
ENDBRANCH   6  13
BRANCH   5  18
ATOM     18  N   LIG d   1     -19.144  62.432 116.570  0.00  0.00     0.381 N 
ATOM     19  H   LIG d   1     -20.016  61.979 116.387  0.00  0.00    -0.090 HD
ATOM     20  H   LIG d   1     -19.320  63.228 117.159  0.00  0.00    -0.090 HD
ATOM     21  H   LIG d   1     -18.523  61.802 117.029  0.00  0.00    -0.090 HD
ENDBRANCH   5  18
BRANCH   3  22
ATOM     22  C   LIG d   1     -19.863  65.011 112.599  0.00  0.00     0.382 C 
ATOM     23  O   LIG d   1     -20.769  65.820 112.913  0.00  0.00    -0.241 OA
ATOM     24  O   LIG d   1     -19.801  64.582 111.431  0.00  0.00    -0.241 OA
ENDBRANCH   3  22
TORSDOF 7
ENDMDL
MODEL 9
REMARK VINA RESULT:      -4.6      2.480      3.418
REMARK  7 active torsions:
REMARK  status: ('A' for Active; 'I' for Inactive)
REMARK    1  A    between atoms: C_2  and  C_3 
REMARK    2  A    between atoms: C_3  and  O_6 
REMARK    3  A    between atoms: C_3  and  C_4 
REMARK    4  A    between atoms: C_7  and  O_6 
REMARK    5  A    between atoms: C_9  and  C_10 
REMARK    6  A    between atoms: N_15  and  C_14 
REMARK    7  A    between atoms: N_20  and  C_19 
REMARK       I    between atoms: C_22  and  N_20 
ROOT
ATOM      1  C   LIG d   1       3.386  84.936 114.766  0.00  0.00     0.161 C 
ATOM      2  C   LIG d   1       3.109  86.022 113.920  0.00  0.00     0.016 C 
ATOM      3  C   LIG d   1       2.139  85.980 112.891  0.00  0.00     0.038 C 
ATOM      4  C   LIG d   1       1.270  84.890 112.736  0.00  0.00     0.028 C 
ATOM      5  C   LIG d   1       1.852  83.575 113.242  0.00  0.00    -0.047 C 
ATOM      6  C   LIG d   1       2.371  83.777 114.684  0.00  0.00     0.091 C 
ENDROOT
BRANCH   1   7
ATOM      7  O   LIG d   1       3.513  85.395 116.126  0.00  0.00    -0.368 OA
BRANCH   7   8
ATOM      8  C   LIG d   1       3.024  86.732 116.395  0.00  0.00     0.119 C 
BRANCH   8   9
ATOM      9  C   LIG d   1       4.096  87.457 117.232  0.00  0.00     0.028 C 
ATOM     10  C   LIG d   1       5.166  88.132 116.358  0.00  0.00     0.006 C 
ENDBRANCH   8   9
BRANCH   8  11
ATOM     11  C   LIG d   1       1.773  86.701 117.278  0.00  0.00     0.028 C 
ATOM     12  C   LIG d   1       0.469  86.784 116.467  0.00  0.00     0.006 C 
ENDBRANCH   8  11
ENDBRANCH   7   8
ENDBRANCH   1   7
BRANCH   6  13
ATOM     13  N   LIG d   1       3.032  82.560 115.224  0.00  0.00    -0.311 N 
ATOM     14  C   LIG d   1       2.397  81.642 115.951  0.00  0.00     0.210 C 
ATOM     15  C   LIG d   1       3.270  80.476 116.426  0.00  0.00     0.109 C 
ATOM     16  O   LIG d   1       1.187  81.666 116.221  0.00  0.00    -0.276 OA
ATOM     17  H   LIG d   1       4.007  82.445 115.026  0.00  0.00     0.149 HD
ENDBRANCH   6  13
BRANCH   5  18
ATOM     18  N   LIG d   1       0.792  82.553 113.146  0.00  0.00     0.381 N 
ATOM     19  H   LIG d   1      -0.106  82.992 113.188  0.00  0.00    -0.090 HD
ATOM     20  H   LIG d   1       0.873  81.926 113.928  0.00  0.00    -0.090 HD
ATOM     21  H   LIG d   1       0.883  82.046 112.294  0.00  0.00    -0.090 HD
ENDBRANCH   5  18
BRANCH   3  22
ATOM     22  C   LIG d   1       2.060  87.021 111.979  0.00  0.00     0.382 C 
ATOM     23  O   LIG d   1       1.961  88.204 112.385  0.00  0.00    -0.241 OA
ATOM     24  O   LIG d   1       2.042  86.789 110.756  0.00  0.00    -0.241 OA
ENDBRANCH   3  22
TORSDOF 7
ENDMDL
