MODEL 1
REMARK VINA RESULT:      -5.4      0.000      0.000
REMARK  7 active torsions:
REMARK  status: ('A' for Active; 'I' for Inactive)
REMARK    1  A    between atoms: C_2  and  C_3 
REMARK    2  A    between atoms: C_3  and  O_6 
REMARK    3  A    between atoms: C_3  and  C_4 
REMARK    4  A    between atoms: C_7  and  O_6 
REMARK    5  A    between atoms: C_9  and  C_10 
REMARK    6  A    between atoms: N_15  and  C_14 
REMARK    7  A    between atoms: N_20  and  C_19 
REMARK       I    between atoms: C_22  and  N_20 
ROOT
ATOM      1  C   LIG d   1       1.072  85.082 113.803  0.00  0.00     0.161 C 
ATOM      2  C   LIG d   1       1.459  86.333 113.295  0.00  0.00     0.016 C 
ATOM      3  C   LIG d   1       2.668  86.976 113.649  0.00  0.00     0.038 C 
ATOM      4  C   LIG d   1       3.648  86.337 114.423  0.00  0.00     0.028 C 
ATOM      5  C   LIG d   1       3.082  85.282 115.367  0.00  0.00    -0.047 C 
ATOM      6  C   LIG d   1       2.179  84.320 114.561  0.00  0.00     0.091 C 
ENDROOT
BRANCH   1   7
ATOM      7  O   LIG d   1       0.542  84.266 112.739  0.00  0.00    -0.368 OA
BRANCH   7   8
ATOM      8  C   LIG d   1       0.963  84.616 111.397  0.00  0.00     0.119 C 
BRANCH   8   9
ATOM      9  C   LIG d   1      -0.259  84.455 110.472  0.00  0.00     0.028 C 
ATOM     10  C   LIG d   1      -0.959  85.794 110.186  0.00  0.00     0.006 C 
ENDBRANCH   8   9
BRANCH   8  11
ATOM     11  C   LIG d   1       2.007  83.630 110.866  0.00  0.00     0.028 C 
ATOM     12  C   LIG d   1       3.403  84.258 110.725  0.00  0.00     0.006 C 
ENDBRANCH   8  11
ENDBRANCH   7   8
ENDBRANCH   1   7
BRANCH   6  13
ATOM     13  N   LIG d   1       1.518  83.307 115.424  0.00  0.00    -0.311 N 
ATOM     14  C   LIG d   1       2.049  82.116 115.695  0.00  0.00     0.210 C 
ATOM     15  C   LIG d   1       1.193  81.214 116.589  0.00  0.00     0.109 C 
ATOM     16  O   LIG d   1       3.163  81.733 115.306  0.00  0.00    -0.276 OA
ATOM     17  H   LIG d   1       0.625  83.547 115.807  0.00  0.00     0.149 HD
ENDBRANCH   6  13
BRANCH   5  18
ATOM     18  N   LIG d   1       4.222  84.601 116.010  0.00  0.00     0.381 N 
ATOM     19  H   LIG d   1       4.757  85.262 116.538  0.00  0.00    -0.090 HD
ATOM     20  H   LIG d   1       4.815  84.215 115.297  0.00  0.00    -0.090 HD
ATOM     21  H   LIG d   1       3.893  83.876 116.608  0.00  0.00    -0.090 HD
ENDBRANCH   5  18
BRANCH   3  22
ATOM     22  C   LIG d   1       2.888  88.288 113.260  0.00  0.00     0.382 C 
ATOM     23  O   LIG d   1       4.060  88.704 113.092  0.00  0.00    -0.241 OA
ATOM     24  O   LIG d   1       1.932  89.074 113.118  0.00  0.00    -0.241 OA
ENDBRANCH   3  22
TORSDOF 7
ENDMDL
MODEL 2
REMARK VINA RESULT:      -5.2      2.151      4.296
REMARK  7 active torsions:
REMARK  status: ('A' for Active; 'I' for Inactive)
REMARK    1  A    between atoms: C_2  and  C_3 
REMARK    2  A    between atoms: C_3  and  O_6 
REMARK    3  A    between atoms: C_3  and  C_4 
REMARK    4  A    between atoms: C_7  and  O_6 
REMARK    5  A    between atoms: C_9  and  C_10 
REMARK    6  A    between atoms: N_15  and  C_14 
REMARK    7  A    between atoms: N_20  and  C_19 
REMARK       I    between atoms: C_22  and  N_20 
ROOT
ATOM      1  C   LIG d   1       3.217  85.317 113.281  0.00  0.00     0.161 C 
ATOM      2  C   LIG d   1       3.941  86.471 113.624  0.00  0.00     0.016 C 
ATOM      3  C   LIG d   1       3.481  87.783 113.369  0.00  0.00     0.038 C 
ATOM      4  C   LIG d   1       2.188  88.035 112.886  0.00  0.00     0.028 C 
ATOM      5  C   LIG d   1       1.618  86.889 112.056  0.00  0.00    -0.047 C 
ATOM      6  C   LIG d   1       1.756  85.573 112.855  0.00  0.00     0.091 C 
ENDROOT
BRANCH   1   7
ATOM      7  O   LIG d   1       3.264  84.370 114.367  0.00  0.00    -0.368 OA
BRANCH   7   8
ATOM      8  C   LIG d   1       2.164  84.426 115.309  0.00  0.00     0.119 C 
BRANCH   8   9
ATOM      9  C   LIG d   1       2.662  85.177 116.559  0.00  0.00     0.028 C 
ATOM     10  C   LIG d   1       1.888  86.483 116.806  0.00  0.00     0.006 C 
ENDBRANCH   8   9
BRANCH   8  11
ATOM     11  C   LIG d   1       1.782  83.027 115.802  0.00  0.00     0.028 C 
ATOM     12  C   LIG d   1       1.930  81.951 114.714  0.00  0.00     0.006 C 
ENDBRANCH   8  11
ENDBRANCH   7   8
ENDBRANCH   1   7
BRANCH   6  13
ATOM     13  N   LIG d   1       1.299  84.390 112.082  0.00  0.00    -0.311 N 
ATOM     14  C   LIG d   1       0.045  83.943 112.099  0.00  0.00     0.210 C 
ATOM     15  C   LIG d   1      -0.209  82.696 111.245  0.00  0.00     0.109 C 
ATOM     16  O   LIG d   1      -0.889  84.479 112.714  0.00  0.00    -0.276 OA
ATOM     17  H   LIG d   1       1.985  83.913 111.530  0.00  0.00     0.149 HD
ENDBRANCH   6  13
BRANCH   5  18
ATOM     18  N   LIG d   1       0.218  87.226 111.734  0.00  0.00     0.381 N 
ATOM     19  H   LIG d   1       0.124  88.216 111.629  0.00  0.00    -0.090 HD
ATOM     20  H   LIG d   1      -0.370  86.932 112.495  0.00  0.00    -0.090 HD
ATOM     21  H   LIG d   1      -0.058  86.767 110.895  0.00  0.00    -0.090 HD
ENDBRANCH   5  18
BRANCH   3  22
ATOM     22  C   LIG d   1       4.334  88.860 113.559  0.00  0.00     0.382 C 
ATOM     23  O   LIG d   1       3.889  89.938 114.021  0.00  0.00    -0.241 OA
ATOM     24  O   LIG d   1       5.534  88.781 113.234  0.00  0.00    -0.241 OA
ENDBRANCH   3  22
TORSDOF 7
ENDMDL
MODEL 3
REMARK VINA RESULT:      -5.0      2.372      4.728
REMARK  7 active torsions:
REMARK  status: ('A' for Active; 'I' for Inactive)
REMARK    1  A    between atoms: C_2  and  C_3 
REMARK    2  A    between atoms: C_3  and  O_6 
REMARK    3  A    between atoms: C_3  and  C_4 
REMARK    4  A    between atoms: C_7  and  O_6 
REMARK    5  A    between atoms: C_9  and  C_10 
REMARK    6  A    between atoms: N_15  and  C_14 
REMARK    7  A    between atoms: N_20  and  C_19 
REMARK       I    between atoms: C_22  and  N_20 
ROOT
ATOM      1  C   LIG d   1       1.493  84.319 113.662  0.00  0.00     0.161 C 
ATOM      2  C   LIG d   1       1.942  85.649 113.721  0.00  0.00     0.016 C 
ATOM      3  C   LIG d   1       1.647  86.614 112.730  0.00  0.00     0.038 C 
ATOM      4  C   LIG d   1       0.751  86.352 111.683  0.00  0.00     0.028 C 
ATOM      5  C   LIG d   1       0.674  84.876 111.307  0.00  0.00    -0.047 C 
ATOM      6  C   LIG d   1       0.423  84.044 112.585  0.00  0.00     0.091 C 
ENDROOT
BRANCH   1   7
ATOM      7  O   LIG d   1       1.016  83.907 114.959  0.00  0.00    -0.368 OA
BRANCH   7   8
ATOM      8  C   LIG d   1       2.022  83.426 115.884  0.00  0.00     0.119 C 
BRANCH   8   9
ATOM      9  C   LIG d   1       2.092  81.893 115.736  0.00  0.00     0.028 C 
ATOM     10  C   LIG d   1       3.354  81.298 116.382  0.00  0.00     0.006 C 
ENDBRANCH   8   9
BRANCH   8  11
ATOM     11  C   LIG d   1       1.607  83.674 117.337  0.00  0.00     0.028 C 
ATOM     12  C   LIG d   1       1.805  85.135 117.771  0.00  0.00     0.006 C 
ENDBRANCH   8  11
ENDBRANCH   7   8
ENDBRANCH   1   7
BRANCH   6  13
ATOM     13  N   LIG d   1       0.418  82.582 112.319  0.00  0.00    -0.311 N 
ATOM     14  C   LIG d   1      -0.694  81.877 112.121  0.00  0.00     0.210 C 
ATOM     15  C   LIG d   1      -0.476  80.379 111.882  0.00  0.00     0.109 C 
ATOM     16  O   LIG d   1      -1.838  82.354 112.087  0.00  0.00    -0.276 OA
ATOM     17  H   LIG d   1       1.306  82.120 112.297  0.00  0.00     0.149 HD
ENDBRANCH   6  13
BRANCH   5  18
ATOM     18  N   LIG d   1      -0.394  84.727 110.301  0.00  0.00     0.381 N 
ATOM     19  H   LIG d   1      -1.261  84.519 110.755  0.00  0.00    -0.090 HD
ATOM     20  H   LIG d   1      -0.165  83.960 109.693  0.00  0.00    -0.090 HD
ATOM     21  H   LIG d   1      -0.483  85.566 109.770  0.00  0.00    -0.090 HD
ENDBRANCH   5  18
BRANCH   3  22
ATOM     22  C   LIG d   1       2.283  87.846 112.759  0.00  0.00     0.382 C 
ATOM     23  O   LIG d   1       1.607  88.898 112.864  0.00  0.00    -0.241 OA
ATOM     24  O   LIG d   1       3.520  87.921 112.638  0.00  0.00    -0.241 OA
ENDBRANCH   3  22
TORSDOF 7
ENDMDL
MODEL 4
REMARK VINA RESULT:      -5.0      0.859      1.318
REMARK  7 active torsions:
REMARK  status: ('A' for Active; 'I' for Inactive)
REMARK    1  A    between atoms: C_2  and  C_3 
REMARK    2  A    between atoms: C_3  and  O_6 
REMARK    3  A    between atoms: C_3  and  C_4 
REMARK    4  A    between atoms: C_7  and  O_6 
REMARK    5  A    between atoms: C_9  and  C_10 
REMARK    6  A    between atoms: N_15  and  C_14 
REMARK    7  A    between atoms: N_20  and  C_19 
REMARK       I    between atoms: C_22  and  N_20 
ROOT
ATOM      1  C   LIG d   1       1.075  84.980 113.869  0.00  0.00     0.161 C 
ATOM      2  C   LIG d   1       1.452  86.222 113.331  0.00  0.00     0.016 C 
ATOM      3  C   LIG d   1       2.656  86.882 113.668  0.00  0.00     0.038 C 
ATOM      4  C   LIG d   1       3.642  86.270 114.455  0.00  0.00     0.028 C 
ATOM      5  C   LIG d   1       3.086  85.233 115.425  0.00  0.00    -0.047 C 
ATOM      6  C   LIG d   1       2.189  84.245 114.643  0.00  0.00     0.091 C 
ENDROOT
BRANCH   1   7
ATOM      7  O   LIG d   1       0.549  84.135 112.826  0.00  0.00    -0.368 OA
BRANCH   7   8
ATOM      8  C   LIG d   1       1.480  83.757 111.782  0.00  0.00     0.119 C 
BRANCH   8   9
ATOM      9  C   LIG d   1       0.773  83.973 110.430  0.00  0.00     0.028 C 
ATOM     10  C   LIG d   1      -0.560  84.726 110.579  0.00  0.00     0.006 C 
ENDBRANCH   8   9
BRANCH   8  11
ATOM     11  C   LIG d   1       1.802  82.261 111.837  0.00  0.00     0.028 C 
ATOM     12  C   LIG d   1       0.643  81.422 112.397  0.00  0.00     0.006 C 
ENDBRANCH   8  11
ENDBRANCH   7   8
ENDBRANCH   1   7
BRANCH   6  13
ATOM     13  N   LIG d   1       1.537  83.247 115.531  0.00  0.00    -0.311 N 
ATOM     14  C   LIG d   1       2.042  82.039 115.770  0.00  0.00     0.210 C 
ATOM     15  C   LIG d   1       1.201  81.158 116.700  0.00  0.00     0.109 C 
ATOM     16  O   LIG d   1       3.124  81.623 115.327  0.00  0.00    -0.276 OA
ATOM     17  H   LIG d   1       0.671  83.513 115.957  0.00  0.00     0.149 HD
ENDBRANCH   6  13
BRANCH   5  18
ATOM     18  N   LIG d   1       4.232  84.577 116.081  0.00  0.00     0.381 N 
ATOM     19  H   LIG d   1       4.039  83.603 116.208  0.00  0.00    -0.090 HD
ATOM     20  H   LIG d   1       4.370  84.992 116.986  0.00  0.00    -0.090 HD
ATOM     21  H   LIG d   1       5.053  84.690 115.528  0.00  0.00    -0.090 HD
ENDBRANCH   5  18
BRANCH   3  22
ATOM     22  C   LIG d   1       2.865  88.187 113.247  0.00  0.00     0.382 C 
ATOM     23  O   LIG d   1       1.886  88.944 113.043  0.00  0.00    -0.241 OA
ATOM     24  O   LIG d   1       4.018  88.602 113.026  0.00  0.00    -0.241 OA
ENDBRANCH   3  22
TORSDOF 7
ENDMDL
MODEL 5
REMARK VINA RESULT:      -4.9      7.016     10.936
REMARK  7 active torsions:
REMARK  status: ('A' for Active; 'I' for Inactive)
REMARK    1  A    between atoms: C_2  and  C_3 
REMARK    2  A    between atoms: C_3  and  O_6 
REMARK    3  A    between atoms: C_3  and  C_4 
REMARK    4  A    between atoms: C_7  and  O_6 
REMARK    5  A    between atoms: C_9  and  C_10 
REMARK    6  A    between atoms: N_15  and  C_14 
REMARK    7  A    between atoms: N_20  and  C_19 
REMARK       I    between atoms: C_22  and  N_20 
ROOT
ATOM      1  C   LIG d   1      -1.756  76.029 114.894  0.00  0.00     0.161 C 
ATOM      2  C   LIG d   1      -1.645  74.972 115.813  0.00  0.00     0.016 C 
ATOM      3  C   LIG d   1      -0.922  75.067 117.024  0.00  0.00     0.038 C 
ATOM      4  C   LIG d   1      -0.384  76.282 117.473  0.00  0.00     0.028 C 
ATOM      5  C   LIG d   1      -0.040  77.247 116.344  0.00  0.00    -0.047 C 
ATOM      6  C   LIG d   1      -1.270  77.396 115.419  0.00  0.00     0.091 C 
ENDROOT
BRANCH   1   7
ATOM      7  O   LIG d   1      -3.116  76.127 114.426  0.00  0.00    -0.368 OA
BRANCH   7   8
ATOM      8  C   LIG d   1      -4.142  75.692 115.351  0.00  0.00     0.119 C 
BRANCH   8   9
ATOM      9  C   LIG d   1      -5.325  75.165 114.516  0.00  0.00     0.028 C 
ATOM     10  C   LIG d   1      -6.578  76.047 114.653  0.00  0.00     0.006 C 
ENDBRANCH   8   9
BRANCH   8  11
ATOM     11  C   LIG d   1      -4.704  76.870 116.153  0.00  0.00     0.028 C 
ATOM     12  C   LIG d   1      -4.371  76.783 117.651  0.00  0.00     0.006 C 
ENDBRANCH   8  11
ENDBRANCH   7   8
ENDBRANCH   1   7
BRANCH   6  13
ATOM     13  N   LIG d   1      -0.992  78.257 114.240  0.00  0.00    -0.311 N 
ATOM     14  C   LIG d   1      -1.682  79.362 113.961  0.00  0.00     0.210 C 
ATOM     15  C   LIG d   1      -1.245  80.092 112.687  0.00  0.00     0.109 C 
ATOM     16  O   LIG d   1      -2.593  79.824 114.664  0.00  0.00    -0.276 OA
ATOM     17  H   LIG d   1      -0.249  77.973 113.633  0.00  0.00     0.149 HD
ENDBRANCH   6  13
BRANCH   5  18
ATOM     18  N   LIG d   1       0.380  78.521 116.957  0.00  0.00     0.381 N 
ATOM     19  H   LIG d   1       1.349  78.476 117.202  0.00  0.00    -0.090 HD
ATOM     20  H   LIG d   1      -0.151  78.667 117.798  0.00  0.00    -0.090 HD
ATOM     21  H   LIG d   1       0.225  79.273 116.322  0.00  0.00    -0.090 HD
ENDBRANCH   5  18
BRANCH   3  22
ATOM     22  C   LIG d   1      -0.697  73.927 117.782  0.00  0.00     0.382 C 
ATOM     23  O   LIG d   1       0.428  73.733 118.303  0.00  0.00    -0.241 OA
ATOM     24  O   LIG d   1      -1.591  73.070 117.913  0.00  0.00    -0.241 OA
ENDBRANCH   3  22
TORSDOF 7
ENDMDL
MODEL 6
REMARK VINA RESULT:      -4.8      9.658     11.709
REMARK  7 active torsions:
REMARK  status: ('A' for Active; 'I' for Inactive)
REMARK    1  A    between atoms: C_2  and  C_3 
REMARK    2  A    between atoms: C_3  and  O_6 
REMARK    3  A    between atoms: C_3  and  C_4 
REMARK    4  A    between atoms: C_7  and  O_6 
REMARK    5  A    between atoms: C_9  and  C_10 
REMARK    6  A    between atoms: N_15  and  C_14 
REMARK    7  A    between atoms: N_20  and  C_19 
REMARK       I    between atoms: C_22  and  N_20 
ROOT
ATOM      1  C   LIG d   1      10.764  79.215 114.823  0.00  0.00     0.161 C 
ATOM      2  C   LIG d   1       9.441  79.596 115.099  0.00  0.00     0.016 C 
ATOM      3  C   LIG d   1       8.468  78.710 115.617  0.00  0.00     0.038 C 
ATOM      4  C   LIG d   1       8.796  77.413 116.037  0.00  0.00     0.028 C 
ATOM      5  C   LIG d   1      10.000  76.826 115.308  0.00  0.00    -0.047 C 
ATOM      6  C   LIG d   1      11.169  77.834 115.379  0.00  0.00     0.091 C 
ENDROOT
BRANCH   1   7
ATOM      7  O   LIG d   1      11.673  80.231 115.292  0.00  0.00    -0.368 OA
BRANCH   7   8
ATOM      8  C   LIG d   1      12.303  81.044 114.272  0.00  0.00     0.119 C 
BRANCH   8   9
ATOM      9  C   LIG d   1      11.923  80.445 112.903  0.00  0.00     0.028 C 
ATOM     10  C   LIG d   1      11.136  81.435 112.028  0.00  0.00     0.006 C 
ENDBRANCH   8   9
BRANCH   8  11
ATOM     11  C   LIG d   1      13.830  80.948 114.346  0.00  0.00     0.028 C 
ATOM     12  C   LIG d   1      14.450  80.321 113.087  0.00  0.00     0.006 C 
ENDBRANCH   8  11
ENDBRANCH   7   8
ENDBRANCH   1   7
BRANCH   6  13
ATOM     13  N   LIG d   1      12.361  77.375 114.618  0.00  0.00    -0.311 N 
ATOM     14  C   LIG d   1      13.578  77.280 115.150  0.00  0.00     0.210 C 
ATOM     15  C   LIG d   1      14.669  76.804 114.186  0.00  0.00     0.109 C 
ATOM     16  O   LIG d   1      13.852  77.514 116.337  0.00  0.00    -0.276 OA
ATOM     17  H   LIG d   1      12.223  77.134 113.656  0.00  0.00     0.149 HD
ENDBRANCH   6  13
BRANCH   5  18
ATOM     18  N   LIG d   1      10.314  75.530 115.939  0.00  0.00     0.381 N 
ATOM     19  H   LIG d   1      11.269  75.289 115.759  0.00  0.00    -0.090 HD
ATOM     20  H   LIG d   1       9.728  74.821 115.535  0.00  0.00    -0.090 HD
ATOM     21  H   LIG d   1      10.157  75.582 116.921  0.00  0.00    -0.090 HD
ENDBRANCH   5  18
BRANCH   3  22
ATOM     22  C   LIG d   1       7.141  79.108 115.680  0.00  0.00     0.382 C 
ATOM     23  O   LIG d   1       6.290  78.574 114.929  0.00  0.00    -0.241 OA
ATOM     24  O   LIG d   1       6.792  80.025 116.448  0.00  0.00    -0.241 OA
ENDBRANCH   3  22
TORSDOF 7
ENDMDL
MODEL 7
REMARK VINA RESULT:      -4.8     24.551     26.504
REMARK  7 active torsions:
REMARK  status: ('A' for Active; 'I' for Inactive)
REMARK    1  A    between atoms: C_2  and  C_3 
REMARK    2  A    between atoms: C_3  and  O_6 
REMARK    3  A    between atoms: C_3  and  C_4 
REMARK    4  A    between atoms: C_7  and  O_6 
REMARK    5  A    between atoms: C_9  and  C_10 
REMARK    6  A    between atoms: N_15  and  C_14 
REMARK    7  A    between atoms: N_20  and  C_19 
REMARK       I    between atoms: C_22  and  N_20 
ROOT
ATOM      1  C   LIG d   1     -23.146  84.007 115.496  0.00  0.00     0.161 C 
ATOM      2  C   LIG d   1     -22.706  85.291 115.132  0.00  0.00     0.016 C 
ATOM      3  C   LIG d   1     -22.895  85.842 113.844  0.00  0.00     0.038 C 
ATOM      4  C   LIG d   1     -23.677  85.202 112.871  0.00  0.00     0.028 C 
ATOM      5  C   LIG d   1     -23.714  83.685 113.025  0.00  0.00    -0.047 C 
ATOM      6  C   LIG d   1     -24.098  83.338 114.482  0.00  0.00     0.091 C 
ENDROOT
BRANCH   1   7
ATOM      7  O   LIG d   1     -23.756  84.052 116.801  0.00  0.00    -0.368 OA
BRANCH   7   8
ATOM      8  C   LIG d   1     -25.186  84.282 116.829  0.00  0.00     0.119 C 
BRANCH   8   9
ATOM      9  C   LIG d   1     -25.417  85.691 117.407  0.00  0.00     0.028 C 
ATOM     10  C   LIG d   1     -25.863  86.699 116.335  0.00  0.00     0.006 C 
ENDBRANCH   8   9
BRANCH   8  11
ATOM     11  C   LIG d   1     -25.885  83.325 117.800  0.00  0.00     0.028 C 
ATOM     12  C   LIG d   1     -24.975  82.177 118.264  0.00  0.00     0.006 C 
ENDBRANCH   8  11
ENDBRANCH   7   8
ENDBRANCH   1   7
BRANCH   6  13
ATOM     13  N   LIG d   1     -24.075  81.875 114.742  0.00  0.00    -0.311 N 
ATOM     14  C   LIG d   1     -25.165  81.110 114.718  0.00  0.00     0.210 C 
ATOM     15  C   LIG d   1     -24.923  79.630 115.033  0.00  0.00     0.109 C 
ATOM     16  O   LIG d   1     -26.304  81.509 114.435  0.00  0.00    -0.276 OA
ATOM     17  H   LIG d   1     -23.187  81.463 114.949  0.00  0.00     0.149 HD
ENDBRANCH   6  13
BRANCH   5  18
ATOM     18  N   LIG d   1     -24.672  83.159 112.034  0.00  0.00     0.381 N 
ATOM     19  H   LIG d   1     -24.362  83.386 111.111  0.00  0.00    -0.090 HD
ATOM     20  H   LIG d   1     -25.565  83.594 112.183  0.00  0.00    -0.090 HD
ATOM     21  H   LIG d   1     -24.755  82.171 112.132  0.00  0.00    -0.090 HD
ENDBRANCH   5  18
BRANCH   3  22
ATOM     22  C   LIG d   1     -22.265  87.030 113.505  0.00  0.00     0.382 C 
ATOM     23  O   LIG d   1     -21.177  87.007 112.880  0.00  0.00    -0.241 OA
ATOM     24  O   LIG d   1     -22.748  88.123 113.855  0.00  0.00    -0.241 OA
ENDBRANCH   3  22
TORSDOF 7
ENDMDL
MODEL 8
REMARK VINA RESULT:      -4.8     25.410     27.766
REMARK  7 active torsions:
REMARK  status: ('A' for Active; 'I' for Inactive)
REMARK    1  A    between atoms: C_2  and  C_3 
REMARK    2  A    between atoms: C_3  and  O_6 
REMARK    3  A    between atoms: C_3  and  C_4 
REMARK    4  A    between atoms: C_7  and  O_6 
REMARK    5  A    between atoms: C_9  and  C_10 
REMARK    6  A    between atoms: N_15  and  C_14 
REMARK    7  A    between atoms: N_20  and  C_19 
REMARK       I    between atoms: C_22  and  N_20 
ROOT
ATOM      1  C   LIG d   1     -25.749  85.843 113.139  0.00  0.00     0.161 C 
ATOM      2  C   LIG d   1     -24.666  86.729 113.257  0.00  0.00     0.016 C 
ATOM      3  C   LIG d   1     -23.315  86.324 113.160  0.00  0.00     0.038 C 
ATOM      4  C   LIG d   1     -22.957  85.021 112.784  0.00  0.00     0.028 C 
ATOM      5  C   LIG d   1     -24.005  83.975 113.150  0.00  0.00    -0.047 C 
ATOM      6  C   LIG d   1     -25.381  84.438 112.619  0.00  0.00     0.091 C 
ENDROOT
BRANCH   1   7
ATOM      7  O   LIG d   1     -26.774  86.431 112.313  0.00  0.00    -0.368 OA
BRANCH   7   8
ATOM      8  C   LIG d   1     -27.564  87.478 112.926  0.00  0.00     0.119 C 
BRANCH   8   9
ATOM      9  C   LIG d   1     -29.048  87.134 112.694  0.00  0.00     0.028 C 
ATOM     10  C   LIG d   1     -29.247  85.688 112.209  0.00  0.00     0.006 C 
ENDBRANCH   8   9
BRANCH   8  11
ATOM     11  C   LIG d   1     -27.346  88.823 112.227  0.00  0.00     0.028 C 
ATOM     12  C   LIG d   1     -26.604  89.840 113.108  0.00  0.00     0.006 C 
ENDBRANCH   8  11
ENDBRANCH   7   8
ENDBRANCH   1   7
BRANCH   6  13
ATOM     13  N   LIG d   1     -26.478  83.513 113.007  0.00  0.00    -0.311 N 
ATOM     14  C   LIG d   1     -26.916  82.526 112.227  0.00  0.00     0.210 C 
ATOM     15  C   LIG d   1     -28.069  81.703 112.810  0.00  0.00     0.109 C 
ATOM     16  O   LIG d   1     -26.437  82.233 111.121  0.00  0.00    -0.276 OA
ATOM     17  H   LIG d   1     -26.903  83.659 113.902  0.00  0.00     0.149 HD
ENDBRANCH   6  13
BRANCH   5  18
ATOM     18  N   LIG d   1     -23.568  82.687 112.580  0.00  0.00     0.381 N 
ATOM     19  H   LIG d   1     -23.197  82.832 111.662  0.00  0.00    -0.090 HD
ATOM     20  H   LIG d   1     -24.364  82.078 112.506  0.00  0.00    -0.090 HD
ATOM     21  H   LIG d   1     -22.876  82.273 113.165  0.00  0.00    -0.090 HD
ENDBRANCH   5  18
BRANCH   3  22
ATOM     22  C   LIG d   1     -22.305  87.219 113.478  0.00  0.00     0.382 C 
ATOM     23  O   LIG d   1     -22.534  88.171 114.263  0.00  0.00    -0.241 OA
ATOM     24  O   LIG d   1     -21.178  87.111 112.957  0.00  0.00    -0.241 OA
ENDBRANCH   3  22
TORSDOF 7
ENDMDL
MODEL 9
REMARK VINA RESULT:      -4.7     24.722     26.893
REMARK  7 active torsions:
REMARK  status: ('A' for Active; 'I' for Inactive)
REMARK    1  A    between atoms: C_2  and  C_3 
REMARK    2  A    between atoms: C_3  and  O_6 
REMARK    3  A    between atoms: C_3  and  C_4 
REMARK    4  A    between atoms: C_7  and  O_6 
REMARK    5  A    between atoms: C_9  and  C_10 
REMARK    6  A    between atoms: N_15  and  C_14 
REMARK    7  A    between atoms: N_20  and  C_19 
REMARK       I    between atoms: C_22  and  N_20 
ROOT
ATOM      1  C   LIG d   1     -24.135  84.628 115.695  0.00  0.00     0.161 C 
ATOM      2  C   LIG d   1     -23.574  85.831 115.234  0.00  0.00     0.016 C 
ATOM      3  C   LIG d   1     -23.054  85.997 113.930  0.00  0.00     0.038 C 
ATOM      4  C   LIG d   1     -23.198  85.010 112.943  0.00  0.00     0.028 C 
ATOM      5  C   LIG d   1     -23.305  83.598 113.509  0.00  0.00    -0.047 C 
ATOM      6  C   LIG d   1     -24.402  83.576 114.598  0.00  0.00     0.091 C 
ENDROOT
BRANCH   1   7
ATOM      7  O   LIG d   1     -25.345  84.903 116.430  0.00  0.00    -0.368 OA
BRANCH   7   8
ATOM      8  C   LIG d   1     -26.052  86.113 116.062  0.00  0.00     0.119 C 
BRANCH   8   9
ATOM      9  C   LIG d   1     -26.619  86.729 117.356  0.00  0.00     0.028 C 
ATOM     10  C   LIG d   1     -26.760  88.257 117.265  0.00  0.00     0.006 C 
ENDBRANCH   8   9
BRANCH   8  11
ATOM     11  C   LIG d   1     -27.274  85.802 115.193  0.00  0.00     0.028 C 
ATOM     12  C   LIG d   1     -27.080  86.210 113.724  0.00  0.00     0.006 C 
ENDBRANCH   8  11
ENDBRANCH   7   8
ENDBRANCH   1   7
BRANCH   6  13
ATOM     13  N   LIG d   1     -24.513  82.251 115.263  0.00  0.00    -0.311 N 
ATOM     14  C   LIG d   1     -25.254  81.252 114.786  0.00  0.00     0.210 C 
ATOM     15  C   LIG d   1     -25.246  79.978 115.637  0.00  0.00     0.109 C 
ATOM     16  O   LIG d   1     -25.891  81.289 113.723  0.00  0.00    -0.276 OA
ATOM     17  H   LIG d   1     -24.004  82.124 116.115  0.00  0.00     0.149 HD
ENDBRANCH   6  13
BRANCH   5  18
ATOM     18  N   LIG d   1     -23.589  82.687 112.384  0.00  0.00     0.381 N 
ATOM     19  H   LIG d   1     -22.822  82.694 111.741  0.00  0.00    -0.090 HD
ATOM     20  H   LIG d   1     -24.408  83.012 111.901  0.00  0.00    -0.090 HD
ATOM     21  H   LIG d   1     -23.739  81.763 112.723  0.00  0.00    -0.090 HD
ENDBRANCH   5  18
BRANCH   3  22
ATOM     22  C   LIG d   1     -22.346  87.146 113.614  0.00  0.00     0.382 C 
ATOM     23  O   LIG d   1     -22.779  88.268 113.973  0.00  0.00    -0.241 OA
ATOM     24  O   LIG d   1     -21.303  87.079 112.936  0.00  0.00    -0.241 OA
ENDBRANCH   3  22
TORSDOF 7
ENDMDL
