MODEL 1
REMARK VINA RESULT:      -5.7      0.000      0.000
REMARK  7 active torsions:
REMARK  status: ('A' for Active; 'I' for Inactive)
REMARK    1  A    between atoms: C_2  and  C_3 
REMARK    2  A    between atoms: C_3  and  O_6 
REMARK    3  A    between atoms: C_3  and  C_4 
REMARK    4  A    between atoms: C_7  and  O_6 
REMARK    5  A    between atoms: C_9  and  C_10 
REMARK    6  A    between atoms: N_15  and  C_14 
REMARK    7  A    between atoms: N_20  and  C_19 
REMARK       I    between atoms: C_22  and  N_20 
ROOT
ATOM      1  C   LIG d   1       2.489  86.940 112.218  0.00  0.00     0.161 C 
ATOM      2  C   LIG d   1       2.591  88.337 112.329  0.00  0.00     0.016 C 
ATOM      3  C   LIG d   1       3.037  88.995 113.498  0.00  0.00     0.038 C 
ATOM      4  C   LIG d   1       3.559  88.289 114.592  0.00  0.00     0.028 C 
ATOM      5  C   LIG d   1       3.006  86.874 114.720  0.00  0.00    -0.047 C 
ATOM      6  C   LIG d   1       3.159  86.151 113.362  0.00  0.00     0.091 C 
ENDROOT
BRANCH   1   7
ATOM      7  O   LIG d   1       3.007  86.512 110.943  0.00  0.00    -0.368 OA
BRANCH   7   8
ATOM      8  C   LIG d   1       2.074  85.824 110.075  0.00  0.00     0.119 C 
BRANCH   8   9
ATOM      9  C   LIG d   1       0.667  85.993 110.681  0.00  0.00     0.028 C 
ATOM     10  C   LIG d   1      -0.152  84.692 110.632  0.00  0.00     0.006 C 
ENDBRANCH   8   9
BRANCH   8  11
ATOM     11  C   LIG d   1       2.332  84.315 110.063  0.00  0.00     0.028 C 
ATOM     12  C   LIG d   1       3.829  83.967 110.055  0.00  0.00     0.006 C 
ENDBRANCH   8  11
ENDBRANCH   7   8
ENDBRANCH   1   7
BRANCH   6  13
ATOM     13  N   LIG d   1       2.566  84.788 113.376  0.00  0.00    -0.311 N 
ATOM     14  C   LIG d   1       3.266  83.687 113.641  0.00  0.00     0.210 C 
ATOM     15  C   LIG d   1       2.466  82.382 113.582  0.00  0.00     0.109 C 
ATOM     16  O   LIG d   1       4.467  83.669 113.950  0.00  0.00    -0.276 OA
ATOM     17  H   LIG d   1       1.590  84.713 113.166  0.00  0.00     0.149 HD
ENDBRANCH   6  13
BRANCH   5  18
ATOM     18  N   LIG d   1       3.735  86.207 115.815  0.00  0.00     0.381 N 
ATOM     19  H   LIG d   1       4.554  86.734 116.047  0.00  0.00    -0.090 HD
ATOM     20  H   LIG d   1       4.023  85.296 115.507  0.00  0.00    -0.090 HD
ATOM     21  H   LIG d   1       3.147  86.125 116.615  0.00  0.00    -0.090 HD
ENDBRANCH   5  18
BRANCH   3  22
ATOM     22  C   LIG d   1       2.926  90.374 113.596  0.00  0.00     0.382 C 
ATOM     23  O   LIG d   1       2.897  91.076 112.556  0.00  0.00    -0.241 OA
ATOM     24  O   LIG d   1       2.900  90.928 114.711  0.00  0.00    -0.241 OA
ENDBRANCH   3  22
TORSDOF 7
ENDMDL
MODEL 2
REMARK VINA RESULT:      -5.4      9.319     12.103
REMARK  7 active torsions:
REMARK  status: ('A' for Active; 'I' for Inactive)
REMARK    1  A    between atoms: C_2  and  C_3 
REMARK    2  A    between atoms: C_3  and  O_6 
REMARK    3  A    between atoms: C_3  and  C_4 
REMARK    4  A    between atoms: C_7  and  O_6 
REMARK    5  A    between atoms: C_9  and  C_10 
REMARK    6  A    between atoms: N_15  and  C_14 
REMARK    7  A    between atoms: N_20  and  C_19 
REMARK       I    between atoms: C_22  and  N_20 
ROOT
ATOM      1  C   LIG d   1      -3.397  76.959 115.035  0.00  0.00     0.161 C 
ATOM      2  C   LIG d   1      -3.436  77.907 113.999  0.00  0.00     0.016 C 
ATOM      3  C   LIG d   1      -2.288  78.340 113.297  0.00  0.00     0.038 C 
ATOM      4  C   LIG d   1      -1.035  77.739 113.483  0.00  0.00     0.028 C 
ATOM      5  C   LIG d   1      -0.853  77.133 114.870  0.00  0.00    -0.047 C 
ATOM      6  C   LIG d   1      -2.055  76.210 115.176  0.00  0.00     0.091 C 
ENDROOT
BRANCH   1   7
ATOM      7  O   LIG d   1      -4.481  76.021 114.880  0.00  0.00    -0.368 OA
BRANCH   7   8
ATOM      8  C   LIG d   1      -5.762  76.432 115.416  0.00  0.00     0.119 C 
BRANCH   8   9
ATOM      9  C   LIG d   1      -5.517  76.970 116.839  0.00  0.00     0.028 C 
ATOM     10  C   LIG d   1      -5.969  78.432 117.000  0.00  0.00     0.006 C 
ENDBRANCH   8   9
BRANCH   8  11
ATOM     11  C   LIG d   1      -6.703  75.237 115.591  0.00  0.00     0.028 C 
ATOM     12  C   LIG d   1      -7.995  75.600 116.339  0.00  0.00     0.006 C 
ENDBRANCH   8  11
ENDBRANCH   7   8
ENDBRANCH   1   7
BRANCH   6  13
ATOM     13  N   LIG d   1      -1.999  75.642 116.548  0.00  0.00    -0.311 N 
ATOM     14  C   LIG d   1      -1.530  74.426 116.819  0.00  0.00     0.210 C 
ATOM     15  C   LIG d   1      -1.580  74.028 118.298  0.00  0.00     0.109 C 
ATOM     16  O   LIG d   1      -1.046  73.651 115.980  0.00  0.00    -0.276 OA
ATOM     17  H   LIG d   1      -2.343  76.215 117.293  0.00  0.00     0.149 HD
ENDBRANCH   6  13
BRANCH   5  18
ATOM     18  N   LIG d   1       0.439  76.421 114.880  0.00  0.00     0.381 N 
ATOM     19  H   LIG d   1       0.307  75.475 114.584  0.00  0.00    -0.090 HD
ATOM     20  H   LIG d   1       0.797  76.410 115.819  0.00  0.00    -0.090 HD
ATOM     21  H   LIG d   1       1.085  76.879 114.276  0.00  0.00    -0.090 HD
ENDBRANCH   5  18
BRANCH   3  22
ATOM     22  C   LIG d   1      -2.381  79.415 112.425  0.00  0.00     0.382 C 
ATOM     23  O   LIG d   1      -3.149  80.371 112.688  0.00  0.00    -0.241 OA
ATOM     24  O   LIG d   1      -1.738  79.419 111.358  0.00  0.00    -0.241 OA
ENDBRANCH   3  22
TORSDOF 7
ENDMDL
MODEL 3
REMARK VINA RESULT:      -5.2      8.754     11.248
REMARK  7 active torsions:
REMARK  status: ('A' for Active; 'I' for Inactive)
REMARK    1  A    between atoms: C_2  and  C_3 
REMARK    2  A    between atoms: C_3  and  O_6 
REMARK    3  A    between atoms: C_3  and  C_4 
REMARK    4  A    between atoms: C_7  and  O_6 
REMARK    5  A    between atoms: C_9  and  C_10 
REMARK    6  A    between atoms: N_15  and  C_14 
REMARK    7  A    between atoms: N_20  and  C_19 
REMARK       I    between atoms: C_22  and  N_20 
ROOT
ATOM      1  C   LIG d   1      -3.474  77.582 113.973  0.00  0.00     0.161 C 
ATOM      2  C   LIG d   1      -3.391  78.780 113.243  0.00  0.00     0.016 C 
ATOM      3  C   LIG d   1      -2.206  79.543 113.133  0.00  0.00     0.038 C 
ATOM      4  C   LIG d   1      -0.977  79.080 113.624  0.00  0.00     0.028 C 
ATOM      5  C   LIG d   1      -1.118  78.122 114.802  0.00  0.00    -0.047 C 
ATOM      6  C   LIG d   1      -2.116  77.004 114.423  0.00  0.00     0.091 C 
ENDROOT
BRANCH   1   7
ATOM      7  O   LIG d   1      -4.212  76.600 113.219  0.00  0.00    -0.368 OA
BRANCH   7   8
ATOM      8  C   LIG d   1      -5.422  76.098 113.838  0.00  0.00     0.119 C 
BRANCH   8   9
ATOM      9  C   LIG d   1      -5.273  74.570 113.972  0.00  0.00     0.028 C 
ATOM     10  C   LIG d   1      -5.696  74.060 115.360  0.00  0.00     0.006 C 
ENDBRANCH   8   9
BRANCH   8  11
ATOM     11  C   LIG d   1      -6.639  76.310 112.934  0.00  0.00     0.028 C 
ATOM     12  C   LIG d   1      -6.280  76.976 111.596  0.00  0.00     0.006 C 
ENDBRANCH   8  11
ENDBRANCH   7   8
ENDBRANCH   1   7
BRANCH   6  13
ATOM     13  N   LIG d   1      -2.376  76.070 115.550  0.00  0.00    -0.311 N 
ATOM     14  C   LIG d   1      -1.696  74.941 115.738  0.00  0.00     0.210 C 
ATOM     15  C   LIG d   1      -2.138  74.114 116.950  0.00  0.00     0.109 C 
ATOM     16  O   LIG d   1      -0.747  74.561 115.036  0.00  0.00    -0.276 OA
ATOM     17  H   LIG d   1      -3.109  76.316 116.186  0.00  0.00     0.149 HD
ENDBRANCH   6  13
BRANCH   5  18
ATOM     18  N   LIG d   1       0.228  77.610 115.125  0.00  0.00     0.381 N 
ATOM     19  H   LIG d   1       0.683  78.232 115.762  0.00  0.00    -0.090 HD
ATOM     20  H   LIG d   1       0.771  77.571 114.281  0.00  0.00    -0.090 HD
ATOM     21  H   LIG d   1       0.160  76.701 115.528  0.00  0.00    -0.090 HD
ENDBRANCH   5  18
BRANCH   3  22
ATOM     22  C   LIG d   1      -2.252  80.805 112.560  0.00  0.00     0.382 C 
ATOM     23  O   LIG d   1      -3.351  81.399 112.439  0.00  0.00    -0.241 OA
ATOM     24  O   LIG d   1      -1.216  81.338 112.121  0.00  0.00    -0.241 OA
ENDBRANCH   3  22
TORSDOF 7
ENDMDL
MODEL 4
REMARK VINA RESULT:      -5.0     26.583     28.554
REMARK  7 active torsions:
REMARK  status: ('A' for Active; 'I' for Inactive)
REMARK    1  A    between atoms: C_2  and  C_3 
REMARK    2  A    between atoms: C_3  and  O_6 
REMARK    3  A    between atoms: C_3  and  C_4 
REMARK    4  A    between atoms: C_7  and  O_6 
REMARK    5  A    between atoms: C_9  and  C_10 
REMARK    6  A    between atoms: N_15  and  C_14 
REMARK    7  A    between atoms: N_20  and  C_19 
REMARK       I    between atoms: C_22  and  N_20 
ROOT
ATOM      1  C   LIG d   1     -25.701  85.798 112.787  0.00  0.00     0.161 C 
ATOM      2  C   LIG d   1     -24.726  86.741 113.151  0.00  0.00     0.016 C 
ATOM      3  C   LIG d   1     -23.367  86.413 113.364  0.00  0.00     0.038 C 
ATOM      4  C   LIG d   1     -22.859  85.137 113.078  0.00  0.00     0.028 C 
ATOM      5  C   LIG d   1     -23.901  84.030 113.193  0.00  0.00    -0.047 C 
ATOM      6  C   LIG d   1     -25.144  84.423 112.362  0.00  0.00     0.091 C 
ENDROOT
BRANCH   1   7
ATOM      7  O   LIG d   1     -26.542  86.340 111.749  0.00  0.00    -0.368 OA
BRANCH   7   8
ATOM      8  C   LIG d   1     -27.816  86.880 112.178  0.00  0.00     0.119 C 
BRANCH   8   9
ATOM      9  C   LIG d   1     -28.909  85.879 111.758  0.00  0.00     0.028 C 
ATOM     10  C   LIG d   1     -29.843  86.448 110.677  0.00  0.00     0.006 C 
ENDBRANCH   8   9
BRANCH   8  11
ATOM     11  C   LIG d   1     -28.149  88.178 111.437  0.00  0.00     0.028 C 
ATOM     12  C   LIG d   1     -27.094  89.275 111.652  0.00  0.00     0.006 C 
ENDBRANCH   8  11
ENDBRANCH   7   8
ENDBRANCH   1   7
BRANCH   6  13
ATOM     13  N   LIG d   1     -26.246  83.433 112.487  0.00  0.00    -0.311 N 
ATOM     14  C   LIG d   1     -26.860  82.883 111.441  0.00  0.00     0.210 C 
ATOM     15  C   LIG d   1     -27.982  81.902 111.792  0.00  0.00     0.109 C 
ATOM     16  O   LIG d   1     -26.560  83.091 110.255  0.00  0.00    -0.276 OA
ATOM     17  H   LIG d   1     -26.532  83.183 113.414  0.00  0.00     0.149 HD
ENDBRANCH   6  13
BRANCH   5  18
ATOM     18  N   LIG d   1     -23.272  82.776 112.735  0.00  0.00     0.381 N 
ATOM     19  H   LIG d   1     -23.764  82.421 111.939  0.00  0.00    -0.090 HD
ATOM     20  H   LIG d   1     -23.331  82.095 113.472  0.00  0.00    -0.090 HD
ATOM     21  H   LIG d   1     -22.318  82.940 112.499  0.00  0.00    -0.090 HD
ENDBRANCH   5  18
BRANCH   3  22
ATOM     22  C   LIG d   1     -22.509  87.357 113.907  0.00  0.00     0.382 C 
ATOM     23  O   LIG d   1     -22.898  88.089 114.849  0.00  0.00    -0.241 OA
ATOM     24  O   LIG d   1     -21.367  87.517 113.438  0.00  0.00    -0.241 OA
ENDBRANCH   3  22
TORSDOF 7
ENDMDL
MODEL 5
REMARK VINA RESULT:      -4.9      1.944      3.688
REMARK  7 active torsions:
REMARK  status: ('A' for Active; 'I' for Inactive)
REMARK    1  A    between atoms: C_2  and  C_3 
REMARK    2  A    between atoms: C_3  and  O_6 
REMARK    3  A    between atoms: C_3  and  C_4 
REMARK    4  A    between atoms: C_7  and  O_6 
REMARK    5  A    between atoms: C_9  and  C_10 
REMARK    6  A    between atoms: N_15  and  C_14 
REMARK    7  A    between atoms: N_20  and  C_19 
REMARK       I    between atoms: C_22  and  N_20 
ROOT
ATOM      1  C   LIG d   1       3.730  86.663 113.764  0.00  0.00     0.161 C 
ATOM      2  C   LIG d   1       3.603  88.039 114.020  0.00  0.00     0.016 C 
ATOM      3  C   LIG d   1       2.903  88.927 113.172  0.00  0.00     0.038 C 
ATOM      4  C   LIG d   1       2.149  88.470 112.080  0.00  0.00     0.028 C 
ATOM      5  C   LIG d   1       2.662  87.158 111.496  0.00  0.00    -0.047 C 
ATOM      6  C   LIG d   1       2.820  86.129 112.638  0.00  0.00     0.091 C 
ENDROOT
BRANCH   1   7
ATOM      7  O   LIG d   1       3.514  85.918 114.979  0.00  0.00    -0.368 OA
BRANCH   7   8
ATOM      8  C   LIG d   1       2.132  85.658 115.330  0.00  0.00     0.119 C 
BRANCH   8   9
ATOM      9  C   LIG d   1       1.844  86.392 116.654  0.00  0.00     0.028 C 
ATOM     10  C   LIG d   1       0.364  86.783 116.799  0.00  0.00     0.006 C 
ENDBRANCH   8   9
BRANCH   8  11
ATOM     11  C   LIG d   1       1.904  84.174 115.630  0.00  0.00     0.028 C 
ATOM     12  C   LIG d   1       3.181  83.332 115.479  0.00  0.00     0.006 C 
ENDBRANCH   8  11
ENDBRANCH   7   8
ENDBRANCH   1   7
BRANCH   6  13
ATOM     13  N   LIG d   1       3.397  84.843 112.166  0.00  0.00    -0.311 N 
ATOM     14  C   LIG d   1       2.659  83.782 111.845  0.00  0.00     0.210 C 
ATOM     15  C   LIG d   1       3.455  82.551 111.401  0.00  0.00     0.109 C 
ATOM     16  O   LIG d   1       1.419  83.754 111.856  0.00  0.00    -0.276 OA
ATOM     17  H   LIG d   1       4.395  84.788 112.098  0.00  0.00     0.149 HD
ENDBRANCH   6  13
BRANCH   5  18
ATOM     18  N   LIG d   1       1.705  86.729 110.459  0.00  0.00     0.381 N 
ATOM     19  H   LIG d   1       2.115  86.841 109.553  0.00  0.00    -0.090 HD
ATOM     20  H   LIG d   1       0.888  87.311 110.509  0.00  0.00    -0.090 HD
ATOM     21  H   LIG d   1       1.453  85.776 110.601  0.00  0.00    -0.090 HD
ENDBRANCH   5  18
BRANCH   3  22
ATOM     22  C   LIG d   1       2.987  90.294 113.389  0.00  0.00     0.382 C 
ATOM     23  O   LIG d   1       2.870  91.090 112.426  0.00  0.00    -0.241 OA
ATOM     24  O   LIG d   1       3.222  90.739 114.528  0.00  0.00    -0.241 OA
ENDBRANCH   3  22
TORSDOF 7
ENDMDL
MODEL 6
REMARK VINA RESULT:      -4.9     25.694     27.691
REMARK  7 active torsions:
REMARK  status: ('A' for Active; 'I' for Inactive)
REMARK    1  A    between atoms: C_2  and  C_3 
REMARK    2  A    between atoms: C_3  and  O_6 
REMARK    3  A    between atoms: C_3  and  C_4 
REMARK    4  A    between atoms: C_7  and  O_6 
REMARK    5  A    between atoms: C_9  and  C_10 
REMARK    6  A    between atoms: N_15  and  C_14 
REMARK    7  A    between atoms: N_20  and  C_19 
REMARK       I    between atoms: C_22  and  N_20 
ROOT
ATOM      1  C   LIG d   1     -23.752  84.015 112.668  0.00  0.00     0.161 C 
ATOM      2  C   LIG d   1     -22.975  85.024 113.261  0.00  0.00     0.016 C 
ATOM      3  C   LIG d   1     -23.447  86.338 113.486  0.00  0.00     0.038 C 
ATOM      4  C   LIG d   1     -24.786  86.692 113.269  0.00  0.00     0.028 C 
ATOM      5  C   LIG d   1     -25.471  85.847 112.201  0.00  0.00    -0.047 C 
ATOM      6  C   LIG d   1     -25.251  84.352 112.527  0.00  0.00     0.091 C 
ENDROOT
BRANCH   1   7
ATOM      7  O   LIG d   1     -23.582  82.779 113.390  0.00  0.00    -0.368 OA
BRANCH   7   8
ATOM      8  C   LIG d   1     -24.306  82.667 114.641  0.00  0.00     0.119 C 
BRANCH   8   9
ATOM      9  C   LIG d   1     -23.276  82.360 115.745  0.00  0.00     0.028 C 
ATOM     10  C   LIG d   1     -22.985  83.582 116.632  0.00  0.00     0.006 C 
ENDBRANCH   8   9
BRANCH   8  11
ATOM     11  C   LIG d   1     -25.257  81.467 114.628  0.00  0.00     0.028 C 
ATOM     12  C   LIG d   1     -24.518  80.120 114.634  0.00  0.00     0.006 C 
ENDBRANCH   8  11
ENDBRANCH   7   8
ENDBRANCH   1   7
BRANCH   6  13
ATOM     13  N   LIG d   1     -25.817  83.455 111.485  0.00  0.00    -0.311 N 
ATOM     14  C   LIG d   1     -27.039  82.929 111.556  0.00  0.00     0.210 C 
ATOM     15  C   LIG d   1     -27.418  82.016 110.386  0.00  0.00     0.109 C 
ATOM     16  O   LIG d   1     -27.856  83.157 112.460  0.00  0.00    -0.276 OA
ATOM     17  H   LIG d   1     -25.233  83.242 110.700  0.00  0.00     0.149 HD
ENDBRANCH   6  13
BRANCH   5  18
ATOM     18  N   LIG d   1     -26.896  86.229 112.175  0.00  0.00     0.381 N 
ATOM     19  H   LIG d   1     -27.389  85.654 111.521  0.00  0.00    -0.090 HD
ATOM     20  H   LIG d   1     -26.970  87.185 111.872  0.00  0.00    -0.090 HD
ATOM     21  H   LIG d   1     -27.292  86.129 113.083  0.00  0.00    -0.090 HD
ENDBRANCH   5  18
BRANCH   3  22
ATOM     22  C   LIG d   1     -22.563  87.324 113.896  0.00  0.00     0.382 C 
ATOM     23  O   LIG d   1     -21.409  87.376 113.405  0.00  0.00    -0.241 OA
ATOM     24  O   LIG d   1     -22.889  88.136 114.783  0.00  0.00    -0.241 OA
ENDBRANCH   3  22
TORSDOF 7
ENDMDL
MODEL 7
REMARK VINA RESULT:      -4.8     25.518     27.564
REMARK  7 active torsions:
REMARK  status: ('A' for Active; 'I' for Inactive)
REMARK    1  A    between atoms: C_2  and  C_3 
REMARK    2  A    between atoms: C_3  and  O_6 
REMARK    3  A    between atoms: C_3  and  C_4 
REMARK    4  A    between atoms: C_7  and  O_6 
REMARK    5  A    between atoms: C_9  and  C_10 
REMARK    6  A    between atoms: N_15  and  C_14 
REMARK    7  A    between atoms: N_20  and  C_19 
REMARK       I    between atoms: C_22  and  N_20 
ROOT
ATOM      1  C   LIG d   1     -25.084  85.078 115.347  0.00  0.00     0.161 C 
ATOM      2  C   LIG d   1     -24.074  84.888 116.306  0.00  0.00     0.016 C 
ATOM      3  C   LIG d   1     -22.944  84.065 116.093  0.00  0.00     0.038 C 
ATOM      4  C   LIG d   1     -22.669  83.492 114.842  0.00  0.00     0.028 C 
ATOM      5  C   LIG d   1     -23.917  83.246 114.001  0.00  0.00    -0.047 C 
ATOM      6  C   LIG d   1     -24.745  84.550 113.938  0.00  0.00     0.091 C 
ENDROOT
BRANCH   1   7
ATOM      7  O   LIG d   1     -25.444  86.472 115.287  0.00  0.00    -0.368 OA
BRANCH   7   8
ATOM      8  C   LIG d   1     -24.809  87.250 114.243  0.00  0.00     0.119 C 
BRANCH   8   9
ATOM      9  C   LIG d   1     -23.525  87.862 114.837  0.00  0.00     0.028 C 
ATOM     10  C   LIG d   1     -22.292  87.613 113.952  0.00  0.00     0.006 C 
ENDBRANCH   8   9
BRANCH   8  11
ATOM     11  C   LIG d   1     -25.675  88.444 113.832  0.00  0.00     0.028 C 
ATOM     12  C   LIG d   1     -26.601  88.129 112.646  0.00  0.00     0.006 C 
ENDBRANCH   8  11
ENDBRANCH   7   8
ENDBRANCH   1   7
BRANCH   6  13
ATOM     13  N   LIG d   1     -26.025  84.374 113.204  0.00  0.00    -0.311 N 
ATOM     14  C   LIG d   1     -26.171  84.646 111.908  0.00  0.00     0.210 C 
ATOM     15  C   LIG d   1     -27.580  84.413 111.353  0.00  0.00     0.109 C 
ATOM     16  O   LIG d   1     -25.260  85.027 111.159  0.00  0.00    -0.276 OA
ATOM     17  H   LIG d   1     -26.809  84.038 113.728  0.00  0.00     0.149 HD
ENDBRANCH   6  13
BRANCH   5  18
ATOM     18  N   LIG d   1     -23.475  82.777 112.674  0.00  0.00     0.381 N 
ATOM     19  H   LIG d   1     -22.835  82.016 112.780  0.00  0.00    -0.090 HD
ATOM     20  H   LIG d   1     -22.999  83.527 112.206  0.00  0.00    -0.090 HD
ATOM     21  H   LIG d   1     -24.262  82.486 112.136  0.00  0.00    -0.090 HD
ENDBRANCH   5  18
BRANCH   3  22
ATOM     22  C   LIG d   1     -22.096  83.776 117.150  0.00  0.00     0.382 C 
ATOM     23  O   LIG d   1     -22.244  84.360 118.251  0.00  0.00    -0.241 OA
ATOM     24  O   LIG d   1     -21.156  82.971 117.005  0.00  0.00    -0.241 OA
ENDBRANCH   3  22
TORSDOF 7
ENDMDL
MODEL 8
REMARK VINA RESULT:      -4.7     26.251     28.167
REMARK  7 active torsions:
REMARK  status: ('A' for Active; 'I' for Inactive)
REMARK    1  A    between atoms: C_2  and  C_3 
REMARK    2  A    between atoms: C_3  and  O_6 
REMARK    3  A    between atoms: C_3  and  C_4 
REMARK    4  A    between atoms: C_7  and  O_6 
REMARK    5  A    between atoms: C_9  and  C_10 
REMARK    6  A    between atoms: N_15  and  C_14 
REMARK    7  A    between atoms: N_20  and  C_19 
REMARK       I    between atoms: C_22  and  N_20 
ROOT
ATOM      1  C   LIG d   1     -25.408  85.061 114.651  0.00  0.00     0.161 C 
ATOM      2  C   LIG d   1     -24.541  86.149 114.455  0.00  0.00     0.016 C 
ATOM      3  C   LIG d   1     -23.322  86.055 113.744  0.00  0.00     0.038 C 
ATOM      4  C   LIG d   1     -22.958  84.893 113.047  0.00  0.00     0.028 C 
ATOM      5  C   LIG d   1     -23.557  83.620 113.637  0.00  0.00    -0.047 C 
ATOM      6  C   LIG d   1     -25.081  83.813 113.804  0.00  0.00     0.091 C 
ENDROOT
BRANCH   1   7
ATOM      7  O   LIG d   1     -26.770  85.476 114.429  0.00  0.00    -0.368 OA
BRANCH   7   8
ATOM      8  C   LIG d   1     -27.057  86.053 113.131  0.00  0.00     0.119 C 
BRANCH   8   9
ATOM      9  C   LIG d   1     -27.519  87.505 113.362  0.00  0.00     0.028 C 
ATOM     10  C   LIG d   1     -26.715  88.516 112.528  0.00  0.00     0.006 C 
ENDBRANCH   8   9
BRANCH   8  11
ATOM     11  C   LIG d   1     -28.241  85.352 112.459  0.00  0.00     0.028 C 
ATOM     12  C   LIG d   1     -27.804  84.282 111.446  0.00  0.00     0.006 C 
ENDBRANCH   8  11
ENDBRANCH   7   8
ENDBRANCH   1   7
BRANCH   6  13
ATOM     13  N   LIG d   1     -25.733  82.646 114.453  0.00  0.00    -0.311 N 
ATOM     14  C   LIG d   1     -26.209  81.602 113.777  0.00  0.00     0.210 C 
ATOM     15  C   LIG d   1     -26.860  80.516 114.639  0.00  0.00     0.109 C 
ATOM     16  O   LIG d   1     -26.125  81.458 112.548  0.00  0.00    -0.276 OA
ATOM     17  H   LIG d   1     -25.815  82.666 115.451  0.00  0.00     0.149 HD
ENDBRANCH   6  13
BRANCH   5  18
ATOM     18  N   LIG d   1     -23.210  82.505 112.736  0.00  0.00     0.381 N 
ATOM     19  H   LIG d   1     -23.429  82.753 111.791  0.00  0.00    -0.090 HD
ATOM     20  H   LIG d   1     -23.759  81.702 112.986  0.00  0.00    -0.090 HD
ATOM     21  H   LIG d   1     -22.240  82.292 112.815  0.00  0.00    -0.090 HD
ENDBRANCH   5  18
BRANCH   3  22
ATOM     22  C   LIG d   1     -22.434  87.119 113.759  0.00  0.00     0.382 C 
ATOM     23  O   LIG d   1     -22.771  88.210 114.280  0.00  0.00    -0.241 OA
ATOM     24  O   LIG d   1     -21.316  87.017 113.219  0.00  0.00    -0.241 OA
ENDBRANCH   3  22
TORSDOF 7
ENDMDL
MODEL 9
REMARK VINA RESULT:      -4.6      1.942      2.819
REMARK  7 active torsions:
REMARK  status: ('A' for Active; 'I' for Inactive)
REMARK    1  A    between atoms: C_2  and  C_3 
REMARK    2  A    between atoms: C_3  and  O_6 
REMARK    3  A    between atoms: C_3  and  C_4 
REMARK    4  A    between atoms: C_7  and  O_6 
REMARK    5  A    between atoms: C_9  and  C_10 
REMARK    6  A    between atoms: N_15  and  C_14 
REMARK    7  A    between atoms: N_20  and  C_19 
REMARK       I    between atoms: C_22  and  N_20 
ROOT
ATOM      1  C   LIG d   1       1.575  84.764 113.315  0.00  0.00     0.161 C 
ATOM      2  C   LIG d   1       1.739  86.015 112.698  0.00  0.00     0.016 C 
ATOM      3  C   LIG d   1       2.728  86.949 113.084  0.00  0.00     0.038 C 
ATOM      4  C   LIG d   1       3.724  86.631 114.018  0.00  0.00     0.028 C 
ATOM      5  C   LIG d   1       3.293  85.570 115.026  0.00  0.00    -0.047 C 
ATOM      6  C   LIG d   1       2.723  84.354 114.261  0.00  0.00     0.091 C 
ENDROOT
BRANCH   1   7
ATOM      7  O   LIG d   1       1.365  83.749 112.313  0.00  0.00    -0.368 OA
BRANCH   7   8
ATOM      8  C   LIG d   1       2.556  83.094 111.810  0.00  0.00     0.119 C 
BRANCH   8   9
ATOM      9  C   LIG d   1       2.687  83.452 110.317  0.00  0.00     0.028 C 
ATOM     10  C   LIG d   1       3.803  84.477 110.055  0.00  0.00     0.006 C 
ENDBRANCH   8   9
BRANCH   8  11
ATOM     11  C   LIG d   1       2.412  81.569 111.851  0.00  0.00     0.028 C 
ATOM     12  C   LIG d   1       0.946  81.109 111.830  0.00  0.00     0.006 C 
ENDBRANCH   8  11
ENDBRANCH   7   8
ENDBRANCH   1   7
BRANCH   6  13
ATOM     13  N   LIG d   1       2.200  83.304 115.174  0.00  0.00    -0.311 N 
ATOM     14  C   LIG d   1       2.909  82.241 115.550  0.00  0.00     0.210 C 
ATOM     15  C   LIG d   1       2.173  81.271 116.480  0.00  0.00     0.109 C 
ATOM     16  O   LIG d   1       4.087  82.026 115.228  0.00  0.00    -0.276 OA
ATOM     17  H   LIG d   1       1.263  83.416 115.508  0.00  0.00     0.149 HD
ENDBRANCH   6  13
BRANCH   5  18
ATOM     18  N   LIG d   1       4.469  85.235 115.851  0.00  0.00     0.381 N 
ATOM     19  H   LIG d   1       5.199  85.898 115.684  0.00  0.00    -0.090 HD
ATOM     20  H   LIG d   1       4.803  84.325 115.587  0.00  0.00    -0.090 HD
ATOM     21  H   LIG d   1       4.221  85.239 116.816  0.00  0.00    -0.090 HD
ENDBRANCH   5  18
BRANCH   3  22
ATOM     22  C   LIG d   1       2.702  88.233 112.560  0.00  0.00     0.382 C 
ATOM     23  O   LIG d   1       3.639  89.030 112.808  0.00  0.00    -0.241 OA
ATOM     24  O   LIG d   1       1.732  88.619 111.881  0.00  0.00    -0.241 OA
ENDBRANCH   3  22
TORSDOF 7
ENDMDL
