MODEL 1
REMARK VINA RESULT:      -5.8      0.000      0.000
REMARK  7 active torsions:
REMARK  status: ('A' for Active; 'I' for Inactive)
REMARK    1  A    between atoms: C_2  and  C_3 
REMARK    2  A    between atoms: C_3  and  O_6 
REMARK    3  A    between atoms: C_3  and  C_4 
REMARK    4  A    between atoms: C_7  and  O_6 
REMARK    5  A    between atoms: C_9  and  C_10 
REMARK    6  A    between atoms: N_15  and  C_14 
REMARK    7  A    between atoms: N_20  and  C_19 
REMARK       I    between atoms: C_22  and  N_20 
ROOT
ATOM      1  C   LIG d   1       0.342  83.074 112.312  0.00  0.00     0.161 C 
ATOM      2  C   LIG d   1      -0.912  82.567 112.690  0.00  0.00     0.016 C 
ATOM      3  C   LIG d   1      -1.375  81.282 112.324  0.00  0.00     0.038 C 
ATOM      4  C   LIG d   1      -0.547  80.353 111.677  0.00  0.00     0.028 C 
ATOM      5  C   LIG d   1       0.547  80.999 110.834  0.00  0.00    -0.047 C 
ATOM      6  C   LIG d   1       1.303  82.033 111.700  0.00  0.00     0.091 C 
ENDROOT
BRANCH   1   7
ATOM      7  O   LIG d   1       0.963  83.730 113.435  0.00  0.00    -0.368 OA
BRANCH   7   8
ATOM      8  C   LIG d   1       0.936  85.178 113.422  0.00  0.00     0.119 C 
BRANCH   8   9
ATOM      9  C   LIG d   1       2.390  85.667 113.276  0.00  0.00     0.028 C 
ATOM     10  C   LIG d   1       3.404  84.685 113.887  0.00  0.00     0.006 C 
ENDBRANCH   8   9
BRANCH   8  11
ATOM     11  C   LIG d   1       0.453  85.739 114.763  0.00  0.00     0.028 C 
ATOM     12  C   LIG d   1      -0.018  84.642 115.732  0.00  0.00     0.006 C 
ENDBRANCH   8  11
ENDBRANCH   7   8
ENDBRANCH   1   7
BRANCH   6  13
ATOM     13  N   LIG d   1       2.335  82.772 110.928  0.00  0.00    -0.311 N 
ATOM     14  C   LIG d   1       3.620  82.421 110.898  0.00  0.00     0.210 C 
ATOM     15  C   LIG d   1       4.520  83.332 110.057  0.00  0.00     0.109 C 
ATOM     16  O   LIG d   1       4.093  81.423 111.462  0.00  0.00    -0.276 OA
ATOM     17  H   LIG d   1       2.032  83.578 110.416  0.00  0.00     0.149 HD
ENDBRANCH   6  13
BRANCH   5  18
ATOM     18  N   LIG d   1       1.418  79.921 110.329  0.00  0.00     0.381 N 
ATOM     19  H   LIG d   1       2.373  80.129 110.541  0.00  0.00    -0.090 HD
ATOM     20  H   LIG d   1       1.321  79.865 109.331  0.00  0.00    -0.090 HD
ATOM     21  H   LIG d   1       1.160  79.052 110.744  0.00  0.00    -0.090 HD
ENDBRANCH   5  18
BRANCH   3  22
ATOM     22  C   LIG d   1      -2.693  80.930 112.571  0.00  0.00     0.382 C 
ATOM     23  O   LIG d   1      -3.610  81.767 112.389  0.00  0.00    -0.241 OA
ATOM     24  O   LIG d   1      -2.973  79.800 113.014  0.00  0.00    -0.241 OA
ENDBRANCH   3  22
TORSDOF 7
ENDMDL
MODEL 2
REMARK VINA RESULT:      -5.4      2.558      4.436
REMARK  7 active torsions:
REMARK  status: ('A' for Active; 'I' for Inactive)
REMARK    1  A    between atoms: C_2  and  C_3 
REMARK    2  A    between atoms: C_3  and  O_6 
REMARK    3  A    between atoms: C_3  and  C_4 
REMARK    4  A    between atoms: C_7  and  O_6 
REMARK    5  A    between atoms: C_9  and  C_10 
REMARK    6  A    between atoms: N_15  and  C_14 
REMARK    7  A    between atoms: N_20  and  C_19 
REMARK       I    between atoms: C_22  and  N_20 
ROOT
ATOM      1  C   LIG d   1      -0.496  81.460 112.127  0.00  0.00     0.161 C 
ATOM      2  C   LIG d   1      -1.044  80.180 111.945  0.00  0.00     0.016 C 
ATOM      3  C   LIG d   1      -1.953  79.586 112.851  0.00  0.00     0.038 C 
ATOM      4  C   LIG d   1      -2.496  80.299 113.930  0.00  0.00     0.028 C 
ATOM      5  C   LIG d   1      -1.589  81.415 114.436  0.00  0.00    -0.047 C 
ATOM      6  C   LIG d   1      -1.162  82.296 113.240  0.00  0.00     0.091 C 
ENDROOT
BRANCH   1   7
ATOM      7  O   LIG d   1      -0.516  82.182 110.879  0.00  0.00    -0.368 OA
BRANCH   7   8
ATOM      8  C   LIG d   1       0.769  82.386 110.241  0.00  0.00     0.119 C 
BRANCH   8   9
ATOM      9  C   LIG d   1       1.848  81.811 111.179  0.00  0.00     0.028 C 
ATOM     10  C   LIG d   1       2.821  80.871 110.448  0.00  0.00     0.006 C 
ENDBRANCH   8   9
BRANCH   8  11
ATOM     11  C   LIG d   1       1.096  83.876 110.111  0.00  0.00     0.028 C 
ATOM     12  C   LIG d   1      -0.149  84.771 110.217  0.00  0.00     0.006 C 
ENDBRANCH   8  11
ENDBRANCH   7   8
ENDBRANCH   1   7
BRANCH   6  13
ATOM     13  N   LIG d   1      -0.206  83.363 113.634  0.00  0.00    -0.311 N 
ATOM     14  C   LIG d   1      -0.582  84.592 113.986  0.00  0.00     0.210 C 
ATOM     15  C   LIG d   1       0.566  85.544 114.337  0.00  0.00     0.109 C 
ATOM     16  O   LIG d   1      -1.759  84.974 114.071  0.00  0.00    -0.276 OA
ATOM     17  H   LIG d   1       0.768  83.130 113.623  0.00  0.00     0.149 HD
ENDBRANCH   6  13
BRANCH   5  18
ATOM     18  N   LIG d   1      -2.334  82.162 115.467  0.00  0.00     0.381 N 
ATOM     19  H   LIG d   1      -3.301  81.908 115.437  0.00  0.00    -0.090 HD
ATOM     20  H   LIG d   1      -2.260  83.145 115.274  0.00  0.00    -0.090 HD
ATOM     21  H   LIG d   1      -1.959  81.964 116.369  0.00  0.00    -0.090 HD
ENDBRANCH   5  18
BRANCH   3  22
ATOM     22  C   LIG d   1      -2.297  78.251 112.703  0.00  0.00     0.382 C 
ATOM     23  O   LIG d   1      -3.296  77.933 112.013  0.00  0.00    -0.241 OA
ATOM     24  O   LIG d   1      -1.648  77.363 113.288  0.00  0.00    -0.241 OA
ENDBRANCH   3  22
TORSDOF 7
ENDMDL
MODEL 3
REMARK VINA RESULT:      -5.4      2.383      4.479
REMARK  7 active torsions:
REMARK  status: ('A' for Active; 'I' for Inactive)
REMARK    1  A    between atoms: C_2  and  C_3 
REMARK    2  A    between atoms: C_3  and  O_6 
REMARK    3  A    between atoms: C_3  and  C_4 
REMARK    4  A    between atoms: C_7  and  O_6 
REMARK    5  A    between atoms: C_9  and  C_10 
REMARK    6  A    between atoms: N_15  and  C_14 
REMARK    7  A    between atoms: N_20  and  C_19 
REMARK       I    between atoms: C_22  and  N_20 
ROOT
ATOM      1  C   LIG d   1       2.260  83.060 113.072  0.00  0.00     0.161 C 
ATOM      2  C   LIG d   1       1.254  82.314 112.435  0.00  0.00     0.016 C 
ATOM      3  C   LIG d   1      -0.114  82.666 112.467  0.00  0.00     0.038 C 
ATOM      4  C   LIG d   1      -0.555  83.881 113.014  0.00  0.00     0.028 C 
ATOM      5  C   LIG d   1       0.361  84.419 114.108  0.00  0.00    -0.047 C 
ATOM      6  C   LIG d   1       1.813  84.447 113.579  0.00  0.00     0.091 C 
ENDROOT
BRANCH   1   7
ATOM      7  O   LIG d   1       3.399  83.189 112.199  0.00  0.00    -0.368 OA
BRANCH   7   8
ATOM      8  C   LIG d   1       3.110  83.264 110.781  0.00  0.00     0.119 C 
BRANCH   8   9
ATOM      9  C   LIG d   1       4.110  82.342 110.056  0.00  0.00     0.028 C 
ATOM     10  C   LIG d   1       3.658  80.872 110.055  0.00  0.00     0.006 C 
ENDBRANCH   8   9
BRANCH   8  11
ATOM     11  C   LIG d   1       3.380  84.667 110.230  0.00  0.00     0.028 C 
ATOM     12  C   LIG d   1       2.121  85.548 110.201  0.00  0.00     0.006 C 
ENDBRANCH   8  11
ENDBRANCH   7   8
ENDBRANCH   1   7
BRANCH   6  13
ATOM     13  N   LIG d   1       2.786  84.882 114.616  0.00  0.00    -0.311 N 
ATOM     14  C   LIG d   1       3.183  86.144 114.764  0.00  0.00     0.210 C 
ATOM     15  C   LIG d   1       4.207  86.373 115.881  0.00  0.00     0.109 C 
ATOM     16  O   LIG d   1       2.761  87.102 114.098  0.00  0.00    -0.276 OA
ATOM     17  H   LIG d   1       3.155  84.174 115.220  0.00  0.00     0.149 HD
ENDBRANCH   6  13
BRANCH   5  18
ATOM     18  N   LIG d   1      -0.140  85.753 114.492  0.00  0.00     0.381 N 
ATOM     19  H   LIG d   1      -1.122  85.705 114.679  0.00  0.00    -0.090 HD
ATOM     20  H   LIG d   1       0.005  86.387 113.727  0.00  0.00    -0.090 HD
ATOM     21  H   LIG d   1       0.343  86.079 115.300  0.00  0.00    -0.090 HD
ENDBRANCH   5  18
BRANCH   3  22
ATOM     22  C   LIG d   1      -1.064  81.780 111.982  0.00  0.00     0.382 C 
ATOM     23  O   LIG d   1      -2.285  82.030 112.123  0.00  0.00    -0.241 OA
ATOM     24  O   LIG d   1      -0.715  80.712 111.443  0.00  0.00    -0.241 OA
ENDBRANCH   3  22
TORSDOF 7
ENDMDL
MODEL 4
REMARK VINA RESULT:      -5.3      2.246      5.087
REMARK  7 active torsions:
REMARK  status: ('A' for Active; 'I' for Inactive)
REMARK    1  A    between atoms: C_2  and  C_3 
REMARK    2  A    between atoms: C_3  and  O_6 
REMARK    3  A    between atoms: C_3  and  C_4 
REMARK    4  A    between atoms: C_7  and  O_6 
REMARK    5  A    between atoms: C_9  and  C_10 
REMARK    6  A    between atoms: N_15  and  C_14 
REMARK    7  A    between atoms: N_20  and  C_19 
REMARK       I    between atoms: C_22  and  N_20 
ROOT
ATOM      1  C   LIG d   1       1.690  83.581 113.318  0.00  0.00     0.161 C 
ATOM      2  C   LIG d   1       2.405  84.756 113.031  0.00  0.00     0.016 C 
ATOM      3  C   LIG d   1       2.216  85.514 111.853  0.00  0.00     0.038 C 
ATOM      4  C   LIG d   1       1.184  85.229 110.946  0.00  0.00     0.028 C 
ATOM      5  C   LIG d   1       0.769  83.762 110.941  0.00  0.00    -0.047 C 
ATOM      6  C   LIG d   1       0.483  83.317 112.394  0.00  0.00     0.091 C 
ENDROOT
BRANCH   1   7
ATOM      7  O   LIG d   1       1.273  83.588 114.697  0.00  0.00    -0.368 OA
BRANCH   7   8
ATOM      8  C   LIG d   1       0.065  84.331 114.994  0.00  0.00     0.119 C 
BRANCH   8   9
ATOM      9  C   LIG d   1       0.474  85.572 115.812  0.00  0.00     0.028 C 
ATOM     10  C   LIG d   1       0.833  85.223 117.266  0.00  0.00     0.006 C 
ENDBRANCH   8   9
BRANCH   8  11
ATOM     11  C   LIG d   1      -0.870  83.533 115.908  0.00  0.00     0.028 C 
ATOM     12  C   LIG d   1      -0.493  82.046 115.993  0.00  0.00     0.006 C 
ENDBRANCH   8  11
ENDBRANCH   7   8
ENDBRANCH   1   7
BRANCH   6  13
ATOM     13  N   LIG d   1       0.152  81.871 112.489  0.00  0.00    -0.311 N 
ATOM     14  C   LIG d   1      -1.084  81.392 112.361  0.00  0.00     0.210 C 
ATOM     15  C   LIG d   1      -1.208  79.873 112.513  0.00  0.00     0.109 C 
ATOM     16  O   LIG d   1      -2.085  82.078 112.104  0.00  0.00    -0.276 OA
ATOM     17  H   LIG d   1       0.909  81.240 112.664  0.00  0.00     0.149 HD
ENDBRANCH   6  13
BRANCH   5  18
ATOM     18  N   LIG d   1      -0.403  83.633 110.055  0.00  0.00     0.381 N 
ATOM     19  H   LIG d   1      -0.123  83.248 109.176  0.00  0.00    -0.090 HD
ATOM     20  H   LIG d   1      -0.789  84.546 109.891  0.00  0.00    -0.090 HD
ATOM     21  H   LIG d   1      -1.088  83.047 110.480  0.00  0.00    -0.090 HD
ENDBRANCH   5  18
BRANCH   3  22
ATOM     22  C   LIG d   1       3.090  86.547 111.552  0.00  0.00     0.382 C 
ATOM     23  O   LIG d   1       2.778  87.732 111.822  0.00  0.00    -0.241 OA
ATOM     24  O   LIG d   1       4.169  86.314 110.974  0.00  0.00    -0.241 OA
ENDBRANCH   3  22
TORSDOF 7
ENDMDL
MODEL 5
REMARK VINA RESULT:      -5.1     23.568     26.617
REMARK  7 active torsions:
REMARK  status: ('A' for Active; 'I' for Inactive)
REMARK    1  A    between atoms: C_2  and  C_3 
REMARK    2  A    between atoms: C_3  and  O_6 
REMARK    3  A    between atoms: C_3  and  C_4 
REMARK    4  A    between atoms: C_7  and  O_6 
REMARK    5  A    between atoms: C_9  and  C_10 
REMARK    6  A    between atoms: N_15  and  C_14 
REMARK    7  A    between atoms: N_20  and  C_19 
REMARK       I    between atoms: C_22  and  N_20 
ROOT
ATOM      1  C   LIG d   1     -25.378  86.263 113.138  0.00  0.00     0.161 C 
ATOM      2  C   LIG d   1     -24.267  87.059 113.463  0.00  0.00     0.016 C 
ATOM      3  C   LIG d   1     -22.948  86.555 113.551  0.00  0.00     0.038 C 
ATOM      4  C   LIG d   1     -22.628  85.244 113.168  0.00  0.00     0.028 C 
ATOM      5  C   LIG d   1     -23.791  84.269 113.318  0.00  0.00    -0.047 C 
ATOM      6  C   LIG d   1     -25.033  84.855 112.609  0.00  0.00     0.091 C 
ENDROOT
BRANCH   1   7
ATOM      7  O   LIG d   1     -26.218  86.960 112.196  0.00  0.00    -0.368 OA
BRANCH   7   8
ATOM      8  C   LIG d   1     -26.563  88.325 112.538  0.00  0.00     0.119 C 
BRANCH   8   9
ATOM      9  C   LIG d   1     -28.052  88.341 112.934  0.00  0.00     0.028 C 
ATOM     10  C   LIG d   1     -28.863  87.251 112.213  0.00  0.00     0.006 C 
ENDBRANCH   8   9
BRANCH   8  11
ATOM     11  C   LIG d   1     -26.456  89.248 111.321  0.00  0.00     0.028 C 
ATOM     12  C   LIG d   1     -27.192  90.583 111.519  0.00  0.00     0.006 C 
ENDBRANCH   8  11
ENDBRANCH   7   8
ENDBRANCH   1   7
BRANCH   6  13
ATOM     13  N   LIG d   1     -26.238  84.003 112.779  0.00  0.00    -0.311 N 
ATOM     14  C   LIG d   1     -26.850  83.388 111.768  0.00  0.00     0.210 C 
ATOM     15  C   LIG d   1     -28.087  82.574 112.160  0.00  0.00     0.109 C 
ATOM     16  O   LIG d   1     -26.466  83.413 110.589  0.00  0.00    -0.276 OA
ATOM     17  H   LIG d   1     -26.599  83.903 113.707  0.00  0.00     0.149 HD
ENDBRANCH   6  13
BRANCH   5  18
ATOM     18  N   LIG d   1     -23.362  82.974 112.756  0.00  0.00     0.381 N 
ATOM     19  H   LIG d   1     -23.515  82.967 111.767  0.00  0.00    -0.090 HD
ATOM     20  H   LIG d   1     -23.914  82.242 113.166  0.00  0.00    -0.090 HD
ATOM     21  H   LIG d   1     -22.397  82.821 112.951  0.00  0.00    -0.090 HD
ENDBRANCH   5  18
BRANCH   3  22
ATOM     22  C   LIG d   1     -21.940  87.357 114.064  0.00  0.00     0.382 C 
ATOM     23  O   LIG d   1     -20.837  87.433 113.471  0.00  0.00    -0.241 OA
ATOM     24  O   LIG d   1     -22.103  87.969 115.136  0.00  0.00    -0.241 OA
ENDBRANCH   3  22
TORSDOF 7
ENDMDL
MODEL 6
REMARK VINA RESULT:      -5.0      3.099      6.275
REMARK  7 active torsions:
REMARK  status: ('A' for Active; 'I' for Inactive)
REMARK    1  A    between atoms: C_2  and  C_3 
REMARK    2  A    between atoms: C_3  and  O_6 
REMARK    3  A    between atoms: C_3  and  C_4 
REMARK    4  A    between atoms: C_7  and  O_6 
REMARK    5  A    between atoms: C_9  and  C_10 
REMARK    6  A    between atoms: N_15  and  C_14 
REMARK    7  A    between atoms: N_20  and  C_19 
REMARK       I    between atoms: C_22  and  N_20 
ROOT
ATOM      1  C   LIG d   1       3.514  85.553 114.286  0.00  0.00     0.161 C 
ATOM      2  C   LIG d   1       3.918  86.894 114.389  0.00  0.00     0.016 C 
ATOM      3  C   LIG d   1       3.929  87.790 113.295  0.00  0.00     0.038 C 
ATOM      4  C   LIG d   1       3.390  87.443 112.048  0.00  0.00     0.028 C 
ATOM      5  C   LIG d   1       3.438  85.946 111.763  0.00  0.00    -0.047 C 
ATOM      6  C   LIG d   1       2.818  85.187 112.959  0.00  0.00     0.091 C 
ENDROOT
BRANCH   1   7
ATOM      7  O   LIG d   1       2.673  85.208 115.405  0.00  0.00    -0.368 OA
BRANCH   7   8
ATOM      8  C   LIG d   1       1.597  86.133 115.701  0.00  0.00     0.119 C 
BRANCH   8   9
ATOM      9  C   LIG d   1       1.367  86.101 117.225  0.00  0.00     0.028 C 
ATOM     10  C   LIG d   1       2.524  86.745 118.007  0.00  0.00     0.006 C 
ENDBRANCH   8   9
BRANCH   8  11
ATOM     11  C   LIG d   1       0.276  85.668 115.082  0.00  0.00     0.028 C 
ATOM     12  C   LIG d   1      -0.081  84.221 115.455  0.00  0.00     0.006 C 
ENDBRANCH   8  11
ENDBRANCH   7   8
ENDBRANCH   1   7
BRANCH   6  13
ATOM     13  N   LIG d   1       2.901  83.712 112.799  0.00  0.00    -0.311 N 
ATOM     14  C   LIG d   1       1.919  82.974 112.282  0.00  0.00     0.210 C 
ATOM     15  C   LIG d   1       2.202  81.470 112.226  0.00  0.00     0.109 C 
ATOM     16  O   LIG d   1       0.855  83.427 111.835  0.00  0.00    -0.276 OA
ATOM     17  H   LIG d   1       3.743  83.266 113.106  0.00  0.00     0.149 HD
ENDBRANCH   6  13
BRANCH   5  18
ATOM     18  N   LIG d   1       2.721  85.710 110.495  0.00  0.00     0.381 N 
ATOM     19  H   LIG d   1       2.609  84.727 110.347  0.00  0.00    -0.090 HD
ATOM     20  H   LIG d   1       3.268  86.083 109.738  0.00  0.00    -0.090 HD
ATOM     21  H   LIG d   1       1.829  86.154 110.520  0.00  0.00    -0.090 HD
ENDBRANCH   5  18
BRANCH   3  22
ATOM     22  C   LIG d   1       4.521  89.036 113.434  0.00  0.00     0.382 C 
ATOM     23  O   LIG d   1       4.102  89.836 114.305  0.00  0.00    -0.241 OA
ATOM     24  O   LIG d   1       5.440  89.388 112.669  0.00  0.00    -0.241 OA
ENDBRANCH   3  22
TORSDOF 7
ENDMDL
MODEL 7
REMARK VINA RESULT:      -4.7      2.680      6.172
REMARK  7 active torsions:
REMARK  status: ('A' for Active; 'I' for Inactive)
REMARK    1  A    between atoms: C_2  and  C_3 
REMARK    2  A    between atoms: C_3  and  O_6 
REMARK    3  A    between atoms: C_3  and  C_4 
REMARK    4  A    between atoms: C_7  and  O_6 
REMARK    5  A    between atoms: C_9  and  C_10 
REMARK    6  A    between atoms: N_15  and  C_14 
REMARK    7  A    between atoms: N_20  and  C_19 
REMARK       I    between atoms: C_22  and  N_20 
ROOT
ATOM      1  C   LIG d   1       0.933  84.793 112.117  0.00  0.00     0.161 C 
ATOM      2  C   LIG d   1       1.944  85.699 111.755  0.00  0.00     0.016 C 
ATOM      3  C   LIG d   1       2.759  86.371 112.694  0.00  0.00     0.038 C 
ATOM      4  C   LIG d   1       2.720  86.067 114.062  0.00  0.00     0.028 C 
ATOM      5  C   LIG d   1       1.369  85.529 114.524  0.00  0.00    -0.047 C 
ATOM      6  C   LIG d   1       0.950  84.364 113.599  0.00  0.00     0.091 C 
ENDROOT
BRANCH   1   7
ATOM      7  O   LIG d   1       0.985  83.635 111.260  0.00  0.00    -0.368 OA
BRANCH   7   8
ATOM      8  C   LIG d   1       2.157  82.794 111.395  0.00  0.00     0.119 C 
BRANCH   8   9
ATOM      9  C   LIG d   1       2.923  82.849 110.059  0.00  0.00     0.028 C 
ATOM     10  C   LIG d   1       4.363  83.362 110.229  0.00  0.00     0.006 C 
ENDBRANCH   8   9
BRANCH   8  11
ATOM     11  C   LIG d   1       1.769  81.324 111.580  0.00  0.00     0.028 C 
ATOM     12  C   LIG d   1       0.283  81.058 111.292  0.00  0.00     0.006 C 
ENDBRANCH   8  11
ENDBRANCH   7   8
ENDBRANCH   1   7
BRANCH   6  13
ATOM     13  N   LIG d   1      -0.399  83.836 113.930  0.00  0.00    -0.311 N 
ATOM     14  C   LIG d   1      -0.605  82.636 114.470  0.00  0.00     0.210 C 
ATOM     15  C   LIG d   1      -2.075  82.278 114.712  0.00  0.00     0.109 C 
ATOM     16  O   LIG d   1       0.293  81.846 114.801  0.00  0.00    -0.276 OA
ATOM     17  H   LIG d   1      -1.183  84.424 113.723  0.00  0.00     0.149 HD
ENDBRANCH   6  13
BRANCH   5  18
ATOM     18  N   LIG d   1       1.510  85.125 115.936  0.00  0.00     0.381 N 
ATOM     19  H   LIG d   1       2.016  85.826 116.440  0.00  0.00    -0.090 HD
ATOM     20  H   LIG d   1       2.033  84.268 115.978  0.00  0.00    -0.090 HD
ATOM     21  H   LIG d   1       0.611  84.995 116.345  0.00  0.00    -0.090 HD
ENDBRANCH   5  18
BRANCH   3  22
ATOM     22  C   LIG d   1       3.599  87.390 112.269  0.00  0.00     0.382 C 
ATOM     23  O   LIG d   1       3.499  88.535 112.772  0.00  0.00    -0.241 OA
ATOM     24  O   LIG d   1       4.426  87.189 111.360  0.00  0.00    -0.241 OA
ENDBRANCH   3  22
TORSDOF 7
ENDMDL
MODEL 8
REMARK VINA RESULT:      -4.7      2.778      5.848
REMARK  7 active torsions:
REMARK  status: ('A' for Active; 'I' for Inactive)
REMARK    1  A    between atoms: C_2  and  C_3 
REMARK    2  A    between atoms: C_3  and  O_6 
REMARK    3  A    between atoms: C_3  and  C_4 
REMARK    4  A    between atoms: C_7  and  O_6 
REMARK    5  A    between atoms: C_9  and  C_10 
REMARK    6  A    between atoms: N_15  and  C_14 
REMARK    7  A    between atoms: N_20  and  C_19 
REMARK       I    between atoms: C_22  and  N_20 
ROOT
ATOM      1  C   LIG d   1      -0.447  84.472 112.881  0.00  0.00     0.161 C 
ATOM      2  C   LIG d   1       0.341  85.114 111.911  0.00  0.00     0.016 C 
ATOM      3  C   LIG d   1       1.685  85.495 112.127  0.00  0.00     0.038 C 
ATOM      4  C   LIG d   1       2.384  85.123 113.285  0.00  0.00     0.028 C 
ATOM      5  C   LIG d   1       1.482  84.916 114.497  0.00  0.00    -0.047 C 
ATOM      6  C   LIG d   1       0.333  83.958 114.110  0.00  0.00     0.091 C 
ENDROOT
BRANCH   1   7
ATOM      7  O   LIG d   1      -1.190  83.397 112.274  0.00  0.00    -0.368 OA
BRANCH   7   8
ATOM      8  C   LIG d   1      -0.622  82.072 112.411  0.00  0.00     0.119 C 
BRANCH   8   9
ATOM      9  C   LIG d   1       0.246  81.809 111.165  0.00  0.00     0.028 C 
ATOM     10  C   LIG d   1       1.698  81.452 111.526  0.00  0.00     0.006 C 
ENDBRANCH   8   9
BRANCH   8  11
ATOM     11  C   LIG d   1      -1.708  80.993 112.383  0.00  0.00     0.028 C 
ATOM     12  C   LIG d   1      -1.868  80.271 113.730  0.00  0.00     0.006 C 
ENDBRANCH   8  11
ENDBRANCH   7   8
ENDBRANCH   1   7
BRANCH   6  13
ATOM     13  N   LIG d   1      -0.644  83.769 115.215  0.00  0.00    -0.311 N 
ATOM     14  C   LIG d   1      -0.576  82.766 116.089  0.00  0.00     0.210 C 
ATOM     15  C   LIG d   1      -1.694  82.745 117.136  0.00  0.00     0.109 C 
ATOM     16  O   LIG d   1       0.322  81.910 116.116  0.00  0.00    -0.276 OA
ATOM     17  H   LIG d   1      -1.387  84.435 115.286  0.00  0.00     0.149 HD
ENDBRANCH   6  13
BRANCH   5  18
ATOM     18  N   LIG d   1       2.322  84.398 115.594  0.00  0.00     0.381 N 
ATOM     19  H   LIG d   1       3.178  84.914 115.638  0.00  0.00    -0.090 HD
ATOM     20  H   LIG d   1       2.542  83.436 115.408  0.00  0.00    -0.090 HD
ATOM     21  H   LIG d   1       1.836  84.474 116.461  0.00  0.00    -0.090 HD
ENDBRANCH   5  18
BRANCH   3  22
ATOM     22  C   LIG d   1       2.331  86.293 111.195  0.00  0.00     0.382 C 
ATOM     23  O   LIG d   1       2.155  87.535 111.203  0.00  0.00    -0.241 OA
ATOM     24  O   LIG d   1       3.054  85.781 110.319  0.00  0.00    -0.241 OA
ENDBRANCH   3  22
TORSDOF 7
ENDMDL
MODEL 9
REMARK VINA RESULT:      -4.7      5.197      7.318
REMARK  7 active torsions:
REMARK  status: ('A' for Active; 'I' for Inactive)
REMARK    1  A    between atoms: C_2  and  C_3 
REMARK    2  A    between atoms: C_3  and  O_6 
REMARK    3  A    between atoms: C_3  and  C_4 
REMARK    4  A    between atoms: C_7  and  O_6 
REMARK    5  A    between atoms: C_9  and  C_10 
REMARK    6  A    between atoms: N_15  and  C_14 
REMARK    7  A    between atoms: N_20  and  C_19 
REMARK       I    between atoms: C_22  and  N_20 
ROOT
ATOM      1  C   LIG d   1       2.627  86.941 114.688  0.00  0.00     0.161 C 
ATOM      2  C   LIG d   1       2.766  86.109 113.565  0.00  0.00     0.016 C 
ATOM      3  C   LIG d   1       3.529  86.459 112.427  0.00  0.00     0.038 C 
ATOM      4  C   LIG d   1       4.332  87.608 112.398  0.00  0.00     0.028 C 
ATOM      5  C   LIG d   1       3.826  88.724 113.306  0.00  0.00    -0.047 C 
ATOM      6  C   LIG d   1       3.585  88.150 114.721  0.00  0.00     0.091 C 
ENDROOT
BRANCH   1   7
ATOM      7  O   LIG d   1       2.761  86.162 115.893  0.00  0.00    -0.368 OA
BRANCH   7   8
ATOM      8  C   LIG d   1       1.620  86.164 116.785  0.00  0.00     0.119 C 
BRANCH   8   9
ATOM      9  C   LIG d   1       2.140  86.473 118.202  0.00  0.00     0.028 C 
ATOM     10  C   LIG d   1       3.670  86.628 118.245  0.00  0.00     0.006 C 
ENDBRANCH   8   9
BRANCH   8  11
ATOM     11  C   LIG d   1       0.983  84.775 116.880  0.00  0.00     0.028 C 
ATOM     12  C   LIG d   1      -0.183  84.585 115.897  0.00  0.00     0.006 C 
ENDBRANCH   8  11
ENDBRANCH   7   8
ENDBRANCH   1   7
BRANCH   6  13
ATOM     13  N   LIG d   1       3.009  89.156 115.651  0.00  0.00    -0.311 N 
ATOM     14  C   LIG d   1       3.750  89.953 116.418  0.00  0.00     0.210 C 
ATOM     15  C   LIG d   1       2.955  90.904 117.319  0.00  0.00     0.109 C 
ATOM     16  O   LIG d   1       4.990  89.986 116.415  0.00  0.00    -0.276 OA
ATOM     17  H   LIG d   1       2.011  89.218 115.693  0.00  0.00     0.149 HD
ENDBRANCH   6  13
BRANCH   5  18
ATOM     18  N   LIG d   1       4.829  89.806 113.284  0.00  0.00     0.381 N 
ATOM     19  H   LIG d   1       5.623  89.543 113.833  0.00  0.00    -0.090 HD
ATOM     20  H   LIG d   1       4.425  90.632 113.689  0.00  0.00    -0.090 HD
ATOM     21  H   LIG d   1       5.111  89.991 112.347  0.00  0.00    -0.090 HD
ENDBRANCH   5  18
BRANCH   3  22
ATOM     22  C   LIG d   1       3.461  85.674 111.286  0.00  0.00     0.382 C 
ATOM     23  O   LIG d   1       2.650  85.962 110.374  0.00  0.00    -0.241 OA
ATOM     24  O   LIG d   1       4.170  84.655 111.177  0.00  0.00    -0.241 OA
ENDBRANCH   3  22
TORSDOF 7
ENDMDL
