MODEL 1
REMARK VINA RESULT:      -5.4      0.000      0.000
REMARK  7 active torsions:
REMARK  status: ('A' for Active; 'I' for Inactive)
REMARK    1  A    between atoms: C_2  and  C_3 
REMARK    2  A    between atoms: C_3  and  O_6 
REMARK    3  A    between atoms: C_3  and  C_4 
REMARK    4  A    between atoms: C_7  and  O_6 
REMARK    5  A    between atoms: C_9  and  C_10 
REMARK    6  A    between atoms: N_15  and  C_14 
REMARK    7  A    between atoms: N_20  and  C_19 
REMARK       I    between atoms: C_22  and  N_20 
ROOT
ATOM      1  C   LIG d   1       2.060  84.195 113.356  0.00  0.00     0.161 C 
ATOM      2  C   LIG d   1       2.619  85.483 113.318  0.00  0.00     0.016 C 
ATOM      3  C   LIG d   1       2.323  86.430 112.311  0.00  0.00     0.038 C 
ATOM      4  C   LIG d   1       1.325  86.205 111.351  0.00  0.00     0.028 C 
ATOM      5  C   LIG d   1       1.098  84.727 111.050  0.00  0.00    -0.047 C 
ATOM      6  C   LIG d   1       0.886  83.970 112.381  0.00  0.00     0.091 C 
ENDROOT
BRANCH   1   7
ATOM      7  O   LIG d   1       1.661  83.875 114.704  0.00  0.00    -0.368 OA
BRANCH   7   8
ATOM      8  C   LIG d   1       2.406  84.528 115.761  0.00  0.00     0.119 C 
BRANCH   8   9
ATOM      9  C   LIG d   1       3.207  83.440 116.502  0.00  0.00     0.028 C 
ATOM     10  C   LIG d   1       2.529  82.062 116.432  0.00  0.00     0.006 C 
ENDBRANCH   8   9
BRANCH   8  11
ATOM     11  C   LIG d   1       1.469  85.129 116.813  0.00  0.00     0.028 C 
ATOM     12  C   LIG d   1       1.342  86.656 116.696  0.00  0.00     0.006 C 
ENDBRANCH   8  11
ENDBRANCH   7   8
ENDBRANCH   1   7
BRANCH   6  13
ATOM     13  N   LIG d   1       0.740  82.505 112.182  0.00  0.00    -0.311 N 
ATOM     14  C   LIG d   1      -0.436  81.900 112.021  0.00  0.00     0.210 C 
ATOM     15  C   LIG d   1      -0.364  80.380 111.852  0.00  0.00     0.109 C 
ATOM     16  O   LIG d   1      -1.530  82.483 111.970  0.00  0.00    -0.276 OA
ATOM     17  H   LIG d   1       1.579  81.959 112.179  0.00  0.00     0.149 HD
ENDBRANCH   6  13
BRANCH   5  18
ATOM     18  N   LIG d   1      -0.059  84.631 110.139  0.00  0.00     0.381 N 
ATOM     19  H   LIG d   1      -0.293  85.540 109.791  0.00  0.00    -0.090 HD
ATOM     20  H   LIG d   1      -0.848  84.277 110.652  0.00  0.00    -0.090 HD
ATOM     21  H   LIG d   1       0.154  84.021 109.381  0.00  0.00    -0.090 HD
ENDBRANCH   5  18
BRANCH   3  22
ATOM     22  C   LIG d   1       3.058  87.603 112.234  0.00  0.00     0.382 C 
ATOM     23  O   LIG d   1       4.277  87.562 111.940  0.00  0.00    -0.241 OA
ATOM     24  O   LIG d   1       2.528  88.699 112.498  0.00  0.00    -0.241 OA
ENDBRANCH   3  22
TORSDOF 7
ENDMDL
MODEL 2
REMARK VINA RESULT:      -5.4      2.355      4.844
REMARK  7 active torsions:
REMARK  status: ('A' for Active; 'I' for Inactive)
REMARK    1  A    between atoms: C_2  and  C_3 
REMARK    2  A    between atoms: C_3  and  O_6 
REMARK    3  A    between atoms: C_3  and  C_4 
REMARK    4  A    between atoms: C_7  and  O_6 
REMARK    5  A    between atoms: C_9  and  C_10 
REMARK    6  A    between atoms: N_15  and  C_14 
REMARK    7  A    between atoms: N_20  and  C_19 
REMARK       I    between atoms: C_22  and  N_20 
ROOT
ATOM      1  C   LIG d   1       1.732  84.697 114.004  0.00  0.00     0.161 C 
ATOM      2  C   LIG d   1       2.114  85.747 113.152  0.00  0.00     0.016 C 
ATOM      3  C   LIG d   1       3.176  86.634 113.439  0.00  0.00     0.038 C 
ATOM      4  C   LIG d   1       4.032  86.438 114.532  0.00  0.00     0.028 C 
ATOM      5  C   LIG d   1       3.375  85.692 115.689  0.00  0.00    -0.047 C 
ATOM      6  C   LIG d   1       2.725  84.399 115.147  0.00  0.00     0.091 C 
ENDROOT
BRANCH   1   7
ATOM      7  O   LIG d   1       1.485  83.505 113.231  0.00  0.00    -0.368 OA
BRANCH   7   8
ATOM      8  C   LIG d   1       1.365  83.688 111.799  0.00  0.00     0.119 C 
BRANCH   8   9
ATOM      9  C   LIG d   1      -0.125  83.535 111.437  0.00  0.00     0.028 C 
ATOM     10  C   LIG d   1      -0.619  84.648 110.497  0.00  0.00     0.006 C 
ENDBRANCH   8   9
BRANCH   8  11
ATOM     11  C   LIG d   1       2.085  82.575 111.032  0.00  0.00     0.028 C 
ATOM     12  C   LIG d   1       3.181  83.109 110.097  0.00  0.00     0.006 C 
ENDBRANCH   8  11
ENDBRANCH   7   8
ENDBRANCH   1   7
BRANCH   6  13
ATOM     13  N   LIG d   1       1.988  83.651 116.199  0.00  0.00    -0.311 N 
ATOM     14  C   LIG d   1       2.317  82.422 116.592  0.00  0.00     0.210 C 
ATOM     15  C   LIG d   1       1.413  81.825 117.676  0.00  0.00     0.109 C 
ATOM     16  O   LIG d   1       3.291  81.781 116.169  0.00  0.00    -0.276 OA
ATOM     17  H   LIG d   1       1.202  84.109 116.619  0.00  0.00     0.149 HD
ENDBRANCH   6  13
BRANCH   5  18
ATOM     18  N   LIG d   1       4.416  85.435 116.702  0.00  0.00     0.381 N 
ATOM     19  H   LIG d   1       5.126  84.844 116.316  0.00  0.00    -0.090 HD
ATOM     20  H   LIG d   1       4.000  84.959 117.483  0.00  0.00    -0.090 HD
ATOM     21  H   LIG d   1       4.818  86.295 117.004  0.00  0.00    -0.090 HD
ENDBRANCH   5  18
BRANCH   3  22
ATOM     22  C   LIG d   1       3.366  87.757 112.647  0.00  0.00     0.382 C 
ATOM     23  O   LIG d   1       2.479  88.643 112.592  0.00  0.00    -0.241 OA
ATOM     24  O   LIG d   1       4.393  87.874 111.953  0.00  0.00    -0.241 OA
ENDBRANCH   3  22
TORSDOF 7
ENDMDL
MODEL 3
REMARK VINA RESULT:      -4.9     25.248     27.249
REMARK  7 active torsions:
REMARK  status: ('A' for Active; 'I' for Inactive)
REMARK    1  A    between atoms: C_2  and  C_3 
REMARK    2  A    between atoms: C_3  and  O_6 
REMARK    3  A    between atoms: C_3  and  C_4 
REMARK    4  A    between atoms: C_7  and  O_6 
REMARK    5  A    between atoms: C_9  and  C_10 
REMARK    6  A    between atoms: N_15  and  C_14 
REMARK    7  A    between atoms: N_20  and  C_19 
REMARK       I    between atoms: C_22  and  N_20 
ROOT
ATOM      1  C   LIG d   1     -25.524  85.589 113.051  0.00  0.00     0.161 C 
ATOM      2  C   LIG d   1     -24.373  86.394 113.050  0.00  0.00     0.016 C 
ATOM      3  C   LIG d   1     -23.076  85.898 113.313  0.00  0.00     0.038 C 
ATOM      4  C   LIG d   1     -22.820  84.525 113.447  0.00  0.00     0.028 C 
ATOM      5  C   LIG d   1     -24.019  83.732 113.957  0.00  0.00    -0.047 C 
ATOM      6  C   LIG d   1     -25.251  84.070 113.086  0.00  0.00     0.091 C 
ENDROOT
BRANCH   1   7
ATOM      7  O   LIG d   1     -26.355  85.923 111.922  0.00  0.00    -0.368 OA
BRANCH   7   8
ATOM      8  C   LIG d   1     -27.189  87.098 112.070  0.00  0.00     0.119 C 
BRANCH   8   9
ATOM      9  C   LIG d   1     -28.608  86.722 111.601  0.00  0.00     0.028 C 
ATOM     10  C   LIG d   1     -28.638  85.389 110.835  0.00  0.00     0.006 C 
ENDBRANCH   8   9
BRANCH   8  11
ATOM     11  C   LIG d   1     -26.737  88.223 111.134  0.00  0.00     0.028 C 
ATOM     12  C   LIG d   1     -27.180  89.614 111.617  0.00  0.00     0.006 C 
ENDBRANCH   8  11
ENDBRANCH   7   8
ENDBRANCH   1   7
BRANCH   6  13
ATOM     13  N   LIG d   1     -26.487  83.401 113.568  0.00  0.00    -0.311 N 
ATOM     14  C   LIG d   1     -27.207  82.566 112.822  0.00  0.00     0.210 C 
ATOM     15  C   LIG d   1     -28.457  82.002 113.506  0.00  0.00     0.109 C 
ATOM     16  O   LIG d   1     -26.913  82.213 111.670  0.00  0.00    -0.276 OA
ATOM     17  H   LIG d   1     -26.782  83.607 114.503  0.00  0.00     0.149 HD
ENDBRANCH   6  13
BRANCH   5  18
ATOM     18  N   LIG d   1     -23.658  82.303 113.917  0.00  0.00     0.381 N 
ATOM     19  H   LIG d   1     -24.041  81.834 114.714  0.00  0.00    -0.090 HD
ATOM     20  H   LIG d   1     -22.657  82.219 113.953  0.00  0.00    -0.090 HD
ATOM     21  H   LIG d   1     -24.004  81.886 113.081  0.00  0.00    -0.090 HD
ENDBRANCH   5  18
BRANCH   3  22
ATOM     22  C   LIG d   1     -22.023  86.783 113.485  0.00  0.00     0.382 C 
ATOM     23  O   LIG d   1     -20.994  86.679 112.774  0.00  0.00    -0.241 OA
ATOM     24  O   LIG d   1     -22.070  87.657 114.371  0.00  0.00    -0.241 OA
ENDBRANCH   3  22
TORSDOF 7
ENDMDL
MODEL 4
REMARK VINA RESULT:      -4.9      3.005      5.099
REMARK  7 active torsions:
REMARK  status: ('A' for Active; 'I' for Inactive)
REMARK    1  A    between atoms: C_2  and  C_3 
REMARK    2  A    between atoms: C_3  and  O_6 
REMARK    3  A    between atoms: C_3  and  C_4 
REMARK    4  A    between atoms: C_7  and  O_6 
REMARK    5  A    between atoms: C_9  and  C_10 
REMARK    6  A    between atoms: N_15  and  C_14 
REMARK    7  A    between atoms: N_20  and  C_19 
REMARK       I    between atoms: C_22  and  N_20 
ROOT
ATOM      1  C   LIG d   1       3.141  85.899 114.092  0.00  0.00     0.161 C 
ATOM      2  C   LIG d   1       3.660  87.074 113.524  0.00  0.00     0.016 C 
ATOM      3  C   LIG d   1       4.445  88.005 114.242  0.00  0.00     0.038 C 
ATOM      4  C   LIG d   1       4.894  87.746 115.546  0.00  0.00     0.028 C 
ATOM      5  C   LIG d   1       3.978  86.810 116.327  0.00  0.00    -0.047 C 
ATOM      6  C   LIG d   1       3.713  85.545 115.480  0.00  0.00     0.091 C 
ENDROOT
BRANCH   1   7
ATOM      7  O   LIG d   1       3.319  84.796 113.180  0.00  0.00    -0.368 OA
BRANCH   7   8
ATOM      8  C   LIG d   1       2.110  84.250 112.597  0.00  0.00     0.119 C 
BRANCH   8   9
ATOM      9  C   LIG d   1       2.163  84.524 111.082  0.00  0.00     0.028 C 
ATOM     10  C   LIG d   1       3.599  84.728 110.572  0.00  0.00     0.006 C 
ENDBRANCH   8   9
BRANCH   8  11
ATOM     11  C   LIG d   1       0.866  84.989 113.100  0.00  0.00     0.028 C 
ATOM     12  C   LIG d   1      -0.173  85.227 111.993  0.00  0.00     0.006 C 
ENDBRANCH   8  11
ENDBRANCH   7   8
ENDBRANCH   1   7
BRANCH   6  13
ATOM     13  N   LIG d   1       2.758  84.614 116.136  0.00  0.00    -0.311 N 
ATOM     14  C   LIG d   1       3.139  83.566 116.865  0.00  0.00     0.210 C 
ATOM     15  C   LIG d   1       1.993  82.724 117.435  0.00  0.00     0.109 C 
ATOM     16  O   LIG d   1       4.316  83.273 117.120  0.00  0.00    -0.276 OA
ATOM     17  H   LIG d   1       1.782  84.796 116.006  0.00  0.00     0.149 HD
ENDBRANCH   6  13
BRANCH   5  18
ATOM     18  N   LIG d   1       4.635  86.517 117.615  0.00  0.00     0.381 N 
ATOM     19  H   LIG d   1       5.019  87.357 117.999  0.00  0.00    -0.090 HD
ATOM     20  H   LIG d   1       5.387  85.870 117.457  0.00  0.00    -0.090 HD
ATOM     21  H   LIG d   1       3.977  86.123 118.251  0.00  0.00    -0.090 HD
ENDBRANCH   5  18
BRANCH   3  22
ATOM     22  C   LIG d   1       4.756  89.229 113.670  0.00  0.00     0.382 C 
ATOM     23  O   LIG d   1       4.409  90.293 114.237  0.00  0.00    -0.241 OA
ATOM     24  O   LIG d   1       5.339  89.282 112.570  0.00  0.00    -0.241 OA
ENDBRANCH   3  22
TORSDOF 7
ENDMDL
MODEL 5
REMARK VINA RESULT:      -4.8      1.703      2.236
REMARK  7 active torsions:
REMARK  status: ('A' for Active; 'I' for Inactive)
REMARK    1  A    between atoms: C_2  and  C_3 
REMARK    2  A    between atoms: C_3  and  O_6 
REMARK    3  A    between atoms: C_3  and  C_4 
REMARK    4  A    between atoms: C_7  and  O_6 
REMARK    5  A    between atoms: C_9  and  C_10 
REMARK    6  A    between atoms: N_15  and  C_14 
REMARK    7  A    between atoms: N_20  and  C_19 
REMARK       I    between atoms: C_22  and  N_20 
ROOT
ATOM      1  C   LIG d   1       2.932  85.328 113.834  0.00  0.00     0.161 C 
ATOM      2  C   LIG d   1       3.737  86.450 114.089  0.00  0.00     0.016 C 
ATOM      3  C   LIG d   1       3.708  87.625 113.303  0.00  0.00     0.038 C 
ATOM      4  C   LIG d   1       2.756  87.815 112.290  0.00  0.00     0.028 C 
ATOM      5  C   LIG d   1       2.261  86.512 111.671  0.00  0.00    -0.047 C 
ATOM      6  C   LIG d   1       1.809  85.559 112.802  0.00  0.00     0.091 C 
ENDROOT
BRANCH   1   7
ATOM      7  O   LIG d   1       2.382  84.829 115.069  0.00  0.00    -0.368 OA
BRANCH   7   8
ATOM      8  C   LIG d   1       3.272  84.029 115.886  0.00  0.00     0.119 C 
BRANCH   8   9
ATOM      9  C   LIG d   1       2.425  82.927 116.550  0.00  0.00     0.028 C 
ATOM     10  C   LIG d   1       1.537  83.471 117.682  0.00  0.00     0.006 C 
ENDBRANCH   8   9
BRANCH   8  11
ATOM     11  C   LIG d   1       3.853  84.847 117.043  0.00  0.00     0.028 C 
ATOM     12  C   LIG d   1       5.390  84.849 117.059  0.00  0.00     0.006 C 
ENDBRANCH   8  11
ENDBRANCH   7   8
ENDBRANCH   1   7
BRANCH   6  13
ATOM     13  N   LIG d   1       1.389  84.229 112.288  0.00  0.00    -0.311 N 
ATOM     14  C   LIG d   1       0.122  83.913 112.023  0.00  0.00     0.210 C 
ATOM     15  C   LIG d   1      -0.094  82.482 111.521  0.00  0.00     0.109 C 
ATOM     16  O   LIG d   1      -0.838  84.691 112.125  0.00  0.00    -0.276 OA
ATOM     17  H   LIG d   1       2.108  83.547 112.146  0.00  0.00     0.149 HD
ENDBRANCH   6  13
BRANCH   5  18
ATOM     18  N   LIG d   1       1.176  86.849 110.731  0.00  0.00     0.381 N 
ATOM     19  H   LIG d   1       1.400  87.693 110.243  0.00  0.00    -0.090 HD
ATOM     20  H   LIG d   1       0.330  87.001 111.251  0.00  0.00    -0.090 HD
ATOM     21  H   LIG d   1       1.045  86.106 110.080  0.00  0.00    -0.090 HD
ENDBRANCH   5  18
BRANCH   3  22
ATOM     22  C   LIG d   1       4.665  88.608 113.500  0.00  0.00     0.382 C 
ATOM     23  O   LIG d   1       5.633  88.395 114.269  0.00  0.00    -0.241 OA
ATOM     24  O   LIG d   1       4.548  89.722 112.954  0.00  0.00    -0.241 OA
ENDBRANCH   3  22
TORSDOF 7
ENDMDL
MODEL 6
REMARK VINA RESULT:      -4.5      3.135      5.384
REMARK  7 active torsions:
REMARK  status: ('A' for Active; 'I' for Inactive)
REMARK    1  A    between atoms: C_2  and  C_3 
REMARK    2  A    between atoms: C_3  and  O_6 
REMARK    3  A    between atoms: C_3  and  C_4 
REMARK    4  A    between atoms: C_7  and  O_6 
REMARK    5  A    between atoms: C_9  and  C_10 
REMARK    6  A    between atoms: N_15  and  C_14 
REMARK    7  A    between atoms: N_20  and  C_19 
REMARK       I    between atoms: C_22  and  N_20 
ROOT
ATOM      1  C   LIG d   1       2.823  86.347 114.216  0.00  0.00     0.161 C 
ATOM      2  C   LIG d   1       3.173  87.649 113.823  0.00  0.00     0.016 C 
ATOM      3  C   LIG d   1       4.283  88.349 114.349  0.00  0.00     0.038 C 
ATOM      4  C   LIG d   1       5.213  87.732 115.200  0.00  0.00     0.028 C 
ATOM      5  C   LIG d   1       4.621  86.587 116.015  0.00  0.00    -0.047 C 
ATOM      6  C   LIG d   1       3.889  85.617 115.059  0.00  0.00     0.091 C 
ENDROOT
BRANCH   1   7
ATOM      7  O   LIG d   1       2.478  85.563 113.056  0.00  0.00    -0.368 OA
BRANCH   7   8
ATOM      8  C   LIG d   1       3.125  85.941 111.816  0.00  0.00     0.119 C 
BRANCH   8   9
ATOM      9  C   LIG d   1       2.052  85.922 110.710  0.00  0.00     0.028 C 
ATOM     10  C   LIG d   1       0.625  86.033 111.274  0.00  0.00     0.006 C 
ENDBRANCH   8   9
BRANCH   8  11
ATOM     11  C   LIG d   1       4.165  84.901 111.390  0.00  0.00     0.028 C 
ATOM     12  C   LIG d   1       3.748  84.122 110.133  0.00  0.00     0.006 C 
ENDBRANCH   8  11
ENDBRANCH   7   8
ENDBRANCH   1   7
BRANCH   6  13
ATOM     13  N   LIG d   1       3.210  84.512 115.785  0.00  0.00    -0.311 N 
ATOM     14  C   LIG d   1       2.286  84.710 116.724  0.00  0.00     0.210 C 
ATOM     15  C   LIG d   1       1.727  83.434 117.360  0.00  0.00     0.109 C 
ATOM     16  O   LIG d   1       1.854  85.821 117.067  0.00  0.00    -0.276 OA
ATOM     17  H   LIG d   1       3.477  83.577 115.546  0.00  0.00     0.149 HD
ENDBRANCH   6  13
BRANCH   5  18
ATOM     18  N   LIG d   1       5.727  85.947 116.752  0.00  0.00     0.381 N 
ATOM     19  H   LIG d   1       6.487  86.590 116.847  0.00  0.00    -0.090 HD
ATOM     20  H   LIG d   1       6.051  85.153 116.228  0.00  0.00    -0.090 HD
ATOM     21  H   LIG d   1       5.414  85.656 117.651  0.00  0.00    -0.090 HD
ENDBRANCH   5  18
BRANCH   3  22
ATOM     22  C   LIG d   1       4.449  89.694 114.057  0.00  0.00     0.382 C 
ATOM     23  O   LIG d   1       4.751  90.050 112.892  0.00  0.00    -0.241 OA
ATOM     24  O   LIG d   1       4.345  90.553 114.952  0.00  0.00    -0.241 OA
ENDBRANCH   3  22
TORSDOF 7
ENDMDL
MODEL 7
REMARK VINA RESULT:      -4.4      2.191      2.732
REMARK  7 active torsions:
REMARK  status: ('A' for Active; 'I' for Inactive)
REMARK    1  A    between atoms: C_2  and  C_3 
REMARK    2  A    between atoms: C_3  and  O_6 
REMARK    3  A    between atoms: C_3  and  C_4 
REMARK    4  A    between atoms: C_7  and  O_6 
REMARK    5  A    between atoms: C_9  and  C_10 
REMARK    6  A    between atoms: N_15  and  C_14 
REMARK    7  A    between atoms: N_20  and  C_19 
REMARK       I    between atoms: C_22  and  N_20 
ROOT
ATOM      1  C   LIG d   1       3.702  85.641 114.198  0.00  0.00     0.161 C 
ATOM      2  C   LIG d   1       4.216  86.859 114.673  0.00  0.00     0.016 C 
ATOM      3  C   LIG d   1       3.935  88.109 114.075  0.00  0.00     0.038 C 
ATOM      4  C   LIG d   1       2.993  88.242 113.044  0.00  0.00     0.028 C 
ATOM      5  C   LIG d   1       2.833  86.980 112.203  0.00  0.00    -0.047 C 
ATOM      6  C   LIG d   1       2.584  85.779 113.143  0.00  0.00     0.091 C 
ENDROOT
BRANCH   1   7
ATOM      7  O   LIG d   1       3.250  84.837 115.305  0.00  0.00    -0.368 OA
BRANCH   7   8
ATOM      8  C   LIG d   1       3.299  85.464 116.611  0.00  0.00     0.119 C 
BRANCH   8   9
ATOM      9  C   LIG d   1       4.090  84.527 117.545  0.00  0.00     0.028 C 
ATOM     10  C   LIG d   1       5.611  84.685 117.383  0.00  0.00     0.006 C 
ENDBRANCH   8   9
BRANCH   8  11
ATOM     11  C   LIG d   1       1.902  85.570 117.231  0.00  0.00     0.028 C 
ATOM     12  C   LIG d   1       1.097  86.760 116.686  0.00  0.00     0.006 C 
ENDBRANCH   8  11
ENDBRANCH   7   8
ENDBRANCH   1   7
BRANCH   6  13
ATOM     13  N   LIG d   1       2.500  84.491 112.407  0.00  0.00    -0.311 N 
ATOM     14  C   LIG d   1       1.348  83.917 112.064  0.00  0.00     0.210 C 
ATOM     15  C   LIG d   1       1.486  82.581 111.327  0.00  0.00     0.109 C 
ATOM     16  O   LIG d   1       0.226  84.403 112.271  0.00  0.00    -0.276 OA
ATOM     17  H   LIG d   1       3.364  84.043 112.171  0.00  0.00     0.149 HD
ENDBRANCH   6  13
BRANCH   5  18
ATOM     18  N   LIG d   1       1.725  87.213 111.257  0.00  0.00     0.381 N 
ATOM     19  H   LIG d   1       1.029  86.503 111.369  0.00  0.00    -0.090 HD
ATOM     20  H   LIG d   1       2.082  87.159 110.319  0.00  0.00    -0.090 HD
ATOM     21  H   LIG d   1       1.324  88.110 111.416  0.00  0.00    -0.090 HD
ENDBRANCH   5  18
BRANCH   3  22
ATOM     22  C   LIG d   1       4.631  89.238 114.481  0.00  0.00     0.382 C 
ATOM     23  O   LIG d   1       5.388  89.181 115.480  0.00  0.00    -0.241 OA
ATOM     24  O   LIG d   1       4.477  90.322 113.888  0.00  0.00    -0.241 OA
ENDBRANCH   3  22
TORSDOF 7
ENDMDL
MODEL 8
REMARK VINA RESULT:      -4.4     25.699     27.704
REMARK  7 active torsions:
REMARK  status: ('A' for Active; 'I' for Inactive)
REMARK    1  A    between atoms: C_2  and  C_3 
REMARK    2  A    between atoms: C_3  and  O_6 
REMARK    3  A    between atoms: C_3  and  C_4 
REMARK    4  A    between atoms: C_7  and  O_6 
REMARK    5  A    between atoms: C_9  and  C_10 
REMARK    6  A    between atoms: N_15  and  C_14 
REMARK    7  A    between atoms: N_20  and  C_19 
REMARK       I    between atoms: C_22  and  N_20 
ROOT
ATOM      1  C   LIG d   1     -25.627  86.039 113.001  0.00  0.00     0.161 C 
ATOM      2  C   LIG d   1     -24.315  86.514 112.839  0.00  0.00     0.016 C 
ATOM      3  C   LIG d   1     -23.244  86.147 113.685  0.00  0.00     0.038 C 
ATOM      4  C   LIG d   1     -23.381  85.155 114.667  0.00  0.00     0.028 C 
ATOM      5  C   LIG d   1     -24.805  85.018 115.195  0.00  0.00    -0.047 C 
ATOM      6  C   LIG d   1     -25.772  84.870 113.998  0.00  0.00     0.091 C 
ENDROOT
BRANCH   1   7
ATOM      7  O   LIG d   1     -26.177  85.676 111.719  0.00  0.00    -0.368 OA
BRANCH   7   8
ATOM      8  C   LIG d   1     -27.195  86.560 111.189  0.00  0.00     0.119 C 
BRANCH   8   9
ATOM      9  C   LIG d   1     -27.392  87.701 112.206  0.00  0.00     0.028 C 
ATOM     10  C   LIG d   1     -26.919  89.060 111.662  0.00  0.00     0.006 C 
ENDBRANCH   8   9
BRANCH   8  11
ATOM     11  C   LIG d   1     -28.552  85.856 111.100  0.00  0.00     0.028 C 
ATOM     12  C   LIG d   1     -29.708  86.723 111.626  0.00  0.00     0.006 C 
ENDBRANCH   8  11
ENDBRANCH   7   8
ENDBRANCH   1   7
BRANCH   6  13
ATOM     13  N   LIG d   1     -27.195  84.815 114.422  0.00  0.00    -0.311 N 
ATOM     14  C   LIG d   1     -28.029  83.840 114.065  0.00  0.00     0.210 C 
ATOM     15  C   LIG d   1     -29.459  83.986 114.595  0.00  0.00     0.109 C 
ATOM     16  O   LIG d   1     -27.713  82.851 113.386  0.00  0.00    -0.276 OA
ATOM     17  H   LIG d   1     -27.528  85.561 115.001  0.00  0.00     0.149 HD
ENDBRANCH   6  13
BRANCH   5  18
ATOM     18  N   LIG d   1     -24.833  83.859 116.107  0.00  0.00     0.381 N 
ATOM     19  H   LIG d   1     -24.668  83.018 115.591  0.00  0.00    -0.090 HD
ATOM     20  H   LIG d   1     -25.744  83.798 116.527  0.00  0.00    -0.090 HD
ATOM     21  H   LIG d   1     -24.139  83.965 116.814  0.00  0.00    -0.090 HD
ENDBRANCH   5  18
BRANCH   3  22
ATOM     22  C   LIG d   1     -22.028  86.805 113.580  0.00  0.00     0.382 C 
ATOM     23  O   LIG d   1     -21.778  87.785 114.323  0.00  0.00    -0.241 OA
ATOM     24  O   LIG d   1     -21.195  86.460 112.721  0.00  0.00    -0.241 OA
ENDBRANCH   3  22
TORSDOF 7
ENDMDL
MODEL 9
REMARK VINA RESULT:      -4.3      3.905      5.289
REMARK  7 active torsions:
REMARK  status: ('A' for Active; 'I' for Inactive)
REMARK    1  A    between atoms: C_2  and  C_3 
REMARK    2  A    between atoms: C_3  and  O_6 
REMARK    3  A    between atoms: C_3  and  C_4 
REMARK    4  A    between atoms: C_7  and  O_6 
REMARK    5  A    between atoms: C_9  and  C_10 
REMARK    6  A    between atoms: N_15  and  C_14 
REMARK    7  A    between atoms: N_20  and  C_19 
REMARK       I    between atoms: C_22  and  N_20 
ROOT
ATOM      1  C   LIG d   1       4.364  86.422 115.274  0.00  0.00     0.161 C 
ATOM      2  C   LIG d   1       5.291  86.762 116.273  0.00  0.00     0.016 C 
ATOM      3  C   LIG d   1       6.039  87.962 116.265  0.00  0.00     0.038 C 
ATOM      4  C   LIG d   1       5.798  88.979 115.330  0.00  0.00     0.028 C 
ATOM      5  C   LIG d   1       5.231  88.467 114.010  0.00  0.00    -0.047 C 
ATOM      6  C   LIG d   1       4.008  87.568 114.305  0.00  0.00     0.091 C 
ENDROOT
BRANCH   1   7
ATOM      7  O   LIG d   1       3.170  85.885 115.877  0.00  0.00    -0.368 OA
BRANCH   7   8
ATOM      8  C   LIG d   1       3.078  85.998 117.318  0.00  0.00     0.119 C 
BRANCH   8   9
ATOM      9  C   LIG d   1       2.465  84.686 117.847  0.00  0.00     0.028 C 
ATOM     10  C   LIG d   1       2.314  83.624 116.745  0.00  0.00     0.006 C 
ENDBRANCH   8   9
BRANCH   8  11
ATOM     11  C   LIG d   1       2.097  87.099 117.730  0.00  0.00     0.028 C 
ATOM     12  C   LIG d   1       0.761  87.020 116.973  0.00  0.00     0.006 C 
ENDBRANCH   8  11
ENDBRANCH   7   8
ENDBRANCH   1   7
BRANCH   6  13
ATOM     13  N   LIG d   1       3.443  86.958 113.073  0.00  0.00    -0.311 N 
ATOM     14  C   LIG d   1       2.562  87.574 112.287  0.00  0.00     0.210 C 
ATOM     15  C   LIG d   1       2.093  86.758 111.079  0.00  0.00     0.109 C 
ATOM     16  O   LIG d   1       2.149  88.730 112.459  0.00  0.00    -0.276 OA
ATOM     17  H   LIG d   1       3.748  86.032 112.842  0.00  0.00     0.149 HD
ENDBRANCH   6  13
BRANCH   5  18
ATOM     18  N   LIG d   1       4.899  89.641 113.182  0.00  0.00     0.381 N 
ATOM     19  H   LIG d   1       5.595  90.349 113.304  0.00  0.00    -0.090 HD
ATOM     20  H   LIG d   1       4.015  90.012 113.482  0.00  0.00    -0.090 HD
ATOM     21  H   LIG d   1       4.848  89.378 112.222  0.00  0.00    -0.090 HD
ENDBRANCH   5  18
BRANCH   3  22
ATOM     22  C   LIG d   1       7.068  88.136 117.178  0.00  0.00     0.382 C 
ATOM     23  O   LIG d   1       8.232  87.768 116.888  0.00  0.00    -0.241 OA
ATOM     24  O   LIG d   1       6.839  88.616 118.304  0.00  0.00    -0.241 OA
ENDBRANCH   3  22
TORSDOF 7
ENDMDL
