MODEL 1
REMARK VINA RESULT:      -5.4      0.000      0.000
REMARK  7 active torsions:
REMARK  status: ('A' for Active; 'I' for Inactive)
REMARK    1  A    between atoms: C_2  and  C_3 
REMARK    2  A    between atoms: C_3  and  O_6 
REMARK    3  A    between atoms: C_3  and  C_4 
REMARK    4  A    between atoms: C_7  and  O_6 
REMARK    5  A    between atoms: C_9  and  C_10 
REMARK    6  A    between atoms: N_15  and  C_14 
REMARK    7  A    between atoms: N_20  and  C_19 
REMARK       I    between atoms: C_22  and  N_20 
ROOT
ATOM      1  C   LIG d   1       3.516  84.657 112.398  0.00  0.00     0.161 C 
ATOM      2  C   LIG d   1       3.970  85.940 112.745  0.00  0.00     0.016 C 
ATOM      3  C   LIG d   1       3.392  87.131 112.249  0.00  0.00     0.038 C 
ATOM      4  C   LIG d   1       2.216  87.122 111.485  0.00  0.00     0.028 C 
ATOM      5  C   LIG d   1       2.017  85.833 110.695  0.00  0.00    -0.047 C 
ATOM      6  C   LIG d   1       2.164  84.629 111.654  0.00  0.00     0.091 C 
ENDROOT
BRANCH   1   7
ATOM      7  O   LIG d   1       3.458  83.824 113.573  0.00  0.00    -0.368 OA
BRANCH   7   8
ATOM      8  C   LIG d   1       2.187  83.789 114.268  0.00  0.00     0.119 C 
BRANCH   8   9
ATOM      9  C   LIG d   1       2.353  84.587 115.575  0.00  0.00     0.028 C 
ATOM     10  C   LIG d   1       1.628  85.943 115.532  0.00  0.00     0.006 C 
ENDBRANCH   8   9
BRANCH   8  11
ATOM     11  C   LIG d   1       1.829  82.366 114.704  0.00  0.00     0.028 C 
ATOM     12  C   LIG d   1       1.899  82.174 116.227  0.00  0.00     0.006 C 
ENDBRANCH   8  11
ENDBRANCH   7   8
ENDBRANCH   1   7
BRANCH   6  13
ATOM     13  N   LIG d   1       2.068  83.326 110.946  0.00  0.00    -0.311 N 
ATOM     14  C   LIG d   1       0.933  82.639 110.826  0.00  0.00     0.210 C 
ATOM     15  C   LIG d   1       1.057  81.309 110.076  0.00  0.00     0.109 C 
ATOM     16  O   LIG d   1      -0.172  83.020 111.242  0.00  0.00    -0.276 OA
ATOM     17  H   LIG d   1       2.911  82.957 110.550  0.00  0.00     0.149 HD
ENDBRANCH   6  13
BRANCH   5  18
ATOM     18  N   LIG d   1       0.690  85.903 110.055  0.00  0.00     0.381 N 
ATOM     19  H   LIG d   1       0.406  84.989 109.762  0.00  0.00    -0.090 HD
ATOM     20  H   LIG d   1       0.752  86.489 109.242  0.00  0.00    -0.090 HD
ATOM     21  H   LIG d   1       0.022  86.277 110.693  0.00  0.00    -0.090 HD
ENDBRANCH   5  18
BRANCH   3  22
ATOM     22  C   LIG d   1       4.015  88.347 112.484  0.00  0.00     0.382 C 
ATOM     23  O   LIG d   1       3.327  89.369 112.722  0.00  0.00    -0.241 OA
ATOM     24  O   LIG d   1       5.255  88.445 112.418  0.00  0.00    -0.241 OA
ENDBRANCH   3  22
TORSDOF 7
ENDMDL
MODEL 2
REMARK VINA RESULT:      -5.2      2.710      4.650
REMARK  7 active torsions:
REMARK  status: ('A' for Active; 'I' for Inactive)
REMARK    1  A    between atoms: C_2  and  C_3 
REMARK    2  A    between atoms: C_3  and  O_6 
REMARK    3  A    between atoms: C_3  and  C_4 
REMARK    4  A    between atoms: C_7  and  O_6 
REMARK    5  A    between atoms: C_9  and  C_10 
REMARK    6  A    between atoms: N_15  and  C_14 
REMARK    7  A    between atoms: N_20  and  C_19 
REMARK       I    between atoms: C_22  and  N_20 
ROOT
ATOM      1  C   LIG d   1       2.381  86.527 113.850  0.00  0.00     0.161 C 
ATOM      2  C   LIG d   1       2.822  87.821 113.529  0.00  0.00     0.016 C 
ATOM      3  C   LIG d   1       3.805  88.515 114.272  0.00  0.00     0.038 C 
ATOM      4  C   LIG d   1       4.526  87.898 115.305  0.00  0.00     0.028 C 
ATOM      5  C   LIG d   1       3.761  86.768 115.986  0.00  0.00    -0.047 C 
ATOM      6  C   LIG d   1       3.235  85.796 114.906  0.00  0.00     0.091 C 
ENDROOT
BRANCH   1   7
ATOM      7  O   LIG d   1       2.279  85.734 112.651  0.00  0.00    -0.368 OA
BRANCH   7   8
ATOM      8  C   LIG d   1       1.337  86.203 111.654  0.00  0.00     0.119 C 
BRANCH   8   9
ATOM      9  C   LIG d   1      -0.025  85.552 111.963  0.00  0.00     0.028 C 
ATOM     10  C   LIG d   1      -1.208  86.432 111.526  0.00  0.00     0.006 C 
ENDBRANCH   8   9
BRANCH   8  11
ATOM     11  C   LIG d   1       1.715  85.708 110.255  0.00  0.00     0.028 C 
ATOM     12  C   LIG d   1       2.692  84.522 110.285  0.00  0.00     0.006 C 
ENDBRANCH   8  11
ENDBRANCH   7   8
ENDBRANCH   1   7
BRANCH   6  13
ATOM     13  N   LIG d   1       2.404  84.706 115.481  0.00  0.00    -0.311 N 
ATOM     14  C   LIG d   1       2.890  83.511 115.814  0.00  0.00     0.210 C 
ATOM     15  C   LIG d   1       1.858  82.526 116.371  0.00  0.00     0.109 C 
ATOM     16  O   LIG d   1       4.084  83.185 115.731  0.00  0.00    -0.276 OA
ATOM     17  H   LIG d   1       1.430  84.896 115.611  0.00  0.00     0.149 HD
ENDBRANCH   6  13
BRANCH   5  18
ATOM     18  N   LIG d   1       4.679  86.125 116.946  0.00  0.00     0.381 N 
ATOM     19  H   LIG d   1       4.339  85.214 117.181  0.00  0.00    -0.090 HD
ATOM     20  H   LIG d   1       4.710  86.676 117.786  0.00  0.00    -0.090 HD
ATOM     21  H   LIG d   1       5.591  86.055 116.552  0.00  0.00    -0.090 HD
ENDBRANCH   5  18
BRANCH   3  22
ATOM     22  C   LIG d   1       4.046  89.855 114.010  0.00  0.00     0.382 C 
ATOM     23  O   LIG d   1       4.245  90.653 114.957  0.00  0.00    -0.241 OA
ATOM     24  O   LIG d   1       4.023  90.284 112.841  0.00  0.00    -0.241 OA
ENDBRANCH   3  22
TORSDOF 7
ENDMDL
MODEL 3
REMARK VINA RESULT:      -5.1      1.696      4.885
REMARK  7 active torsions:
REMARK  status: ('A' for Active; 'I' for Inactive)
REMARK    1  A    between atoms: C_2  and  C_3 
REMARK    2  A    between atoms: C_3  and  O_6 
REMARK    3  A    between atoms: C_3  and  C_4 
REMARK    4  A    between atoms: C_7  and  O_6 
REMARK    5  A    between atoms: C_9  and  C_10 
REMARK    6  A    between atoms: N_15  and  C_14 
REMARK    7  A    between atoms: N_20  and  C_19 
REMARK       I    between atoms: C_22  and  N_20 
ROOT
ATOM      1  C   LIG d   1       1.866  84.262 113.377  0.00  0.00     0.161 C 
ATOM      2  C   LIG d   1       0.996  83.211 113.046  0.00  0.00     0.016 C 
ATOM      3  C   LIG d   1       0.295  83.138 111.820  0.00  0.00     0.038 C 
ATOM      4  C   LIG d   1       0.535  84.041 110.774  0.00  0.00     0.028 C 
ATOM      5  C   LIG d   1       1.027  85.404 111.251  0.00  0.00    -0.047 C 
ATOM      6  C   LIG d   1       2.226  85.198 112.205  0.00  0.00     0.091 C 
ENDROOT
BRANCH   1   7
ATOM      7  O   LIG d   1       3.063  83.733 113.982  0.00  0.00    -0.368 OA
BRANCH   7   8
ATOM      8  C   LIG d   1       3.141  83.823 115.426  0.00  0.00     0.119 C 
BRANCH   8   9
ATOM      9  C   LIG d   1       2.006  84.754 115.894  0.00  0.00     0.028 C 
ATOM     10  C   LIG d   1       1.318  84.245 117.171  0.00  0.00     0.006 C 
ENDBRANCH   8   9
BRANCH   8  11
ATOM     11  C   LIG d   1       4.437  84.506 115.872  0.00  0.00     0.028 C 
ATOM     12  C   LIG d   1       4.334  86.039 115.869  0.00  0.00     0.006 C 
ENDBRANCH   8  11
ENDBRANCH   7   8
ENDBRANCH   1   7
BRANCH   6  13
ATOM     13  N   LIG d   1       2.715  86.477 112.784  0.00  0.00    -0.311 N 
ATOM     14  C   LIG d   1       3.730  87.172 112.272  0.00  0.00     0.210 C 
ATOM     15  C   LIG d   1       4.085  88.452 113.035  0.00  0.00     0.109 C 
ATOM     16  O   LIG d   1       4.347  86.868 111.241  0.00  0.00    -0.276 OA
ATOM     17  H   LIG d   1       2.250  86.814 113.604  0.00  0.00     0.149 HD
ENDBRANCH   6  13
BRANCH   5  18
ATOM     18  N   LIG d   1       1.369  86.198 110.056  0.00  0.00     0.381 N 
ATOM     19  H   LIG d   1       1.628  85.588 109.306  0.00  0.00    -0.090 HD
ATOM     20  H   LIG d   1       2.154  86.786 110.270  0.00  0.00    -0.090 HD
ATOM     21  H   LIG d   1       0.590  86.757 109.784  0.00  0.00    -0.090 HD
ENDBRANCH   5  18
BRANCH   3  22
ATOM     22  C   LIG d   1      -0.688  82.176 111.646  0.00  0.00     0.382 C 
ATOM     23  O   LIG d   1      -1.805  82.313 112.202  0.00  0.00    -0.241 OA
ATOM     24  O   LIG d   1      -0.458  81.151 110.977  0.00  0.00    -0.241 OA
ENDBRANCH   3  22
TORSDOF 7
ENDMDL
MODEL 4
REMARK VINA RESULT:      -4.8      3.405      5.784
REMARK  7 active torsions:
REMARK  status: ('A' for Active; 'I' for Inactive)
REMARK    1  A    between atoms: C_2  and  C_3 
REMARK    2  A    between atoms: C_3  and  O_6 
REMARK    3  A    between atoms: C_3  and  C_4 
REMARK    4  A    between atoms: C_7  and  O_6 
REMARK    5  A    between atoms: C_9  and  C_10 
REMARK    6  A    between atoms: N_15  and  C_14 
REMARK    7  A    between atoms: N_20  and  C_19 
REMARK       I    between atoms: C_22  and  N_20 
ROOT
ATOM      1  C   LIG d   1       2.996  87.462 114.880  0.00  0.00     0.161 C 
ATOM      2  C   LIG d   1       2.179  86.958 113.855  0.00  0.00     0.016 C 
ATOM      3  C   LIG d   1       2.527  87.012 112.485  0.00  0.00     0.038 C 
ATOM      4  C   LIG d   1       3.792  87.440 112.058  0.00  0.00     0.028 C 
ATOM      5  C   LIG d   1       4.454  88.425 113.016  0.00  0.00    -0.047 C 
ATOM      6  C   LIG d   1       4.429  87.832 114.443  0.00  0.00     0.091 C 
ENDROOT
BRANCH   1   7
ATOM      7  O   LIG d   1       3.033  86.530 115.979  0.00  0.00    -0.368 OA
BRANCH   7   8
ATOM      8  C   LIG d   1       2.253  86.889 117.146  0.00  0.00     0.119 C 
BRANCH   8   9
ATOM      9  C   LIG d   1       1.048  85.930 117.211  0.00  0.00     0.028 C 
ATOM     10  C   LIG d   1       1.474  84.453 117.233  0.00  0.00     0.006 C 
ENDBRANCH   8   9
BRANCH   8  11
ATOM     11  C   LIG d   1       1.650  88.289 117.004  0.00  0.00     0.028 C 
ATOM     12  C   LIG d   1       0.153  88.331 117.349  0.00  0.00     0.006 C 
ENDBRANCH   8  11
ENDBRANCH   7   8
ENDBRANCH   1   7
BRANCH   6  13
ATOM     13  N   LIG d   1       4.981  88.769 115.456  0.00  0.00    -0.311 N 
ATOM     14  C   LIG d   1       4.549  90.019 115.610  0.00  0.00     0.210 C 
ATOM     15  C   LIG d   1       5.268  90.822 116.699  0.00  0.00     0.109 C 
ATOM     16  O   LIG d   1       3.617  90.530 114.971  0.00  0.00    -0.276 OA
ATOM     17  H   LIG d   1       5.719  88.427 116.039  0.00  0.00     0.149 HD
ENDBRANCH   6  13
BRANCH   5  18
ATOM     18  N   LIG d   1       5.819  88.681 112.519  0.00  0.00     0.381 N 
ATOM     19  H   LIG d   1       6.106  89.604 112.777  0.00  0.00    -0.090 HD
ATOM     20  H   LIG d   1       5.817  88.620 111.516  0.00  0.00    -0.090 HD
ATOM     21  H   LIG d   1       6.451  88.011 112.899  0.00  0.00    -0.090 HD
ENDBRANCH   5  18
BRANCH   3  22
ATOM     22  C   LIG d   1       1.587  86.671 111.524  0.00  0.00     0.382 C 
ATOM     23  O   LIG d   1       1.961  86.318 110.379  0.00  0.00    -0.241 OA
ATOM     24  O   LIG d   1       0.370  86.754 111.773  0.00  0.00    -0.241 OA
ENDBRANCH   3  22
TORSDOF 7
ENDMDL
MODEL 5
REMARK VINA RESULT:      -4.8      2.646      6.044
REMARK  7 active torsions:
REMARK  status: ('A' for Active; 'I' for Inactive)
REMARK    1  A    between atoms: C_2  and  C_3 
REMARK    2  A    between atoms: C_3  and  O_6 
REMARK    3  A    between atoms: C_3  and  C_4 
REMARK    4  A    between atoms: C_7  and  O_6 
REMARK    5  A    between atoms: C_9  and  C_10 
REMARK    6  A    between atoms: N_15  and  C_14 
REMARK    7  A    between atoms: N_20  and  C_19 
REMARK       I    between atoms: C_22  and  N_20 
ROOT
ATOM      1  C   LIG d   1       2.414  85.301 113.242  0.00  0.00     0.161 C 
ATOM      2  C   LIG d   1       2.004  84.038 113.700  0.00  0.00     0.016 C 
ATOM      3  C   LIG d   1       2.055  83.648 115.058  0.00  0.00     0.038 C 
ATOM      4  C   LIG d   1       2.380  84.554 116.078  0.00  0.00     0.028 C 
ATOM      5  C   LIG d   1       3.284  85.690 115.613  0.00  0.00    -0.047 C 
ATOM      6  C   LIG d   1       2.667  86.341 114.354  0.00  0.00     0.091 C 
ENDROOT
BRANCH   1   7
ATOM      7  O   LIG d   1       1.460  85.809 112.289  0.00  0.00    -0.368 OA
BRANCH   7   8
ATOM      8  C   LIG d   1       1.932  85.946 110.926  0.00  0.00     0.119 C 
BRANCH   8   9
ATOM      9  C   LIG d   1       1.122  84.966 110.055  0.00  0.00     0.028 C 
ATOM     10  C   LIG d   1      -0.375  84.965 110.410  0.00  0.00     0.006 C 
ENDBRANCH   8   9
BRANCH   8  11
ATOM     11  C   LIG d   1       3.390  85.496 110.793  0.00  0.00     0.028 C 
ATOM     12  C   LIG d   1       3.535  84.156 110.055  0.00  0.00     0.006 C 
ENDBRANCH   8  11
ENDBRANCH   7   8
ENDBRANCH   1   7
BRANCH   6  13
ATOM     13  N   LIG d   1       3.531  87.407 113.785  0.00  0.00    -0.311 N 
ATOM     14  C   LIG d   1       3.364  88.703 114.044  0.00  0.00     0.210 C 
ATOM     15  C   LIG d   1       4.353  89.636 113.338  0.00  0.00     0.109 C 
ATOM     16  O   LIG d   1       2.510  89.166 114.815  0.00  0.00    -0.276 OA
ATOM     17  H   LIG d   1       4.269  87.118 113.173  0.00  0.00     0.149 HD
ENDBRANCH   6  13
BRANCH   5  18
ATOM     18  N   LIG d   1       3.430  86.633 116.739  0.00  0.00     0.381 N 
ATOM     19  H   LIG d   1       2.538  86.796 117.161  0.00  0.00    -0.090 HD
ATOM     20  H   LIG d   1       3.778  87.508 116.387  0.00  0.00    -0.090 HD
ATOM     21  H   LIG d   1       4.063  86.263 117.413  0.00  0.00    -0.090 HD
ENDBRANCH   5  18
BRANCH   3  22
ATOM     22  C   LIG d   1       1.816  82.326 115.402  0.00  0.00     0.382 C 
ATOM     23  O   LIG d   1       2.208  81.402 114.650  0.00  0.00    -0.241 OA
ATOM     24  O   LIG d   1       1.176  82.048 116.434  0.00  0.00    -0.241 OA
ENDBRANCH   3  22
TORSDOF 7
ENDMDL
MODEL 6
REMARK VINA RESULT:      -4.8      3.407      5.374
REMARK  7 active torsions:
REMARK  status: ('A' for Active; 'I' for Inactive)
REMARK    1  A    between atoms: C_2  and  C_3 
REMARK    2  A    between atoms: C_3  and  O_6 
REMARK    3  A    between atoms: C_3  and  C_4 
REMARK    4  A    between atoms: C_7  and  O_6 
REMARK    5  A    between atoms: C_9  and  C_10 
REMARK    6  A    between atoms: N_15  and  C_14 
REMARK    7  A    between atoms: N_20  and  C_19 
REMARK       I    between atoms: C_22  and  N_20 
ROOT
ATOM      1  C   LIG d   1       2.911  87.328 114.875  0.00  0.00     0.161 C 
ATOM      2  C   LIG d   1       2.119  86.853 113.816  0.00  0.00     0.016 C 
ATOM      3  C   LIG d   1       2.500  86.942 112.458  0.00  0.00     0.038 C 
ATOM      4  C   LIG d   1       3.777  87.379 112.073  0.00  0.00     0.028 C 
ATOM      5  C   LIG d   1       4.416  88.337 113.072  0.00  0.00    -0.047 C 
ATOM      6  C   LIG d   1       4.355  87.707 114.482  0.00  0.00     0.091 C 
ENDROOT
BRANCH   1   7
ATOM      7  O   LIG d   1       2.919  86.367 115.948  0.00  0.00    -0.368 OA
BRANCH   7   8
ATOM      8  C   LIG d   1       1.635  85.797 116.303  0.00  0.00     0.119 C 
BRANCH   8   9
ATOM      9  C   LIG d   1       1.171  86.474 117.607  0.00  0.00     0.028 C 
ATOM     10  C   LIG d   1       0.138  87.585 117.355  0.00  0.00     0.006 C 
ENDBRANCH   8   9
BRANCH   8  11
ATOM     11  C   LIG d   1       1.761  84.308 116.642  0.00  0.00     0.028 C 
ATOM     12  C   LIG d   1       2.340  83.480 115.483  0.00  0.00     0.006 C 
ENDBRANCH   8  11
ENDBRANCH   7   8
ENDBRANCH   1   7
BRANCH   6  13
ATOM     13  N   LIG d   1       4.883  88.615 115.533  0.00  0.00    -0.311 N 
ATOM     14  C   LIG d   1       5.996  88.371 116.222  0.00  0.00     0.210 C 
ATOM     15  C   LIG d   1       6.352  89.427 117.273  0.00  0.00     0.109 C 
ATOM     16  O   LIG d   1       6.741  87.396 116.040  0.00  0.00    -0.276 OA
ATOM     17  H   LIG d   1       4.357  89.446 115.724  0.00  0.00     0.149 HD
ENDBRANCH   6  13
BRANCH   5  18
ATOM     18  N   LIG d   1       5.793  88.603 112.617  0.00  0.00     0.381 N 
ATOM     19  H   LIG d   1       6.167  87.787 112.175  0.00  0.00    -0.090 HD
ATOM     20  H   LIG d   1       6.364  88.819 113.416  0.00  0.00    -0.090 HD
ATOM     21  H   LIG d   1       5.800  89.368 111.979  0.00  0.00    -0.090 HD
ENDBRANCH   5  18
BRANCH   3  22
ATOM     22  C   LIG d   1       1.585  86.629 111.465  0.00  0.00     0.382 C 
ATOM     23  O   LIG d   1       0.364  86.860 111.641  0.00  0.00    -0.241 OA
ATOM     24  O   LIG d   1       1.958  86.077 110.412  0.00  0.00    -0.241 OA
ENDBRANCH   3  22
TORSDOF 7
ENDMDL
MODEL 7
REMARK VINA RESULT:      -4.7      7.581      9.518
REMARK  7 active torsions:
REMARK  status: ('A' for Active; 'I' for Inactive)
REMARK    1  A    between atoms: C_2  and  C_3 
REMARK    2  A    between atoms: C_3  and  O_6 
REMARK    3  A    between atoms: C_3  and  C_4 
REMARK    4  A    between atoms: C_7  and  O_6 
REMARK    5  A    between atoms: C_9  and  C_10 
REMARK    6  A    between atoms: N_15  and  C_14 
REMARK    7  A    between atoms: N_20  and  C_19 
REMARK       I    between atoms: C_22  and  N_20 
ROOT
ATOM      1  C   LIG d   1      -1.333  76.855 113.984  0.00  0.00     0.161 C 
ATOM      2  C   LIG d   1      -2.067  78.051 114.047  0.00  0.00     0.016 C 
ATOM      3  C   LIG d   1      -2.148  78.971 112.976  0.00  0.00     0.038 C 
ATOM      4  C   LIG d   1      -1.621  78.682 111.708  0.00  0.00     0.028 C 
ATOM      5  C   LIG d   1      -0.442  77.715 111.749  0.00  0.00    -0.047 C 
ATOM      6  C   LIG d   1      -0.842  76.470 112.573  0.00  0.00     0.091 C 
ENDROOT
BRANCH   1   7
ATOM      7  O   LIG d   1      -2.101  75.780 114.558  0.00  0.00    -0.368 OA
BRANCH   7   8
ATOM      8  C   LIG d   1      -3.359  76.153 115.173  0.00  0.00     0.119 C 
BRANCH   8   9
ATOM      9  C   LIG d   1      -3.192  76.006 116.697  0.00  0.00     0.028 C 
ATOM     10  C   LIG d   1      -3.877  77.142 117.475  0.00  0.00     0.006 C 
ENDBRANCH   8   9
BRANCH   8  11
ATOM     11  C   LIG d   1      -4.477  75.177 114.792  0.00  0.00     0.028 C 
ATOM     12  C   LIG d   1      -5.585  75.836 113.955  0.00  0.00     0.006 C 
ENDBRANCH   8  11
ENDBRANCH   7   8
ENDBRANCH   1   7
BRANCH   6  13
ATOM     13  N   LIG d   1       0.282  75.511 112.733  0.00  0.00    -0.311 N 
ATOM     14  C   LIG d   1       0.671  74.671 111.776  0.00  0.00     0.210 C 
ATOM     15  C   LIG d   1       1.837  73.753 112.156  0.00  0.00     0.109 C 
ATOM     16  O   LIG d   1       0.181  74.620 110.637  0.00  0.00    -0.276 OA
ATOM     17  H   LIG d   1       0.755  75.507 113.615  0.00  0.00     0.149 HD
ENDBRANCH   6  13
BRANCH   5  18
ATOM     18  N   LIG d   1      -0.080  77.395 110.355  0.00  0.00     0.381 N 
ATOM     19  H   LIG d   1       0.544  78.091 109.999  0.00  0.00    -0.090 HD
ATOM     20  H   LIG d   1      -0.913  77.401 109.794  0.00  0.00    -0.090 HD
ATOM     21  H   LIG d   1       0.351  76.498 110.313  0.00  0.00    -0.090 HD
ENDBRANCH   5  18
BRANCH   3  22
ATOM     22  C   LIG d   1      -2.729  80.213 113.180  0.00  0.00     0.382 C 
ATOM     23  O   LIG d   1      -2.537  81.138 112.354  0.00  0.00    -0.241 OA
ATOM     24  O   LIG d   1      -3.406  80.434 114.201  0.00  0.00    -0.241 OA
ENDBRANCH   3  22
TORSDOF 7
ENDMDL
MODEL 8
REMARK VINA RESULT:      -4.7      3.320      5.522
REMARK  7 active torsions:
REMARK  status: ('A' for Active; 'I' for Inactive)
REMARK    1  A    between atoms: C_2  and  C_3 
REMARK    2  A    between atoms: C_3  and  O_6 
REMARK    3  A    between atoms: C_3  and  C_4 
REMARK    4  A    between atoms: C_7  and  O_6 
REMARK    5  A    between atoms: C_9  and  C_10 
REMARK    6  A    between atoms: N_15  and  C_14 
REMARK    7  A    between atoms: N_20  and  C_19 
REMARK       I    between atoms: C_22  and  N_20 
ROOT
ATOM      1  C   LIG d   1       3.076  87.454 114.846  0.00  0.00     0.161 C 
ATOM      2  C   LIG d   1       2.251  86.941 113.831  0.00  0.00     0.016 C 
ATOM      3  C   LIG d   1       2.561  87.034 112.455  0.00  0.00     0.038 C 
ATOM      4  C   LIG d   1       3.799  87.516 112.004  0.00  0.00     0.028 C 
ATOM      5  C   LIG d   1       4.450  88.505 112.965  0.00  0.00    -0.047 C 
ATOM      6  C   LIG d   1       4.483  87.884 114.380  0.00  0.00     0.091 C 
ENDROOT
BRANCH   1   7
ATOM      7  O   LIG d   1       3.174  86.502 115.923  0.00  0.00    -0.368 OA
BRANCH   7   8
ATOM      8  C   LIG d   1       3.453  85.133 115.541  0.00  0.00     0.119 C 
BRANCH   8   9
ATOM      9  C   LIG d   1       2.178  84.309 115.807  0.00  0.00     0.028 C 
ATOM     10  C   LIG d   1       1.869  83.322 114.669  0.00  0.00     0.006 C 
ENDBRANCH   8   9
BRANCH   8  11
ATOM     11  C   LIG d   1       4.531  84.512 116.435  0.00  0.00     0.028 C 
ATOM     12  C   LIG d   1       5.651  85.502 116.791  0.00  0.00     0.006 C 
ENDBRANCH   8  11
ENDBRANCH   7   8
ENDBRANCH   1   7
BRANCH   6  13
ATOM     13  N   LIG d   1       5.028  88.820 115.398  0.00  0.00    -0.311 N 
ATOM     14  C   LIG d   1       4.531  90.036 115.615  0.00  0.00     0.210 C 
ATOM     15  C   LIG d   1       5.253  90.846 116.696  0.00  0.00     0.109 C 
ATOM     16  O   LIG d   1       3.540  90.509 115.038  0.00  0.00    -0.276 OA
ATOM     17  H   LIG d   1       5.813  88.505 115.933  0.00  0.00     0.149 HD
ENDBRANCH   6  13
BRANCH   5  18
ATOM     18  N   LIG d   1       5.792  88.820 112.440  0.00  0.00     0.381 N 
ATOM     19  H   LIG d   1       6.476  88.247 112.893  0.00  0.00    -0.090 HD
ATOM     20  H   LIG d   1       6.003  89.781 112.641  0.00  0.00    -0.090 HD
ATOM     21  H   LIG d   1       5.818  88.665 111.456  0.00  0.00    -0.090 HD
ENDBRANCH   5  18
BRANCH   3  22
ATOM     22  C   LIG d   1       1.610  86.679 111.511  0.00  0.00     0.382 C 
ATOM     23  O   LIG d   1       1.968  86.330 110.360  0.00  0.00    -0.241 OA
ATOM     24  O   LIG d   1       0.396  86.744 111.781  0.00  0.00    -0.241 OA
ENDBRANCH   3  22
TORSDOF 7
ENDMDL
MODEL 9
REMARK VINA RESULT:      -4.5     26.696     28.215
REMARK  7 active torsions:
REMARK  status: ('A' for Active; 'I' for Inactive)
REMARK    1  A    between atoms: C_2  and  C_3 
REMARK    2  A    between atoms: C_3  and  O_6 
REMARK    3  A    between atoms: C_3  and  C_4 
REMARK    4  A    between atoms: C_7  and  O_6 
REMARK    5  A    between atoms: C_9  and  C_10 
REMARK    6  A    between atoms: N_15  and  C_14 
REMARK    7  A    between atoms: N_20  and  C_19 
REMARK       I    between atoms: C_22  and  N_20 
ROOT
ATOM      1  C   LIG d   1     -25.660  84.928 113.660  0.00  0.00     0.161 C 
ATOM      2  C   LIG d   1     -24.628  85.867 113.491  0.00  0.00     0.016 C 
ATOM      3  C   LIG d   1     -23.292  85.635 113.892  0.00  0.00     0.038 C 
ATOM      4  C   LIG d   1     -22.863  84.382 114.354  0.00  0.00     0.028 C 
ATOM      5  C   LIG d   1     -23.972  83.568 115.013  0.00  0.00    -0.047 C 
ATOM      6  C   LIG d   1     -25.189  83.515 114.061  0.00  0.00     0.091 C 
ENDROOT
BRANCH   1   7
ATOM      7  O   LIG d   1     -26.466  84.868 112.466  0.00  0.00    -0.368 OA
BRANCH   7   8
ATOM      8  C   LIG d   1     -27.876  85.151 112.635  0.00  0.00     0.119 C 
BRANCH   8   9
ATOM      9  C   LIG d   1     -28.290  86.126 111.515  0.00  0.00     0.028 C 
ATOM     10  C   LIG d   1     -27.394  87.374 111.463  0.00  0.00     0.006 C 
ENDBRANCH   8   9
BRANCH   8  11
ATOM     11  C   LIG d   1     -28.141  85.902 113.944  0.00  0.00     0.028 C 
ATOM     12  C   LIG d   1     -29.208  85.221 114.816  0.00  0.00     0.006 C 
ENDBRANCH   8  11
ENDBRANCH   7   8
ENDBRANCH   1   7
BRANCH   6  13
ATOM     13  N   LIG d   1     -26.349  82.808 114.663  0.00  0.00    -0.311 N 
ATOM     14  C   LIG d   1     -27.005  81.823 114.052  0.00  0.00     0.210 C 
ATOM     15  C   LIG d   1     -28.184  81.245 114.841  0.00  0.00     0.109 C 
ATOM     16  O   LIG d   1     -26.703  81.352 112.945  0.00  0.00    -0.276 OA
ATOM     17  H   LIG d   1     -26.642  83.106 115.573  0.00  0.00     0.149 HD
ENDBRANCH   6  13
BRANCH   5  18
ATOM     18  N   LIG d   1     -23.422  82.235 115.323  0.00  0.00     0.381 N 
ATOM     19  H   LIG d   1     -22.874  82.281 116.159  0.00  0.00    -0.090 HD
ATOM     20  H   LIG d   1     -22.824  81.947 114.569  0.00  0.00    -0.090 HD
ATOM     21  H   LIG d   1     -24.163  81.579 115.439  0.00  0.00    -0.090 HD
ENDBRANCH   5  18
BRANCH   3  22
ATOM     22  C   LIG d   1     -22.377  86.677 113.869  0.00  0.00     0.382 C 
ATOM     23  O   LIG d   1     -21.312  86.561 113.216  0.00  0.00    -0.241 OA
ATOM     24  O   LIG d   1     -22.583  87.713 114.528  0.00  0.00    -0.241 OA
ENDBRANCH   3  22
TORSDOF 7
ENDMDL
