MODEL 1
REMARK VINA RESULT:      -5.7      0.000      0.000
REMARK  7 active torsions:
REMARK  status: ('A' for Active; 'I' for Inactive)
REMARK    1  A    between atoms: C_2  and  C_3 
REMARK    2  A    between atoms: C_3  and  O_6 
REMARK    3  A    between atoms: C_3  and  C_4 
REMARK    4  A    between atoms: C_7  and  O_6 
REMARK    5  A    between atoms: C_9  and  C_10 
REMARK    6  A    between atoms: N_15  and  C_14 
REMARK    7  A    between atoms: N_20  and  C_19 
REMARK       I    between atoms: C_22  and  N_20 
ROOT
ATOM      1  C   LIG d   1     -16.163  65.869 114.144  0.00  0.00     0.161 C 
ATOM      2  C   LIG d   1     -15.675  66.693 113.117  0.00  0.00     0.016 C 
ATOM      3  C   LIG d   1     -14.956  67.888 113.353  0.00  0.00     0.038 C 
ATOM      4  C   LIG d   1     -14.545  68.263 114.640  0.00  0.00     0.028 C 
ATOM      5  C   LIG d   1     -15.448  67.727 115.745  0.00  0.00    -0.047 C 
ATOM      6  C   LIG d   1     -15.628  66.204 115.552  0.00  0.00     0.091 C 
ENDROOT
BRANCH   1   7
ATOM      7  O   LIG d   1     -15.906  64.487 113.826  0.00  0.00    -0.368 OA
BRANCH   7   8
ATOM      8  C   LIG d   1     -17.061  63.690 113.464  0.00  0.00     0.119 C 
BRANCH   8   9
ATOM      9  C   LIG d   1     -18.282  64.629 113.442  0.00  0.00     0.028 C 
ATOM     10  C   LIG d   1     -19.438  64.069 112.596  0.00  0.00     0.006 C 
ENDBRANCH   8   9
BRANCH   8  11
ATOM     11  C   LIG d   1     -17.374  62.643 114.537  0.00  0.00     0.028 C 
ATOM     12  C   LIG d   1     -17.725  61.269 113.944  0.00  0.00     0.006 C 
ENDBRANCH   8  11
ENDBRANCH   7   8
ENDBRANCH   1   7
BRANCH   6  13
ATOM     13  N   LIG d   1     -16.566  65.614 116.542  0.00  0.00    -0.311 N 
ATOM     14  C   LIG d   1     -16.258  64.574 117.314  0.00  0.00     0.210 C 
ATOM     15  C   LIG d   1     -17.377  64.111 118.252  0.00  0.00     0.109 C 
ATOM     16  O   LIG d   1     -15.153  64.011 117.334  0.00  0.00    -0.276 OA
ATOM     17  H   LIG d   1     -17.475  66.030 116.614  0.00  0.00     0.149 HD
ENDBRANCH   6  13
BRANCH   5  18
ATOM     18  N   LIG d   1     -14.827  68.077 117.037  0.00  0.00     0.381 N 
ATOM     19  H   LIG d   1     -14.026  67.499 117.195  0.00  0.00    -0.090 HD
ATOM     20  H   LIG d   1     -15.490  67.906 117.773  0.00  0.00    -0.090 HD
ATOM     21  H   LIG d   1     -14.559  69.036 117.038  0.00  0.00    -0.090 HD
ENDBRANCH   5  18
BRANCH   3  22
ATOM     22  C   LIG d   1     -14.677  68.742 112.296  0.00  0.00     0.382 C 
ATOM     23  O   LIG d   1     -15.556  69.536 111.883  0.00  0.00    -0.241 OA
ATOM     24  O   LIG d   1     -13.572  68.697 111.723  0.00  0.00    -0.241 OA
ENDBRANCH   3  22
TORSDOF 7
ENDMDL
MODEL 2
REMARK VINA RESULT:      -5.6     20.687     23.908
REMARK  7 active torsions:
REMARK  status: ('A' for Active; 'I' for Inactive)
REMARK    1  A    between atoms: C_2  and  C_3 
REMARK    2  A    between atoms: C_3  and  O_6 
REMARK    3  A    between atoms: C_3  and  C_4 
REMARK    4  A    between atoms: C_7  and  O_6 
REMARK    5  A    between atoms: C_9  and  C_10 
REMARK    6  A    between atoms: N_15  and  C_14 
REMARK    7  A    between atoms: N_20  and  C_19 
REMARK       I    between atoms: C_22  and  N_20 
ROOT
ATOM      1  C   LIG d   1      -0.449  83.750 113.423  0.00  0.00     0.161 C 
ATOM      2  C   LIG d   1       0.303  84.855 112.990  0.00  0.00     0.016 C 
ATOM      3  C   LIG d   1       0.839  84.969 111.687  0.00  0.00     0.038 C 
ATOM      4  C   LIG d   1       0.530  84.049 110.675  0.00  0.00     0.028 C 
ATOM      5  C   LIG d   1       0.192  82.659 111.203  0.00  0.00    -0.047 C 
ATOM      6  C   LIG d   1      -0.890  82.788 112.300  0.00  0.00     0.091 C 
ENDROOT
BRANCH   1   7
ATOM      7  O   LIG d   1      -1.594  84.201 114.174  0.00  0.00    -0.368 OA
BRANCH   7   8
ATOM      8  C   LIG d   1      -1.701  83.705 115.531  0.00  0.00     0.119 C 
BRANCH   8   9
ATOM      9  C   LIG d   1      -1.964  84.917 116.447  0.00  0.00     0.028 C 
ATOM     10  C   LIG d   1      -2.319  86.186 115.654  0.00  0.00     0.006 C 
ENDBRANCH   8   9
BRANCH   8  11
ATOM     11  C   LIG d   1      -0.375  83.112 116.014  0.00  0.00     0.028 C 
ATOM     12  C   LIG d   1      -0.557  81.792 116.780  0.00  0.00     0.006 C 
ENDBRANCH   8  11
ENDBRANCH   7   8
ENDBRANCH   1   7
BRANCH   6  13
ATOM     13  N   LIG d   1      -1.219  81.482 112.929  0.00  0.00    -0.311 N 
ATOM     14  C   LIG d   1      -2.461  81.017 113.045  0.00  0.00     0.210 C 
ATOM     15  C   LIG d   1      -2.580  79.659 113.744  0.00  0.00     0.109 C 
ATOM     16  O   LIG d   1      -3.473  81.584 112.607  0.00  0.00    -0.276 OA
ATOM     17  H   LIG d   1      -0.454  80.942 113.283  0.00  0.00     0.149 HD
ENDBRANCH   6  13
BRANCH   5  18
ATOM     18  N   LIG d   1      -0.243  81.840 110.056  0.00  0.00     0.381 N 
ATOM     19  H   LIG d   1       0.366  81.053 109.952  0.00  0.00    -0.090 HD
ATOM     20  H   LIG d   1      -0.186  82.395 109.220  0.00  0.00    -0.090 HD
ATOM     21  H   LIG d   1      -1.179  81.529 110.194  0.00  0.00    -0.090 HD
ENDBRANCH   5  18
BRANCH   3  22
ATOM     22  C   LIG d   1       1.728  85.994 111.398  0.00  0.00     0.382 C 
ATOM     23  O   LIG d   1       1.302  87.159 111.213  0.00  0.00    -0.241 OA
ATOM     24  O   LIG d   1       2.945  85.758 111.274  0.00  0.00    -0.241 OA
ENDBRANCH   3  22
TORSDOF 7
ENDMDL
MODEL 3
REMARK VINA RESULT:      -5.5     20.787     24.081
REMARK  7 active torsions:
REMARK  status: ('A' for Active; 'I' for Inactive)
REMARK    1  A    between atoms: C_2  and  C_3 
REMARK    2  A    between atoms: C_3  and  O_6 
REMARK    3  A    between atoms: C_3  and  C_4 
REMARK    4  A    between atoms: C_7  and  O_6 
REMARK    5  A    between atoms: C_9  and  C_10 
REMARK    6  A    between atoms: N_15  and  C_14 
REMARK    7  A    between atoms: N_20  and  C_19 
REMARK       I    between atoms: C_22  and  N_20 
ROOT
ATOM      1  C   LIG d   1      -0.448  83.683 113.408  0.00  0.00     0.161 C 
ATOM      2  C   LIG d   1       0.311  84.770 112.943  0.00  0.00     0.016 C 
ATOM      3  C   LIG d   1       0.825  84.854 111.628  0.00  0.00     0.038 C 
ATOM      4  C   LIG d   1       0.484  83.921 110.638  0.00  0.00     0.028 C 
ATOM      5  C   LIG d   1       0.136  82.545 111.196  0.00  0.00    -0.047 C 
ATOM      6  C   LIG d   1      -0.923  82.709 112.310  0.00  0.00     0.091 C 
ENDROOT
BRANCH   1   7
ATOM      7  O   LIG d   1      -1.572  84.163 114.172  0.00  0.00    -0.368 OA
BRANCH   7   8
ATOM      8  C   LIG d   1      -1.278  84.641 115.508  0.00  0.00     0.119 C 
BRANCH   8   9
ATOM      9  C   LIG d   1      -1.133  83.406 116.419  0.00  0.00     0.028 C 
ATOM     10  C   LIG d   1       0.129  83.469 117.295  0.00  0.00     0.006 C 
ENDBRANCH   8   9
BRANCH   8  11
ATOM     11  C   LIG d   1      -2.452  85.436 116.086  0.00  0.00     0.028 C 
ATOM     12  C   LIG d   1      -2.018  86.778 116.697  0.00  0.00     0.006 C 
ENDBRANCH   8  11
ENDBRANCH   7   8
ENDBRANCH   1   7
BRANCH   6  13
ATOM     13  N   LIG d   1      -1.259  81.419 112.967  0.00  0.00    -0.311 N 
ATOM     14  C   LIG d   1      -2.495  80.926 113.027  0.00  0.00     0.210 C 
ATOM     15  C   LIG d   1      -2.624  79.592 113.769  0.00  0.00     0.109 C 
ATOM     16  O   LIG d   1      -3.492  81.452 112.510  0.00  0.00    -0.276 OA
ATOM     17  H   LIG d   1      -0.505  80.911 113.386  0.00  0.00     0.149 HD
ENDBRANCH   6  13
BRANCH   5  18
ATOM     18  N   LIG d   1      -0.331  81.713 110.071  0.00  0.00     0.381 N 
ATOM     19  H   LIG d   1      -1.258  81.384 110.255  0.00  0.00    -0.090 HD
ATOM     20  H   LIG d   1       0.274  80.916 109.982  0.00  0.00    -0.090 HD
ATOM     21  H   LIG d   1      -0.321  82.243 109.228  0.00  0.00    -0.090 HD
ENDBRANCH   5  18
BRANCH   3  22
ATOM     22  C   LIG d   1       1.722  85.860 111.305  0.00  0.00     0.382 C 
ATOM     23  O   LIG d   1       1.300  86.983 110.938  0.00  0.00    -0.241 OA
ATOM     24  O   LIG d   1       2.949  85.646 111.333  0.00  0.00    -0.241 OA
ENDBRANCH   3  22
TORSDOF 7
ENDMDL
MODEL 4
REMARK VINA RESULT:      -5.3      0.483      1.602
REMARK  7 active torsions:
REMARK  status: ('A' for Active; 'I' for Inactive)
REMARK    1  A    between atoms: C_2  and  C_3 
REMARK    2  A    between atoms: C_3  and  O_6 
REMARK    3  A    between atoms: C_3  and  C_4 
REMARK    4  A    between atoms: C_7  and  O_6 
REMARK    5  A    between atoms: C_9  and  C_10 
REMARK    6  A    between atoms: N_15  and  C_14 
REMARK    7  A    between atoms: N_20  and  C_19 
REMARK       I    between atoms: C_22  and  N_20 
ROOT
ATOM      1  C   LIG d   1     -16.380  65.828 114.132  0.00  0.00     0.161 C 
ATOM      2  C   LIG d   1     -15.928  66.658 113.093  0.00  0.00     0.016 C 
ATOM      3  C   LIG d   1     -15.043  67.743 113.293  0.00  0.00     0.038 C 
ATOM      4  C   LIG d   1     -14.427  67.979 114.531  0.00  0.00     0.028 C 
ATOM      5  C   LIG d   1     -15.242  67.476 115.718  0.00  0.00    -0.047 C 
ATOM      6  C   LIG d   1     -15.632  66.001 115.471  0.00  0.00     0.091 C 
ENDROOT
BRANCH   1   7
ATOM      7  O   LIG d   1     -16.339  64.450 113.710  0.00  0.00    -0.368 OA
BRANCH   7   8
ATOM      8  C   LIG d   1     -17.594  63.728 113.765  0.00  0.00     0.119 C 
BRANCH   8   9
ATOM      9  C   LIG d   1     -17.260  62.232 113.924  0.00  0.00     0.028 C 
ATOM     10  C   LIG d   1     -18.398  61.445 114.596  0.00  0.00     0.006 C 
ENDBRANCH   8   9
BRANCH   8  11
ATOM     11  C   LIG d   1     -18.357  63.836 112.442  0.00  0.00     0.028 C 
ATOM     12  C   LIG d   1     -19.845  64.168 112.638  0.00  0.00     0.006 C 
ENDBRANCH   8  11
ENDBRANCH   7   8
ENDBRANCH   1   7
BRANCH   6  13
ATOM     13  N   LIG d   1     -16.502  65.457 116.546  0.00  0.00    -0.311 N 
ATOM     14  C   LIG d   1     -16.198  64.373 117.257  0.00  0.00     0.210 C 
ATOM     15  C   LIG d   1     -17.242  63.971 118.303  0.00  0.00     0.109 C 
ATOM     16  O   LIG d   1     -15.147  63.724 117.143  0.00  0.00    -0.276 OA
ATOM     17  H   LIG d   1     -17.361  65.940 116.726  0.00  0.00     0.149 HD
ENDBRANCH   6  13
BRANCH   5  18
ATOM     18  N   LIG d   1     -14.423  67.662 116.931  0.00  0.00     0.381 N 
ATOM     19  H   LIG d   1     -14.982  68.058 117.660  0.00  0.00    -0.090 HD
ATOM     20  H   LIG d   1     -13.675  68.300 116.724  0.00  0.00    -0.090 HD
ATOM     21  H   LIG d   1     -14.049  66.787 117.227  0.00  0.00    -0.090 HD
ENDBRANCH   5  18
BRANCH   3  22
ATOM     22  C   LIG d   1     -14.798  68.629 112.255  0.00  0.00     0.382 C 
ATOM     23  O   LIG d   1     -13.693  68.608 111.661  0.00  0.00    -0.241 OA
ATOM     24  O   LIG d   1     -15.650  69.479 111.936  0.00  0.00    -0.241 OA
ENDBRANCH   3  22
TORSDOF 7
ENDMDL
MODEL 5
REMARK VINA RESULT:      -5.2     20.456     24.030
REMARK  7 active torsions:
REMARK  status: ('A' for Active; 'I' for Inactive)
REMARK    1  A    between atoms: C_2  and  C_3 
REMARK    2  A    between atoms: C_3  and  O_6 
REMARK    3  A    between atoms: C_3  and  C_4 
REMARK    4  A    between atoms: C_7  and  O_6 
REMARK    5  A    between atoms: C_9  and  C_10 
REMARK    6  A    between atoms: N_15  and  C_14 
REMARK    7  A    between atoms: N_20  and  C_19 
REMARK       I    between atoms: C_22  and  N_20 
ROOT
ATOM      1  C   LIG d   1      -0.668  82.907 112.621  0.00  0.00     0.161 C 
ATOM      2  C   LIG d   1      -1.572  81.832 112.640  0.00  0.00     0.016 C 
ATOM      3  C   LIG d   1      -1.855  81.073 113.798  0.00  0.00     0.038 C 
ATOM      4  C   LIG d   1      -1.362  81.435 115.061  0.00  0.00     0.028 C 
ATOM      5  C   LIG d   1      -0.049  82.207 115.000  0.00  0.00    -0.047 C 
ATOM      6  C   LIG d   1      -0.205  83.386 114.013  0.00  0.00     0.091 C 
ENDROOT
BRANCH   1   7
ATOM      7  O   LIG d   1      -1.228  84.004 111.874  0.00  0.00    -0.368 OA
BRANCH   7   8
ATOM      8  C   LIG d   1      -0.672  84.227 110.555  0.00  0.00     0.119 C 
BRANCH   8   9
ATOM      9  C   LIG d   1       0.698  83.521 110.505  0.00  0.00     0.028 C 
ATOM     10  C   LIG d   1       1.846  84.491 110.178  0.00  0.00     0.006 C 
ENDBRANCH   8   9
BRANCH   8  11
ATOM     11  C   LIG d   1      -0.372  85.710 110.320  0.00  0.00     0.028 C 
ATOM     12  C   LIG d   1      -1.378  86.639 111.018  0.00  0.00     0.006 C 
ENDBRANCH   8  11
ENDBRANCH   7   8
ENDBRANCH   1   7
BRANCH   6  13
ATOM     13  N   LIG d   1       1.060  84.144 113.830  0.00  0.00    -0.311 N 
ATOM     14  C   LIG d   1       1.132  85.473 113.877  0.00  0.00     0.210 C 
ATOM     15  C   LIG d   1       2.530  86.054 113.643  0.00  0.00     0.109 C 
ATOM     16  O   LIG d   1       0.177  86.225 114.124  0.00  0.00    -0.276 OA
ATOM     17  H   LIG d   1       1.890  83.611 113.656  0.00  0.00     0.149 HD
ENDBRANCH   6  13
BRANCH   5  18
ATOM     18  N   LIG d   1       0.278  82.640 116.371  0.00  0.00     0.381 N 
ATOM     19  H   LIG d   1       1.078  83.240 116.355  0.00  0.00    -0.090 HD
ATOM     20  H   LIG d   1       0.502  81.830 116.923  0.00  0.00    -0.090 HD
ATOM     21  H   LIG d   1      -0.498  83.119 116.772  0.00  0.00    -0.090 HD
ENDBRANCH   5  18
BRANCH   3  22
ATOM     22  C   LIG d   1      -2.608  79.913 113.693  0.00  0.00     0.382 C 
ATOM     23  O   LIG d   1      -3.459  79.799 112.779  0.00  0.00    -0.241 OA
ATOM     24  O   LIG d   1      -2.477  78.997 114.528  0.00  0.00    -0.241 OA
ENDBRANCH   3  22
TORSDOF 7
ENDMDL
MODEL 6
REMARK VINA RESULT:      -5.2      2.515      4.163
REMARK  7 active torsions:
REMARK  status: ('A' for Active; 'I' for Inactive)
REMARK    1  A    between atoms: C_2  and  C_3 
REMARK    2  A    between atoms: C_3  and  O_6 
REMARK    3  A    between atoms: C_3  and  C_4 
REMARK    4  A    between atoms: C_7  and  O_6 
REMARK    5  A    between atoms: C_9  and  C_10 
REMARK    6  A    between atoms: N_15  and  C_14 
REMARK    7  A    between atoms: N_20  and  C_19 
REMARK       I    between atoms: C_22  and  N_20 
ROOT
ATOM      1  C   LIG d   1     -16.397  64.482 116.248  0.00  0.00     0.161 C 
ATOM      2  C   LIG d   1     -15.841  65.759 116.431  0.00  0.00     0.016 C 
ATOM      3  C   LIG d   1     -15.565  66.648 115.367  0.00  0.00     0.038 C 
ATOM      4  C   LIG d   1     -15.968  66.377 114.051  0.00  0.00     0.028 C 
ATOM      5  C   LIG d   1     -16.076  64.887 113.745  0.00  0.00    -0.047 C 
ATOM      6  C   LIG d   1     -16.946  64.214 114.831  0.00  0.00     0.091 C 
ENDROOT
BRANCH   1   7
ATOM      7  O   LIG d   1     -17.420  64.248 117.235  0.00  0.00    -0.368 OA
BRANCH   7   8
ATOM      8  C   LIG d   1     -18.708  64.861 116.976  0.00  0.00     0.119 C 
BRANCH   8   9
ATOM      9  C   LIG d   1     -19.041  65.765 118.179  0.00  0.00     0.028 C 
ATOM     10  C   LIG d   1     -18.928  67.260 117.838  0.00  0.00     0.006 C 
ENDBRANCH   8   9
BRANCH   8  11
ATOM     11  C   LIG d   1     -19.825  63.814 116.933  0.00  0.00     0.028 C 
ATOM     12  C   LIG d   1     -19.380  62.446 117.473  0.00  0.00     0.006 C 
ENDBRANCH   8  11
ENDBRANCH   7   8
ENDBRANCH   1   7
BRANCH   6  13
ATOM     13  N   LIG d   1     -17.034  62.741 114.654  0.00  0.00    -0.311 N 
ATOM     14  C   LIG d   1     -18.032  62.138 114.010  0.00  0.00     0.210 C 
ATOM     15  C   LIG d   1     -17.938  60.609 113.959  0.00  0.00     0.109 C 
ATOM     16  O   LIG d   1     -18.968  62.725 113.448  0.00  0.00    -0.276 OA
ATOM     17  H   LIG d   1     -16.299  62.189 115.052  0.00  0.00     0.149 HD
ENDBRANCH   6  13
BRANCH   5  18
ATOM     18  N   LIG d   1     -16.638  64.751 112.388  0.00  0.00     0.381 N 
ATOM     19  H   LIG d   1     -17.287  63.990 112.365  0.00  0.00    -0.090 HD
ATOM     20  H   LIG d   1     -15.891  64.548 111.746  0.00  0.00    -0.090 HD
ATOM     21  H   LIG d   1     -17.094  65.595 112.121  0.00  0.00    -0.090 HD
ENDBRANCH   5  18
BRANCH   3  22
ATOM     22  C   LIG d   1     -14.841  67.806 115.609  0.00  0.00     0.382 C 
ATOM     23  O   LIG d   1     -15.095  68.850 114.962  0.00  0.00    -0.241 OA
ATOM     24  O   LIG d   1     -13.908  67.807 116.435  0.00  0.00    -0.241 OA
ENDBRANCH   3  22
TORSDOF 7
ENDMDL
MODEL 7
REMARK VINA RESULT:      -5.1     24.004     26.799
REMARK  7 active torsions:
REMARK  status: ('A' for Active; 'I' for Inactive)
REMARK    1  A    between atoms: C_2  and  C_3 
REMARK    2  A    between atoms: C_3  and  O_6 
REMARK    3  A    between atoms: C_3  and  C_4 
REMARK    4  A    between atoms: C_7  and  O_6 
REMARK    5  A    between atoms: C_9  and  C_10 
REMARK    6  A    between atoms: N_15  and  C_14 
REMARK    7  A    between atoms: N_20  and  C_19 
REMARK       I    between atoms: C_22  and  N_20 
ROOT
ATOM      1  C   LIG d   1       1.645  85.145 113.491  0.00  0.00     0.161 C 
ATOM      2  C   LIG d   1       0.448  84.489 113.824  0.00  0.00     0.016 C 
ATOM      3  C   LIG d   1      -0.521  85.035 114.697  0.00  0.00     0.038 C 
ATOM      4  C   LIG d   1      -0.428  86.348 115.181  0.00  0.00     0.028 C 
ATOM      5  C   LIG d   1       1.006  86.858 115.277  0.00  0.00    -0.047 C 
ATOM      6  C   LIG d   1       1.713  86.625 113.922  0.00  0.00     0.091 C 
ENDROOT
BRANCH   1   7
ATOM      7  O   LIG d   1       1.892  85.023 112.076  0.00  0.00    -0.368 OA
BRANCH   7   8
ATOM      8  C   LIG d   1       0.730  84.784 111.245  0.00  0.00     0.119 C 
BRANCH   8   9
ATOM      9  C   LIG d   1       1.181  83.910 110.059  0.00  0.00     0.028 C 
ATOM     10  C   LIG d   1       2.688  83.606 110.094  0.00  0.00     0.006 C 
ENDBRANCH   8   9
BRANCH   8  11
ATOM     11  C   LIG d   1       0.216  86.084 110.618  0.00  0.00     0.028 C 
ATOM     12  C   LIG d   1      -1.182  86.476 111.121  0.00  0.00     0.006 C 
ENDBRANCH   8  11
ENDBRANCH   7   8
ENDBRANCH   1   7
BRANCH   6  13
ATOM     13  N   LIG d   1       3.145  87.019 113.954  0.00  0.00    -0.311 N 
ATOM     14  C   LIG d   1       3.589  88.205 113.542  0.00  0.00     0.210 C 
ATOM     15  C   LIG d   1       5.106  88.399 113.643  0.00  0.00     0.109 C 
ATOM     16  O   LIG d   1       2.868  89.127 113.132  0.00  0.00    -0.276 OA
ATOM     17  H   LIG d   1       3.796  86.342 114.302  0.00  0.00     0.149 HD
ENDBRANCH   6  13
BRANCH   5  18
ATOM     18  N   LIG d   1       0.949  88.280 115.663  0.00  0.00     0.381 N 
ATOM     19  H   LIG d   1       0.341  88.393 116.449  0.00  0.00    -0.090 HD
ATOM     20  H   LIG d   1       0.574  88.810 114.896  0.00  0.00    -0.090 HD
ATOM     21  H   LIG d   1       1.861  88.609 115.889  0.00  0.00    -0.090 HD
ENDBRANCH   5  18
BRANCH   3  22
ATOM     22  C   LIG d   1      -1.579  84.248 115.126  0.00  0.00     0.382 C 
ATOM     23  O   LIG d   1      -1.487  82.997 115.088  0.00  0.00    -0.241 OA
ATOM     24  O   LIG d   1      -2.642  84.773 115.509  0.00  0.00    -0.241 OA
ENDBRANCH   3  22
TORSDOF 7
ENDMDL
MODEL 8
REMARK VINA RESULT:      -5.1     15.799     18.801
REMARK  7 active torsions:
REMARK  status: ('A' for Active; 'I' for Inactive)
REMARK    1  A    between atoms: C_2  and  C_3 
REMARK    2  A    between atoms: C_3  and  O_6 
REMARK    3  A    between atoms: C_3  and  C_4 
REMARK    4  A    between atoms: C_7  and  O_6 
REMARK    5  A    between atoms: C_9  and  C_10 
REMARK    6  A    between atoms: N_15  and  C_14 
REMARK    7  A    between atoms: N_20  and  C_19 
REMARK       I    between atoms: C_22  and  N_20 
ROOT
ATOM      1  C   LIG d   1      -1.817  77.301 113.655  0.00  0.00     0.161 C 
ATOM      2  C   LIG d   1      -2.470  78.534 113.815  0.00  0.00     0.016 C 
ATOM      3  C   LIG d   1      -2.421  79.571 112.855  0.00  0.00     0.038 C 
ATOM      4  C   LIG d   1      -1.835  79.386 111.593  0.00  0.00     0.028 C 
ATOM      5  C   LIG d   1      -0.730  78.335 111.587  0.00  0.00    -0.047 C 
ATOM      6  C   LIG d   1      -1.266  77.040 112.237  0.00  0.00     0.091 C 
ENDROOT
BRANCH   1   7
ATOM      7  O   LIG d   1      -2.693  76.229 114.057  0.00  0.00    -0.368 OA
BRANCH   7   8
ATOM      8  C   LIG d   1      -2.661  75.873 115.461  0.00  0.00     0.119 C 
BRANCH   8   9
ATOM      9  C   LIG d   1      -1.375  75.059 115.704  0.00  0.00     0.028 C 
ATOM     10  C   LIG d   1      -1.230  74.613 117.168  0.00  0.00     0.006 C 
ENDBRANCH   8   9
BRANCH   8  11
ATOM     11  C   LIG d   1      -3.812  74.930 115.824  0.00  0.00     0.028 C 
ATOM     12  C   LIG d   1      -5.074  75.180 114.982  0.00  0.00     0.006 C 
ENDBRANCH   8  11
ENDBRANCH   7   8
ENDBRANCH   1   7
BRANCH   6  13
ATOM     13  N   LIG d   1      -0.223  75.987 112.347  0.00  0.00    -0.311 N 
ATOM     14  C   LIG d   1       0.167  75.231 111.322  0.00  0.00     0.210 C 
ATOM     15  C   LIG d   1       1.242  74.192 111.657  0.00  0.00     0.109 C 
ATOM     16  O   LIG d   1      -0.252  75.344 110.161  0.00  0.00    -0.276 OA
ATOM     17  H   LIG d   1       0.193  75.849 113.248  0.00  0.00     0.149 HD
ENDBRANCH   6  13
BRANCH   5  18
ATOM     18  N   LIG d   1      -0.304  78.146 110.187  0.00  0.00     0.381 N 
ATOM     19  H   LIG d   1      -0.581  78.936 109.639  0.00  0.00    -0.090 HD
ATOM     20  H   LIG d   1      -0.758  77.330 109.817  0.00  0.00    -0.090 HD
ATOM     21  H   LIG d   1       0.685  78.033 110.145  0.00  0.00    -0.090 HD
ENDBRANCH   5  18
BRANCH   3  22
ATOM     22  C   LIG d   1      -2.927  80.823 113.169  0.00  0.00     0.382 C 
ATOM     23  O   LIG d   1      -2.533  81.418 114.200  0.00  0.00    -0.241 OA
ATOM     24  O   LIG d   1      -3.806  81.346 112.457  0.00  0.00    -0.241 OA
ENDBRANCH   3  22
TORSDOF 7
ENDMDL
MODEL 9
REMARK VINA RESULT:      -5.1     20.860     24.135
REMARK  7 active torsions:
REMARK  status: ('A' for Active; 'I' for Inactive)
REMARK    1  A    between atoms: C_2  and  C_3 
REMARK    2  A    between atoms: C_3  and  O_6 
REMARK    3  A    between atoms: C_3  and  C_4 
REMARK    4  A    between atoms: C_7  and  O_6 
REMARK    5  A    between atoms: C_9  and  C_10 
REMARK    6  A    between atoms: N_15  and  C_14 
REMARK    7  A    between atoms: N_20  and  C_19 
REMARK       I    between atoms: C_22  and  N_20 
ROOT
ATOM      1  C   LIG d   1       0.911  82.615 113.658  0.00  0.00     0.161 C 
ATOM      2  C   LIG d   1       1.955  83.425 113.181  0.00  0.00     0.016 C 
ATOM      3  C   LIG d   1       2.196  83.655 111.807  0.00  0.00     0.038 C 
ATOM      4  C   LIG d   1       1.311  83.208 110.814  0.00  0.00     0.028 C 
ATOM      5  C   LIG d   1       0.527  81.964 111.217  0.00  0.00    -0.047 C 
ATOM      6  C   LIG d   1      -0.131  82.209 112.595  0.00  0.00     0.091 C 
ENDROOT
BRANCH   1   7
ATOM      7  O   LIG d   1       0.264  83.258 114.774  0.00  0.00    -0.368 OA
BRANCH   7   8
ATOM      8  C   LIG d   1      -0.980  83.941 114.482  0.00  0.00     0.119 C 
BRANCH   8   9
ATOM      9  C   LIG d   1      -0.659  85.439 114.322  0.00  0.00     0.028 C 
ATOM     10  C   LIG d   1      -0.776  85.912 112.863  0.00  0.00     0.006 C 
ENDBRANCH   8   9
BRANCH   8  11
ATOM     11  C   LIG d   1      -1.952  83.858 115.663  0.00  0.00     0.028 C 
ATOM     12  C   LIG d   1      -2.264  85.233 116.275  0.00  0.00     0.006 C 
ENDBRANCH   8  11
ENDBRANCH   7   8
ENDBRANCH   1   7
BRANCH   6  13
ATOM     13  N   LIG d   1      -0.848  81.011 113.102  0.00  0.00    -0.311 N 
ATOM     14  C   LIG d   1      -2.168  80.856 113.017  0.00  0.00     0.210 C 
ATOM     15  C   LIG d   1      -2.707  79.555 113.620  0.00  0.00     0.109 C 
ATOM     16  O   LIG d   1      -2.941  81.658 112.470  0.00  0.00    -0.276 OA
ATOM     17  H   LIG d   1      -0.295  80.296 113.532  0.00  0.00     0.149 HD
ENDBRANCH   6  13
BRANCH   5  18
ATOM     18  N   LIG d   1      -0.453  81.689 110.149  0.00  0.00     0.381 N 
ATOM     19  H   LIG d   1      -0.107  82.032 109.276  0.00  0.00    -0.090 HD
ATOM     20  H   LIG d   1      -1.308  82.173 110.361  0.00  0.00    -0.090 HD
ATOM     21  H   LIG d   1      -0.624  80.710 110.087  0.00  0.00    -0.090 HD
ENDBRANCH   5  18
BRANCH   3  22
ATOM     22  C   LIG d   1       3.355  84.305 111.412  0.00  0.00     0.382 C 
ATOM     23  O   LIG d   1       3.471  85.542 111.590  0.00  0.00    -0.241 OA
ATOM     24  O   LIG d   1       4.267  83.679 110.840  0.00  0.00    -0.241 OA
ENDBRANCH   3  22
TORSDOF 7
ENDMDL
