MODEL 1
REMARK VINA RESULT:      -5.9      0.000      0.000
REMARK  7 active torsions:
REMARK  status: ('A' for Active; 'I' for Inactive)
REMARK    1  A    between atoms: C_2  and  C_3 
REMARK    2  A    between atoms: C_3  and  O_6 
REMARK    3  A    between atoms: C_3  and  C_4 
REMARK    4  A    between atoms: C_7  and  O_6 
REMARK    5  A    between atoms: C_9  and  C_10 
REMARK    6  A    between atoms: N_15  and  C_14 
REMARK    7  A    between atoms: N_20  and  C_19 
REMARK       I    between atoms: C_22  and  N_20 
ROOT
ATOM      1  C   LIG d   1     -16.180  66.046 114.097  0.00  0.00     0.161 C 
ATOM      2  C   LIG d   1     -15.590  66.872 113.126  0.00  0.00     0.016 C 
ATOM      3  C   LIG d   1     -14.988  68.116 113.424  0.00  0.00     0.038 C 
ATOM      4  C   LIG d   1     -14.800  68.552 114.745  0.00  0.00     0.028 C 
ATOM      5  C   LIG d   1     -15.828  67.988 115.720  0.00  0.00    -0.047 C 
ATOM      6  C   LIG d   1     -15.886  66.452 115.557  0.00  0.00     0.091 C 
ENDROOT
BRANCH   1   7
ATOM      7  O   LIG d   1     -15.795  64.675 113.871  0.00  0.00    -0.368 OA
BRANCH   7   8
ATOM      8  C   LIG d   1     -16.871  63.752 113.575  0.00  0.00     0.119 C 
BRANCH   8   9
ATOM      9  C   LIG d   1     -18.167  64.577 113.447  0.00  0.00     0.028 C 
ATOM     10  C   LIG d   1     -18.990  64.187 112.208  0.00  0.00     0.006 C 
ENDBRANCH   8   9
BRANCH   8  11
ATOM     11  C   LIG d   1     -17.117  62.789 114.740  0.00  0.00     0.028 C 
ATOM     12  C   LIG d   1     -17.769  61.471 114.297  0.00  0.00     0.006 C 
ENDBRANCH   8  11
ENDBRANCH   7   8
ENDBRANCH   1   7
BRANCH   6  13
ATOM     13  N   LIG d   1     -16.927  65.829 116.415  0.00  0.00    -0.311 N 
ATOM     14  C   LIG d   1     -16.665  65.260 117.590  0.00  0.00     0.210 C 
ATOM     15  C   LIG d   1     -17.880  64.660 118.304  0.00  0.00     0.109 C 
ATOM     16  O   LIG d   1     -15.546  65.224 118.124  0.00  0.00    -0.276 OA
ATOM     17  H   LIG d   1     -17.868  65.842 116.073  0.00  0.00     0.149 HD
ENDBRANCH   6  13
BRANCH   5  18
ATOM     18  N   LIG d   1     -15.434  68.411 117.077  0.00  0.00     0.381 N 
ATOM     19  H   LIG d   1     -16.178  68.225 117.720  0.00  0.00    -0.090 HD
ATOM     20  H   LIG d   1     -15.260  69.401 117.072  0.00  0.00    -0.090 HD
ATOM     21  H   LIG d   1     -14.612  67.924 117.360  0.00  0.00    -0.090 HD
ENDBRANCH   5  18
BRANCH   3  22
ATOM     22  C   LIG d   1     -14.602  68.958 112.392  0.00  0.00     0.382 C 
ATOM     23  O   LIG d   1     -15.441  69.727 111.864  0.00  0.00    -0.241 OA
ATOM     24  O   LIG d   1     -13.437  68.927 111.953  0.00  0.00    -0.241 OA
ENDBRANCH   3  22
TORSDOF 7
ENDMDL
MODEL 2
REMARK VINA RESULT:      -5.4      2.587      4.308
REMARK  7 active torsions:
REMARK  status: ('A' for Active; 'I' for Inactive)
REMARK    1  A    between atoms: C_2  and  C_3 
REMARK    2  A    between atoms: C_3  and  O_6 
REMARK    3  A    between atoms: C_3  and  C_4 
REMARK    4  A    between atoms: C_7  and  O_6 
REMARK    5  A    between atoms: C_9  and  C_10 
REMARK    6  A    between atoms: N_15  and  C_14 
REMARK    7  A    between atoms: N_20  and  C_19 
REMARK       I    between atoms: C_22  and  N_20 
ROOT
ATOM      1  C   LIG d   1     -16.347  64.604 116.560  0.00  0.00     0.161 C 
ATOM      2  C   LIG d   1     -15.750  65.854 116.797  0.00  0.00     0.016 C 
ATOM      3  C   LIG d   1     -15.360  66.738 115.765  0.00  0.00     0.038 C 
ATOM      4  C   LIG d   1     -15.681  66.497 114.421  0.00  0.00     0.028 C 
ATOM      5  C   LIG d   1     -15.832  65.016 114.091  0.00  0.00    -0.047 C 
ATOM      6  C   LIG d   1     -16.806  64.373 115.105  0.00  0.00     0.091 C 
ENDROOT
BRANCH   1   7
ATOM      7  O   LIG d   1     -17.448  64.409 117.469  0.00  0.00    -0.368 OA
BRANCH   7   8
ATOM      8  C   LIG d   1     -18.750  64.832 116.995  0.00  0.00     0.119 C 
BRANCH   8   9
ATOM      9  C   LIG d   1     -19.230  65.971 117.915  0.00  0.00     0.028 C 
ATOM     10  C   LIG d   1     -19.216  67.339 117.211  0.00  0.00     0.006 C 
ENDBRANCH   8   9
BRANCH   8  11
ATOM     11  C   LIG d   1     -19.789  63.718 117.153  0.00  0.00     0.028 C 
ATOM     12  C   LIG d   1     -20.936  63.825 116.135  0.00  0.00     0.006 C 
ENDBRANCH   8  11
ENDBRANCH   7   8
ENDBRANCH   1   7
BRANCH   6  13
ATOM     13  N   LIG d   1     -16.946  62.907 114.905  0.00  0.00    -0.311 N 
ATOM     14  C   LIG d   1     -17.899  62.357 114.154  0.00  0.00     0.210 C 
ATOM     15  C   LIG d   1     -17.875  60.826 114.098  0.00  0.00     0.109 C 
ATOM     16  O   LIG d   1     -18.741  62.993 113.503  0.00  0.00    -0.276 OA
ATOM     17  H   LIG d   1     -16.285  62.318 115.372  0.00  0.00     0.149 HD
ENDBRANCH   6  13
BRANCH   5  18
ATOM     18  N   LIG d   1     -16.301  64.917 112.696  0.00  0.00     0.381 N 
ATOM     19  H   LIG d   1     -15.543  65.100 112.070  0.00  0.00    -0.090 HD
ATOM     20  H   LIG d   1     -17.012  65.610 112.542  0.00  0.00    -0.090 HD
ATOM     21  H   LIG d   1     -16.671  64.007 112.524  0.00  0.00    -0.090 HD
ENDBRANCH   5  18
BRANCH   3  22
ATOM     22  C   LIG d   1     -14.605  67.860 116.071  0.00  0.00     0.382 C 
ATOM     23  O   LIG d   1     -13.604  67.757 116.821  0.00  0.00    -0.241 OA
ATOM     24  O   LIG d   1     -14.937  68.982 115.643  0.00  0.00    -0.241 OA
ENDBRANCH   3  22
TORSDOF 7
ENDMDL
MODEL 3
REMARK VINA RESULT:      -5.4     24.636     26.986
REMARK  7 active torsions:
REMARK  status: ('A' for Active; 'I' for Inactive)
REMARK    1  A    between atoms: C_2  and  C_3 
REMARK    2  A    between atoms: C_3  and  O_6 
REMARK    3  A    between atoms: C_3  and  C_4 
REMARK    4  A    between atoms: C_7  and  O_6 
REMARK    5  A    between atoms: C_9  and  C_10 
REMARK    6  A    between atoms: N_15  and  C_14 
REMARK    7  A    between atoms: N_20  and  C_19 
REMARK       I    between atoms: C_22  and  N_20 
ROOT
ATOM      1  C   LIG d   1       1.991  84.852 113.274  0.00  0.00     0.161 C 
ATOM      2  C   LIG d   1       2.095  86.169 112.797  0.00  0.00     0.016 C 
ATOM      3  C   LIG d   1       3.057  87.093 113.267  0.00  0.00     0.038 C 
ATOM      4  C   LIG d   1       4.085  86.712 114.143  0.00  0.00     0.028 C 
ATOM      5  C   LIG d   1       3.715  85.532 115.034  0.00  0.00    -0.047 C 
ATOM      6  C   LIG d   1       3.174  84.385 114.149  0.00  0.00     0.091 C 
ENDROOT
BRANCH   1   7
ATOM      7  O   LIG d   1       1.798  83.946 112.169  0.00  0.00    -0.368 OA
BRANCH   7   8
ATOM      8  C   LIG d   1       1.891  84.527 110.845  0.00  0.00     0.119 C 
BRANCH   8   9
ATOM      9  C   LIG d   1       0.623  84.121 110.071  0.00  0.00     0.028 C 
ATOM     10  C   LIG d   1      -0.477  85.193 110.141  0.00  0.00     0.006 C 
ENDBRANCH   8   9
BRANCH   8  11
ATOM     11  C   LIG d   1       3.058  83.928 110.055  0.00  0.00     0.028 C 
ATOM     12  C   LIG d   1       4.415  84.536 110.443  0.00  0.00     0.006 C 
ENDBRANCH   8  11
ENDBRANCH   7   8
ENDBRANCH   1   7
BRANCH   6  13
ATOM     13  N   LIG d   1       2.710  83.222 114.949  0.00  0.00    -0.311 N 
ATOM     14  C   LIG d   1       3.307  82.032 114.927  0.00  0.00     0.210 C 
ATOM     15  C   LIG d   1       2.655  80.965 115.811  0.00  0.00     0.109 C 
ATOM     16  O   LIG d   1       4.334  81.768 114.284  0.00  0.00    -0.276 OA
ATOM     17  H   LIG d   1       1.901  83.357 115.523  0.00  0.00     0.149 HD
ENDBRANCH   6  13
BRANCH   5  18
ATOM     18  N   LIG d   1       4.920  85.154 115.796  0.00  0.00     0.381 N 
ATOM     19  H   LIG d   1       4.660  84.601 116.588  0.00  0.00    -0.090 HD
ATOM     20  H   LIG d   1       5.369  85.989 116.128  0.00  0.00    -0.090 HD
ATOM     21  H   LIG d   1       5.545  84.640 115.214  0.00  0.00    -0.090 HD
ENDBRANCH   5  18
BRANCH   3  22
ATOM     22  C   LIG d   1       2.973  88.425 112.889  0.00  0.00     0.382 C 
ATOM     23  O   LIG d   1       1.940  88.850 112.318  0.00  0.00    -0.241 OA
ATOM     24  O   LIG d   1       3.934  89.196 113.074  0.00  0.00    -0.241 OA
ENDBRANCH   3  22
TORSDOF 7
ENDMDL
MODEL 4
REMARK VINA RESULT:      -5.0     19.371     21.450
REMARK  7 active torsions:
REMARK  status: ('A' for Active; 'I' for Inactive)
REMARK    1  A    between atoms: C_2  and  C_3 
REMARK    2  A    between atoms: C_3  and  O_6 
REMARK    3  A    between atoms: C_3  and  C_4 
REMARK    4  A    between atoms: C_7  and  O_6 
REMARK    5  A    between atoms: C_9  and  C_10 
REMARK    6  A    between atoms: N_15  and  C_14 
REMARK    7  A    between atoms: N_20  and  C_19 
REMARK       I    between atoms: C_22  and  N_20 
ROOT
ATOM      1  C   LIG d   1     -25.717  85.047 112.843  0.00  0.00     0.161 C 
ATOM      2  C   LIG d   1     -24.553  85.799 113.071  0.00  0.00     0.016 C 
ATOM      3  C   LIG d   1     -23.378  85.261 113.646  0.00  0.00     0.038 C 
ATOM      4  C   LIG d   1     -23.237  83.887 113.894  0.00  0.00     0.028 C 
ATOM      5  C   LIG d   1     -24.563  83.178 114.148  0.00  0.00    -0.047 C 
ATOM      6  C   LIG d   1     -25.543  83.522 113.004  0.00  0.00     0.091 C 
ENDROOT
BRANCH   1   7
ATOM      7  O   LIG d   1     -26.250  85.356 111.540  0.00  0.00    -0.368 OA
BRANCH   7   8
ATOM      8  C   LIG d   1     -26.857  86.663 111.393  0.00  0.00     0.119 C 
BRANCH   8   9
ATOM      9  C   LIG d   1     -28.382  86.458 111.307  0.00  0.00     0.028 C 
ATOM     10  C   LIG d   1     -28.766  85.290 110.384  0.00  0.00     0.006 C 
ENDBRANCH   8   9
BRANCH   8  11
ATOM     11  C   LIG d   1     -26.460  87.316 110.065  0.00  0.00     0.028 C 
ATOM     12  C   LIG d   1     -26.693  88.835 110.055  0.00  0.00     0.006 C 
ENDBRANCH   8  11
ENDBRANCH   7   8
ENDBRANCH   1   7
BRANCH   6  13
ATOM     13  N   LIG d   1     -26.892  82.936 113.218  0.00  0.00    -0.311 N 
ATOM     14  C   LIG d   1     -27.538  82.226 112.295  0.00  0.00     0.210 C 
ATOM     15  C   LIG d   1     -28.926  81.731 112.714  0.00  0.00     0.109 C 
ATOM     16  O   LIG d   1     -27.080  81.931 111.181  0.00  0.00    -0.276 OA
ATOM     17  H   LIG d   1     -27.325  83.100 114.106  0.00  0.00     0.149 HD
ENDBRANCH   6  13
BRANCH   5  18
ATOM     18  N   LIG d   1     -24.282  81.734 114.254  0.00  0.00     0.381 N 
ATOM     19  H   LIG d   1     -23.294  81.579 114.250  0.00  0.00    -0.090 HD
ATOM     20  H   LIG d   1     -24.678  81.266 113.457  0.00  0.00    -0.090 HD
ATOM     21  H   LIG d   1     -24.678  81.370 115.093  0.00  0.00    -0.090 HD
ENDBRANCH   5  18
BRANCH   3  22
ATOM     22  C   LIG d   1     -22.344  86.107 114.016  0.00  0.00     0.382 C 
ATOM     23  O   LIG d   1     -22.323  86.606 115.167  0.00  0.00    -0.241 OA
ATOM     24  O   LIG d   1     -21.455  86.413 113.199  0.00  0.00    -0.241 OA
ENDBRANCH   3  22
TORSDOF 7
ENDMDL
MODEL 5
REMARK VINA RESULT:      -4.9      2.318      5.380
REMARK  7 active torsions:
REMARK  status: ('A' for Active; 'I' for Inactive)
REMARK    1  A    between atoms: C_2  and  C_3 
REMARK    2  A    between atoms: C_3  and  O_6 
REMARK    3  A    between atoms: C_3  and  C_4 
REMARK    4  A    between atoms: C_7  and  O_6 
REMARK    5  A    between atoms: C_9  and  C_10 
REMARK    6  A    between atoms: N_15  and  C_14 
REMARK    7  A    between atoms: N_20  and  C_19 
REMARK       I    between atoms: C_22  and  N_20 
ROOT
ATOM      1  C   LIG d   1     -16.263  64.040 115.536  0.00  0.00     0.161 C 
ATOM      2  C   LIG d   1     -16.765  62.845 114.995  0.00  0.00     0.016 C 
ATOM      3  C   LIG d   1     -18.071  62.365 115.247  0.00  0.00     0.038 C 
ATOM      4  C   LIG d   1     -19.021  63.130 115.940  0.00  0.00     0.028 C 
ATOM      5  C   LIG d   1     -18.403  64.111 116.930  0.00  0.00    -0.047 C 
ATOM      6  C   LIG d   1     -17.321  64.943 116.203  0.00  0.00     0.091 C 
ENDROOT
BRANCH   1   7
ATOM      7  O   LIG d   1     -15.547  64.773 114.521  0.00  0.00    -0.368 OA
BRANCH   7   8
ATOM      8  C   LIG d   1     -16.305  65.782 113.810  0.00  0.00     0.119 C 
BRANCH   8   9
ATOM      9  C   LIG d   1     -16.865  65.126 112.533  0.00  0.00     0.028 C 
ATOM     10  C   LIG d   1     -18.381  64.880 112.615  0.00  0.00     0.006 C 
ENDBRANCH   8   9
BRANCH   8  11
ATOM     11  C   LIG d   1     -15.400  66.916 113.320  0.00  0.00     0.028 C 
ATOM     12  C   LIG d   1     -15.197  68.014 114.376  0.00  0.00     0.006 C 
ENDBRANCH   8  11
ENDBRANCH   7   8
ENDBRANCH   1   7
BRANCH   6  13
ATOM     13  N   LIG d   1     -16.608  65.869 117.120  0.00  0.00    -0.311 N 
ATOM     14  C   LIG d   1     -16.992  67.126 117.338  0.00  0.00     0.210 C 
ATOM     15  C   LIG d   1     -16.104  67.916 118.305  0.00  0.00     0.109 C 
ATOM     16  O   LIG d   1     -18.002  67.652 116.847  0.00  0.00    -0.276 OA
ATOM     17  H   LIG d   1     -15.794  65.515 117.585  0.00  0.00     0.149 HD
ENDBRANCH   6  13
BRANCH   5  18
ATOM     18  N   LIG d   1     -19.495  64.937 117.480  0.00  0.00     0.381 N 
ATOM     19  H   LIG d   1     -20.198  64.347 117.877  0.00  0.00    -0.090 HD
ATOM     20  H   LIG d   1     -19.910  65.465 116.733  0.00  0.00    -0.090 HD
ATOM     21  H   LIG d   1     -19.138  65.555 118.175  0.00  0.00    -0.090 HD
ENDBRANCH   5  18
BRANCH   3  22
ATOM     22  C   LIG d   1     -18.425  61.089 114.836  0.00  0.00     0.382 C 
ATOM     23  O   LIG d   1     -19.532  60.605 115.177  0.00  0.00    -0.241 OA
ATOM     24  O   LIG d   1     -17.634  60.398 114.167  0.00  0.00    -0.241 OA
ENDBRANCH   3  22
TORSDOF 7
ENDMDL
MODEL 6
REMARK VINA RESULT:      -4.9     24.534     27.097
REMARK  7 active torsions:
REMARK  status: ('A' for Active; 'I' for Inactive)
REMARK    1  A    between atoms: C_2  and  C_3 
REMARK    2  A    between atoms: C_3  and  O_6 
REMARK    3  A    between atoms: C_3  and  C_4 
REMARK    4  A    between atoms: C_7  and  O_6 
REMARK    5  A    between atoms: C_9  and  C_10 
REMARK    6  A    between atoms: N_15  and  C_14 
REMARK    7  A    between atoms: N_20  and  C_19 
REMARK       I    between atoms: C_22  and  N_20 
ROOT
ATOM      1  C   LIG d   1       2.183  84.971 113.890  0.00  0.00     0.161 C 
ATOM      2  C   LIG d   1       2.286  86.211 113.237  0.00  0.00     0.016 C 
ATOM      3  C   LIG d   1       3.224  87.205 113.600  0.00  0.00     0.038 C 
ATOM      4  C   LIG d   1       4.229  86.965 114.549  0.00  0.00     0.028 C 
ATOM      5  C   LIG d   1       3.845  85.914 115.585  0.00  0.00    -0.047 C 
ATOM      6  C   LIG d   1       3.343  84.648 114.853  0.00  0.00     0.091 C 
ENDROOT
BRANCH   1   7
ATOM      7  O   LIG d   1       2.032  83.918 112.917  0.00  0.00    -0.368 OA
BRANCH   7   8
ATOM      8  C   LIG d   1       3.252  83.446 112.294  0.00  0.00     0.119 C 
BRANCH   8   9
ATOM      9  C   LIG d   1       3.155  83.761 110.789  0.00  0.00     0.028 C 
ATOM     10  C   LIG d   1       4.489  83.541 110.056  0.00  0.00     0.006 C 
ENDBRANCH   8   9
BRANCH   8  11
ATOM     11  C   LIG d   1       3.369  81.922 112.382  0.00  0.00     0.028 C 
ATOM     12  C   LIG d   1       2.101  81.258 112.944  0.00  0.00     0.006 C 
ENDBRANCH   8  11
ENDBRANCH   7   8
ENDBRANCH   1   7
BRANCH   6  13
ATOM     13  N   LIG d   1       2.869  83.600 115.794  0.00  0.00    -0.311 N 
ATOM     14  C   LIG d   1       3.603  82.548 116.151  0.00  0.00     0.210 C 
ATOM     15  C   LIG d   1       2.915  81.577 117.116  0.00  0.00     0.109 C 
ATOM     16  O   LIG d   1       4.769  82.342 115.784  0.00  0.00    -0.276 OA
ATOM     17  H   LIG d   1       1.944  83.705 116.165  0.00  0.00     0.149 HD
ENDBRANCH   6  13
BRANCH   5  18
ATOM     18  N   LIG d   1       5.031  85.663 116.426  0.00  0.00     0.381 N 
ATOM     19  H   LIG d   1       4.986  84.740 116.809  0.00  0.00    -0.090 HD
ATOM     20  H   LIG d   1       5.035  86.320 117.186  0.00  0.00    -0.090 HD
ATOM     21  H   LIG d   1       5.861  85.766 115.885  0.00  0.00    -0.090 HD
ENDBRANCH   5  18
BRANCH   3  22
ATOM     22  C   LIG d   1       3.136  88.470 113.039  0.00  0.00     0.382 C 
ATOM     23  O   LIG d   1       4.049  89.308 113.236  0.00  0.00    -0.241 OA
ATOM     24  O   LIG d   1       2.135  88.798 112.375  0.00  0.00    -0.241 OA
ENDBRANCH   3  22
TORSDOF 7
ENDMDL
MODEL 7
REMARK VINA RESULT:      -4.8     19.516     21.771
REMARK  7 active torsions:
REMARK  status: ('A' for Active; 'I' for Inactive)
REMARK    1  A    between atoms: C_2  and  C_3 
REMARK    2  A    between atoms: C_3  and  O_6 
REMARK    3  A    between atoms: C_3  and  C_4 
REMARK    4  A    between atoms: C_7  and  O_6 
REMARK    5  A    between atoms: C_9  and  C_10 
REMARK    6  A    between atoms: N_15  and  C_14 
REMARK    7  A    between atoms: N_20  and  C_19 
REMARK       I    between atoms: C_22  and  N_20 
ROOT
ATOM      1  C   LIG d   1     -24.713  85.200 112.562  0.00  0.00     0.161 C 
ATOM      2  C   LIG d   1     -25.426  83.995 112.448  0.00  0.00     0.016 C 
ATOM      3  C   LIG d   1     -25.865  83.242 113.561  0.00  0.00     0.038 C 
ATOM      4  C   LIG d   1     -25.751  83.724 114.874  0.00  0.00     0.028 C 
ATOM      5  C   LIG d   1     -24.590  84.695 115.064  0.00  0.00    -0.047 C 
ATOM      6  C   LIG d   1     -24.677  85.798 113.985  0.00  0.00     0.091 C 
ENDROOT
BRANCH   1   7
ATOM      7  O   LIG d   1     -25.232  86.166 111.626  0.00  0.00    -0.368 OA
BRANCH   7   8
ATOM      8  C   LIG d   1     -26.621  86.541 111.802  0.00  0.00     0.119 C 
BRANCH   8   9
ATOM      9  C   LIG d   1     -27.313  86.411 110.432  0.00  0.00     0.028 C 
ATOM     10  C   LIG d   1     -28.578  85.538 110.493  0.00  0.00     0.006 C 
ENDBRANCH   8   9
BRANCH   8  11
ATOM     11  C   LIG d   1     -26.754  88.018 112.185  0.00  0.00     0.028 C 
ATOM     12  C   LIG d   1     -27.002  88.928 110.972  0.00  0.00     0.006 C 
ENDBRANCH   8  11
ENDBRANCH   7   8
ENDBRANCH   1   7
BRANCH   6  13
ATOM     13  N   LIG d   1     -23.531  86.743 114.046  0.00  0.00    -0.311 N 
ATOM     14  C   LIG d   1     -22.259  86.360 113.942  0.00  0.00     0.210 C 
ATOM     15  C   LIG d   1     -21.233  87.492 114.052  0.00  0.00     0.109 C 
ATOM     16  O   LIG d   1     -21.885  85.196 113.736  0.00  0.00    -0.276 OA
ATOM     17  H   LIG d   1     -23.745  87.711 114.180  0.00  0.00     0.149 HD
ENDBRANCH   6  13
BRANCH   5  18
ATOM     18  N   LIG d   1     -24.672  85.224 116.439  0.00  0.00     0.381 N 
ATOM     19  H   LIG d   1     -25.624  85.436 116.664  0.00  0.00    -0.090 HD
ATOM     20  H   LIG d   1     -24.138  86.073 116.493  0.00  0.00    -0.090 HD
ATOM     21  H   LIG d   1     -24.312  84.555 117.083  0.00  0.00    -0.090 HD
ENDBRANCH   5  18
BRANCH   3  22
ATOM     22  C   LIG d   1     -26.390  81.973 113.369  0.00  0.00     0.382 C 
ATOM     23  O   LIG d   1     -26.922  81.675 112.273  0.00  0.00    -0.241 OA
ATOM     24  O   LIG d   1     -26.376  81.138 114.293  0.00  0.00    -0.241 OA
ENDBRANCH   3  22
TORSDOF 7
ENDMDL
MODEL 8
REMARK VINA RESULT:      -4.7     23.191     25.634
REMARK  7 active torsions:
REMARK  status: ('A' for Active; 'I' for Inactive)
REMARK    1  A    between atoms: C_2  and  C_3 
REMARK    2  A    between atoms: C_3  and  O_6 
REMARK    3  A    between atoms: C_3  and  C_4 
REMARK    4  A    between atoms: C_7  and  O_6 
REMARK    5  A    between atoms: C_9  and  C_10 
REMARK    6  A    between atoms: N_15  and  C_14 
REMARK    7  A    between atoms: N_20  and  C_19 
REMARK       I    between atoms: C_22  and  N_20 
ROOT
ATOM      1  C   LIG d   1       3.434  82.954 112.546  0.00  0.00     0.161 C 
ATOM      2  C   LIG d   1       3.857  81.882 113.350  0.00  0.00     0.016 C 
ATOM      3  C   LIG d   1       3.779  81.890 114.761  0.00  0.00     0.038 C 
ATOM      4  C   LIG d   1       3.127  82.916 115.462  0.00  0.00     0.028 C 
ATOM      5  C   LIG d   1       3.136  84.252 114.726  0.00  0.00    -0.047 C 
ATOM      6  C   LIG d   1       2.619  84.035 113.286  0.00  0.00     0.091 C 
ENDROOT
BRANCH   1   7
ATOM      7  O   LIG d   1       2.692  82.453 111.416  0.00  0.00    -0.368 OA
BRANCH   7   8
ATOM      8  C   LIG d   1       1.265  82.297 111.609  0.00  0.00     0.119 C 
BRANCH   8   9
ATOM      9  C   LIG d   1       0.979  80.789 111.748  0.00  0.00     0.028 C 
ATOM     10  C   LIG d   1       0.410  80.424 113.129  0.00  0.00     0.006 C 
ENDBRANCH   8   9
BRANCH   8  11
ATOM     11  C   LIG d   1       0.483  82.745 110.371  0.00  0.00     0.028 C 
ATOM     12  C   LIG d   1      -0.652  83.727 110.706  0.00  0.00     0.006 C 
ENDBRANCH   8  11
ENDBRANCH   7   8
ENDBRANCH   1   7
BRANCH   6  13
ATOM     13  N   LIG d   1       2.674  85.276 112.471  0.00  0.00    -0.311 N 
ATOM     14  C   LIG d   1       1.656  86.129 112.364  0.00  0.00     0.210 C 
ATOM     15  C   LIG d   1       1.916  87.336 111.457  0.00  0.00     0.109 C 
ATOM     16  O   LIG d   1       0.574  86.017 112.960  0.00  0.00    -0.276 OA
ATOM     17  H   LIG d   1       3.526  85.461 111.979  0.00  0.00     0.149 HD
ENDBRANCH   6  13
BRANCH   5  18
ATOM     18  N   LIG d   1       2.307  85.193 115.503  0.00  0.00     0.381 N 
ATOM     19  H   LIG d   1       2.866  85.964 115.809  0.00  0.00    -0.090 HD
ATOM     20  H   LIG d   1       1.951  84.720 116.314  0.00  0.00    -0.090 HD
ATOM     21  H   LIG d   1       1.551  85.523 114.943  0.00  0.00    -0.090 HD
ENDBRANCH   5  18
BRANCH   3  22
ATOM     22  C   LIG d   1       4.391  80.882 115.489  0.00  0.00     0.382 C 
ATOM     23  O   LIG d   1       3.930  80.546 116.607  0.00  0.00    -0.241 OA
ATOM     24  O   LIG d   1       5.426  80.334 115.063  0.00  0.00    -0.241 OA
ENDBRANCH   3  22
TORSDOF 7
ENDMDL
MODEL 9
REMARK VINA RESULT:      -4.6     19.160     22.290
REMARK  7 active torsions:
REMARK  status: ('A' for Active; 'I' for Inactive)
REMARK    1  A    between atoms: C_2  and  C_3 
REMARK    2  A    between atoms: C_3  and  O_6 
REMARK    3  A    between atoms: C_3  and  C_4 
REMARK    4  A    between atoms: C_7  and  O_6 
REMARK    5  A    between atoms: C_9  and  C_10 
REMARK    6  A    between atoms: N_15  and  C_14 
REMARK    7  A    between atoms: N_20  and  C_19 
REMARK       I    between atoms: C_22  and  N_20 
ROOT
ATOM      1  C   LIG d   1       0.524  80.301 114.122  0.00  0.00     0.161 C 
ATOM      2  C   LIG d   1       1.744  80.991 114.226  0.00  0.00     0.016 C 
ATOM      3  C   LIG d   1       2.432  81.528 113.114  0.00  0.00     0.038 C 
ATOM      4  C   LIG d   1       1.867  81.542 111.830  0.00  0.00     0.028 C 
ATOM      5  C   LIG d   1       0.871  80.413 111.593  0.00  0.00    -0.047 C 
ATOM      6  C   LIG d   1      -0.161  80.405 112.743  0.00  0.00     0.091 C 
ENDROOT
BRANCH   1   7
ATOM      7  O   LIG d   1      -0.374  80.737 115.162  0.00  0.00    -0.368 OA
BRANCH   7   8
ATOM      8  C   LIG d   1      -0.463  79.880 116.327  0.00  0.00     0.119 C 
BRANCH   8   9
ATOM      9  C   LIG d   1      -1.764  79.064 116.204  0.00  0.00     0.028 C 
ATOM     10  C   LIG d   1      -3.016  79.957 116.173  0.00  0.00     0.006 C 
ENDBRANCH   8   9
BRANCH   8  11
ATOM     11  C   LIG d   1      -0.618  80.701 117.611  0.00  0.00     0.028 C 
ATOM     12  C   LIG d   1       0.402  81.846 117.714  0.00  0.00     0.006 C 
ENDBRANCH   8  11
ENDBRANCH   7   8
ENDBRANCH   1   7
BRANCH   6  13
ATOM     13  N   LIG d   1      -1.124  79.277 112.634  0.00  0.00    -0.311 N 
ATOM     14  C   LIG d   1      -2.444  79.443 112.580  0.00  0.00     0.210 C 
ATOM     15  C   LIG d   1      -3.255  78.147 112.489  0.00  0.00     0.109 C 
ATOM     16  O   LIG d   1      -3.019  80.542 112.566  0.00  0.00    -0.276 OA
ATOM     17  H   LIG d   1      -0.741  78.352 112.607  0.00  0.00     0.149 HD
ENDBRANCH   6  13
BRANCH   5  18
ATOM     18  N   LIG d   1       0.258  80.629 110.268  0.00  0.00     0.381 N 
ATOM     19  H   LIG d   1       0.809  80.180 109.563  0.00  0.00    -0.090 HD
ATOM     20  H   LIG d   1       0.241  81.615 110.075  0.00  0.00    -0.090 HD
ATOM     21  H   LIG d   1      -0.669  80.265 110.258  0.00  0.00    -0.090 HD
ENDBRANCH   5  18
BRANCH   3  22
ATOM     22  C   LIG d   1       3.717  82.022 113.274  0.00  0.00     0.382 C 
ATOM     23  O   LIG d   1       3.936  83.251 113.153  0.00  0.00    -0.241 OA
ATOM     24  O   LIG d   1       4.669  81.248 113.494  0.00  0.00    -0.241 OA
ENDBRANCH   3  22
TORSDOF 7
ENDMDL
