MODEL 1
REMARK VINA RESULT:      -5.5      0.000      0.000
REMARK  7 active torsions:
REMARK  status: ('A' for Active; 'I' for Inactive)
REMARK    1  A    between atoms: C_2  and  C_3 
REMARK    2  A    between atoms: C_3  and  O_6 
REMARK    3  A    between atoms: C_3  and  C_4 
REMARK    4  A    between atoms: C_7  and  O_6 
REMARK    5  A    between atoms: C_9  and  C_10 
REMARK    6  A    between atoms: N_15  and  C_14 
REMARK    7  A    between atoms: N_20  and  C_19 
REMARK       I    between atoms: C_22  and  N_20 
ROOT
ATOM      1  C   LIG d   1       2.321  84.497 113.111  0.00  0.00     0.161 C 
ATOM      2  C   LIG d   1       1.450  83.448 112.773  0.00  0.00     0.016 C 
ATOM      3  C   LIG d   1       0.627  83.461 111.624  0.00  0.00     0.038 C 
ATOM      4  C   LIG d   1       0.730  84.464 110.648  0.00  0.00     0.028 C 
ATOM      5  C   LIG d   1       1.232  85.794 111.199  0.00  0.00    -0.047 C 
ATOM      6  C   LIG d   1       2.530  85.548 112.001  0.00  0.00     0.091 C 
ENDROOT
BRANCH   1   7
ATOM      7  O   LIG d   1       3.590  83.960 113.537  0.00  0.00    -0.368 OA
BRANCH   7   8
ATOM      8  C   LIG d   1       3.949  82.666 112.995  0.00  0.00     0.119 C 
BRANCH   8   9
ATOM      9  C   LIG d   1       4.814  81.947 114.048  0.00  0.00     0.028 C 
ATOM     10  C   LIG d   1       4.140  81.901 115.430  0.00  0.00     0.006 C 
ENDBRANCH   8   9
BRANCH   8  11
ATOM     11  C   LIG d   1       4.845  82.807 111.762  0.00  0.00     0.028 C 
ATOM     12  C   LIG d   1       4.196  82.249 110.486  0.00  0.00     0.006 C 
ENDBRANCH   8  11
ENDBRANCH   7   8
ENDBRANCH   1   7
BRANCH   6  13
ATOM     13  N   LIG d   1       3.041  86.786 112.645  0.00  0.00    -0.311 N 
ATOM     14  C   LIG d   1       4.248  87.295 112.400  0.00  0.00     0.210 C 
ATOM     15  C   LIG d   1       4.585  88.567 113.185  0.00  0.00     0.109 C 
ATOM     16  O   LIG d   1       5.058  86.832 111.584  0.00  0.00    -0.276 OA
ATOM     17  H   LIG d   1       2.436  87.244 113.298  0.00  0.00     0.149 HD
ENDBRANCH   6  13
BRANCH   5  18
ATOM     18  N   LIG d   1       1.423  86.706 110.055  0.00  0.00     0.381 N 
ATOM     19  H   LIG d   1       1.591  87.635 110.387  0.00  0.00    -0.090 HD
ATOM     20  H   LIG d   1       0.584  86.715 109.502  0.00  0.00    -0.090 HD
ATOM     21  H   LIG d   1       2.192  86.400 109.500  0.00  0.00    -0.090 HD
ENDBRANCH   5  18
BRANCH   3  22
ATOM     22  C   LIG d   1      -0.342  82.482 111.462  0.00  0.00     0.382 C 
ATOM     23  O   LIG d   1      -0.080  81.442 110.810  0.00  0.00    -0.241 OA
ATOM     24  O   LIG d   1      -1.488  82.645 111.921  0.00  0.00    -0.241 OA
ENDBRANCH   3  22
TORSDOF 7
ENDMDL
MODEL 2
REMARK VINA RESULT:      -5.2      2.015      2.949
REMARK  7 active torsions:
REMARK  status: ('A' for Active; 'I' for Inactive)
REMARK    1  A    between atoms: C_2  and  C_3 
REMARK    2  A    between atoms: C_3  and  O_6 
REMARK    3  A    between atoms: C_3  and  C_4 
REMARK    4  A    between atoms: C_7  and  O_6 
REMARK    5  A    between atoms: C_9  and  C_10 
REMARK    6  A    between atoms: N_15  and  C_14 
REMARK    7  A    between atoms: N_20  and  C_19 
REMARK       I    between atoms: C_22  and  N_20 
ROOT
ATOM      1  C   LIG d   1       2.830  84.403 112.174  0.00  0.00     0.161 C 
ATOM      2  C   LIG d   1       1.748  84.310 111.282  0.00  0.00     0.016 C 
ATOM      3  C   LIG d   1       0.566  85.074 111.410  0.00  0.00     0.038 C 
ATOM      4  C   LIG d   1       0.445  86.100 112.359  0.00  0.00     0.028 C 
ATOM      5  C   LIG d   1       1.311  85.885 113.596  0.00  0.00    -0.047 C 
ATOM      6  C   LIG d   1       2.762  85.596 113.150  0.00  0.00     0.091 C 
ENDROOT
BRANCH   1   7
ATOM      7  O   LIG d   1       4.069  84.427 111.438  0.00  0.00    -0.368 OA
BRANCH   7   8
ATOM      8  C   LIG d   1       4.845  83.204 111.456  0.00  0.00     0.119 C 
BRANCH   8   9
ATOM      9  C   LIG d   1       4.741  82.570 110.055  0.00  0.00     0.028 C 
ATOM     10  C   LIG d   1       4.090  81.177 110.088  0.00  0.00     0.006 C 
ENDBRANCH   8   9
BRANCH   8  11
ATOM     11  C   LIG d   1       4.239  82.174 112.413  0.00  0.00     0.028 C 
ATOM     12  C   LIG d   1       5.076  81.980 113.688  0.00  0.00     0.006 C 
ENDBRANCH   8  11
ENDBRANCH   7   8
ENDBRANCH   1   7
BRANCH   6  13
ATOM     13  N   LIG d   1       3.658  85.291 114.296  0.00  0.00    -0.311 N 
ATOM     14  C   LIG d   1       4.432  86.201 114.883  0.00  0.00     0.210 C 
ATOM     15  C   LIG d   1       5.293  85.672 116.034  0.00  0.00     0.109 C 
ATOM     16  O   LIG d   1       4.465  87.404 114.581  0.00  0.00    -0.276 OA
ATOM     17  H   LIG d   1       3.670  84.346 114.626  0.00  0.00     0.149 HD
ENDBRANCH   6  13
BRANCH   5  18
ATOM     18  N   LIG d   1       1.194  87.092 114.437  0.00  0.00     0.381 N 
ATOM     19  H   LIG d   1       1.107  87.902 113.856  0.00  0.00    -0.090 HD
ATOM     20  H   LIG d   1       2.029  87.187 114.987  0.00  0.00    -0.090 HD
ATOM     21  H   LIG d   1       0.400  87.016 115.034  0.00  0.00    -0.090 HD
ENDBRANCH   5  18
BRANCH   3  22
ATOM     22  C   LIG d   1      -0.528  84.787 110.608  0.00  0.00     0.382 C 
ATOM     23  O   LIG d   1      -1.163  85.719 110.057  0.00  0.00    -0.241 OA
ATOM     24  O   LIG d   1      -0.915  83.612 110.463  0.00  0.00    -0.241 OA
ENDBRANCH   3  22
TORSDOF 7
ENDMDL
MODEL 3
REMARK VINA RESULT:      -5.0      2.834      4.289
REMARK  7 active torsions:
REMARK  status: ('A' for Active; 'I' for Inactive)
REMARK    1  A    between atoms: C_2  and  C_3 
REMARK    2  A    between atoms: C_3  and  O_6 
REMARK    3  A    between atoms: C_3  and  C_4 
REMARK    4  A    between atoms: C_7  and  O_6 
REMARK    5  A    between atoms: C_9  and  C_10 
REMARK    6  A    between atoms: N_15  and  C_14 
REMARK    7  A    between atoms: N_20  and  C_19 
REMARK       I    between atoms: C_22  and  N_20 
ROOT
ATOM      1  C   LIG d   1       1.602  86.357 113.910  0.00  0.00     0.161 C 
ATOM      2  C   LIG d   1       0.534  85.616 113.378  0.00  0.00     0.016 C 
ATOM      3  C   LIG d   1       0.658  84.769 112.253  0.00  0.00     0.038 C 
ATOM      4  C   LIG d   1       1.903  84.487 111.671  0.00  0.00     0.028 C 
ATOM      5  C   LIG d   1       2.926  85.603 111.859  0.00  0.00    -0.047 C 
ATOM      6  C   LIG d   1       2.991  85.977 113.357  0.00  0.00     0.091 C 
ENDROOT
BRANCH   1   7
ATOM      7  O   LIG d   1       1.592  86.265 115.348  0.00  0.00    -0.368 OA
BRANCH   7   8
ATOM      8  C   LIG d   1       0.708  87.181 116.040  0.00  0.00     0.119 C 
BRANCH   8   9
ATOM      9  C   LIG d   1       1.311  88.593 115.910  0.00  0.00     0.028 C 
ATOM     10  C   LIG d   1       2.641  88.735 116.668  0.00  0.00     0.006 C 
ENDBRANCH   8   9
BRANCH   8  11
ATOM     11  C   LIG d   1       0.671  86.892 117.543  0.00  0.00     0.028 C 
ATOM     12  C   LIG d   1       1.114  85.461 117.886  0.00  0.00     0.006 C 
ENDBRANCH   8  11
ENDBRANCH   7   8
ENDBRANCH   1   7
BRANCH   6  13
ATOM     13  N   LIG d   1       3.907  87.118 113.617  0.00  0.00    -0.311 N 
ATOM     14  C   LIG d   1       3.738  88.329 113.087  0.00  0.00     0.210 C 
ATOM     15  C   LIG d   1       4.808  89.357 113.469  0.00  0.00     0.109 C 
ATOM     16  O   LIG d   1       2.786  88.657 112.364  0.00  0.00    -0.276 OA
ATOM     17  H   LIG d   1       4.689  86.948 114.219  0.00  0.00     0.149 HD
ENDBRANCH   6  13
BRANCH   5  18
ATOM     18  N   LIG d   1       4.215  85.120 111.327  0.00  0.00     0.381 N 
ATOM     19  H   LIG d   1       4.353  85.475 110.402  0.00  0.00    -0.090 HD
ATOM     20  H   LIG d   1       4.192  84.117 111.280  0.00  0.00    -0.090 HD
ATOM     21  H   LIG d   1       4.960  85.415 111.918  0.00  0.00    -0.090 HD
ENDBRANCH   5  18
BRANCH   3  22
ATOM     22  C   LIG d   1      -0.478  84.225 111.673  0.00  0.00     0.382 C 
ATOM     23  O   LIG d   1      -1.212  83.453 112.336  0.00  0.00    -0.241 OA
ATOM     24  O   LIG d   1      -0.753  84.460 110.481  0.00  0.00    -0.241 OA
ENDBRANCH   3  22
TORSDOF 7
ENDMDL
MODEL 4
REMARK VINA RESULT:      -5.0      3.006      6.086
REMARK  7 active torsions:
REMARK  status: ('A' for Active; 'I' for Inactive)
REMARK    1  A    between atoms: C_2  and  C_3 
REMARK    2  A    between atoms: C_3  and  O_6 
REMARK    3  A    between atoms: C_3  and  C_4 
REMARK    4  A    between atoms: C_7  and  O_6 
REMARK    5  A    between atoms: C_9  and  C_10 
REMARK    6  A    between atoms: N_15  and  C_14 
REMARK    7  A    between atoms: N_20  and  C_19 
REMARK       I    between atoms: C_22  and  N_20 
ROOT
ATOM      1  C   LIG d   1       3.419  85.854 114.174  0.00  0.00     0.161 C 
ATOM      2  C   LIG d   1       3.587  87.217 113.876  0.00  0.00     0.016 C 
ATOM      3  C   LIG d   1       4.626  88.009 114.417  0.00  0.00     0.038 C 
ATOM      4  C   LIG d   1       5.663  87.452 115.180  0.00  0.00     0.028 C 
ATOM      5  C   LIG d   1       5.256  86.183 115.920  0.00  0.00    -0.047 C 
ATOM      6  C   LIG d   1       4.605  85.204 114.917  0.00  0.00     0.091 C 
ENDROOT
BRANCH   1   7
ATOM      7  O   LIG d   1       3.121  85.123 112.968  0.00  0.00    -0.368 OA
BRANCH   7   8
ATOM      8  C   LIG d   1       4.252  84.805 112.120  0.00  0.00     0.119 C 
BRANCH   8   9
ATOM      9  C   LIG d   1       4.004  85.467 110.751  0.00  0.00     0.028 C 
ATOM     10  C   LIG d   1       2.523  85.817 110.527  0.00  0.00     0.006 C 
ENDBRANCH   8   9
BRANCH   8  11
ATOM     11  C   LIG d   1       4.329  83.302 111.836  0.00  0.00     0.028 C 
ATOM     12  C   LIG d   1       3.096  82.536 112.340  0.00  0.00     0.006 C 
ENDBRANCH   8  11
ENDBRANCH   7   8
ENDBRANCH   1   7
BRANCH   6  13
ATOM     13  N   LIG d   1       4.101  83.970 115.574  0.00  0.00    -0.311 N 
ATOM     14  C   LIG d   1       4.790  82.831 115.622  0.00  0.00     0.210 C 
ATOM     15  C   LIG d   1       4.079  81.674 116.330  0.00  0.00     0.109 C 
ATOM     16  O   LIG d   1       5.936  82.678 115.172  0.00  0.00    -0.276 OA
ATOM     17  H   LIG d   1       3.193  84.014 115.992  0.00  0.00     0.149 HD
ENDBRANCH   6  13
BRANCH   5  18
ATOM     18  N   LIG d   1       6.465  85.634 116.562  0.00  0.00     0.381 N 
ATOM     19  H   LIG d   1       6.687  86.168 117.379  0.00  0.00    -0.090 HD
ATOM     20  H   LIG d   1       7.235  85.705 115.920  0.00  0.00    -0.090 HD
ATOM     21  H   LIG d   1       6.316  84.681 116.810  0.00  0.00    -0.090 HD
ENDBRANCH   5  18
BRANCH   3  22
ATOM     22  C   LIG d   1       4.611  89.383 114.228  0.00  0.00     0.382 C 
ATOM     23  O   LIG d   1       4.537  89.856 113.068  0.00  0.00    -0.241 OA
ATOM     24  O   LIG d   1       4.716  90.155 115.200  0.00  0.00    -0.241 OA
ENDBRANCH   3  22
TORSDOF 7
ENDMDL
MODEL 5
REMARK VINA RESULT:      -5.0     24.703     27.832
REMARK  7 active torsions:
REMARK  status: ('A' for Active; 'I' for Inactive)
REMARK    1  A    between atoms: C_2  and  C_3 
REMARK    2  A    between atoms: C_3  and  O_6 
REMARK    3  A    between atoms: C_3  and  C_4 
REMARK    4  A    between atoms: C_7  and  O_6 
REMARK    5  A    between atoms: C_9  and  C_10 
REMARK    6  A    between atoms: N_15  and  C_14 
REMARK    7  A    between atoms: N_20  and  C_19 
REMARK       I    between atoms: C_22  and  N_20 
ROOT
ATOM      1  C   LIG d   1     -17.066  65.415 114.384  0.00  0.00     0.161 C 
ATOM      2  C   LIG d   1     -16.472  66.226 113.403  0.00  0.00     0.016 C 
ATOM      3  C   LIG d   1     -15.609  67.305 113.704  0.00  0.00     0.038 C 
ATOM      4  C   LIG d   1     -15.159  67.552 115.009  0.00  0.00     0.028 C 
ATOM      5  C   LIG d   1     -16.128  67.074 116.085  0.00  0.00    -0.047 C 
ATOM      6  C   LIG d   1     -16.499  65.600 115.807  0.00  0.00     0.091 C 
ENDROOT
BRANCH   1   7
ATOM      7  O   LIG d   1     -16.985  64.031 113.988  0.00  0.00    -0.368 OA
BRANCH   7   8
ATOM      8  C   LIG d   1     -18.236  63.398 113.623  0.00  0.00     0.119 C 
BRANCH   8   9
ATOM      9  C   LIG d   1     -19.375  64.349 114.040  0.00  0.00     0.028 C 
ATOM     10  C   LIG d   1     -20.372  64.606 112.898  0.00  0.00     0.006 C 
ENDBRANCH   8   9
BRANCH   8  11
ATOM     11  C   LIG d   1     -18.465  62.114 114.425  0.00  0.00     0.028 C 
ATOM     12  C   LIG d   1     -19.326  61.087 113.672  0.00  0.00     0.006 C 
ENDBRANCH   8  11
ENDBRANCH   7   8
ENDBRANCH   1   7
BRANCH   6  13
ATOM     13  N   LIG d   1     -17.509  65.079 116.764  0.00  0.00    -0.311 N 
ATOM     14  C   LIG d   1     -17.405  63.896 117.368  0.00  0.00     0.210 C 
ATOM     15  C   LIG d   1     -18.566  63.543 118.303  0.00  0.00     0.109 C 
ATOM     16  O   LIG d   1     -16.446  63.120 117.243  0.00  0.00    -0.276 OA
ATOM     17  H   LIG d   1     -18.305  65.658 116.948  0.00  0.00     0.149 HD
ENDBRANCH   6  13
BRANCH   5  18
ATOM     18  N   LIG d   1     -15.474  67.269 117.393  0.00  0.00     0.381 N 
ATOM     19  H   LIG d   1     -15.807  66.586 118.043  0.00  0.00    -0.090 HD
ATOM     20  H   LIG d   1     -15.711  68.180 117.743  0.00  0.00    -0.090 HD
ATOM     21  H   LIG d   1     -14.485  67.190 117.295  0.00  0.00    -0.090 HD
ENDBRANCH   5  18
BRANCH   3  22
ATOM     22  C   LIG d   1     -15.219  68.175 112.697  0.00  0.00     0.382 C 
ATOM     23  O   LIG d   1     -14.803  69.322 112.986  0.00  0.00    -0.241 OA
ATOM     24  O   LIG d   1     -15.319  67.842 111.501  0.00  0.00    -0.241 OA
ENDBRANCH   3  22
TORSDOF 7
ENDMDL
MODEL 6
REMARK VINA RESULT:      -4.9      2.573      4.852
REMARK  7 active torsions:
REMARK  status: ('A' for Active; 'I' for Inactive)
REMARK    1  A    between atoms: C_2  and  C_3 
REMARK    2  A    between atoms: C_3  and  O_6 
REMARK    3  A    between atoms: C_3  and  C_4 
REMARK    4  A    between atoms: C_7  and  O_6 
REMARK    5  A    between atoms: C_9  and  C_10 
REMARK    6  A    between atoms: N_15  and  C_14 
REMARK    7  A    between atoms: N_20  and  C_19 
REMARK       I    between atoms: C_22  and  N_20 
ROOT
ATOM      1  C   LIG d   1       2.844  84.776 113.303  0.00  0.00     0.161 C 
ATOM      2  C   LIG d   1       3.802  84.082 114.061  0.00  0.00     0.016 C 
ATOM      3  C   LIG d   1       4.582  83.021 113.545  0.00  0.00     0.038 C 
ATOM      4  C   LIG d   1       4.563  82.680 112.185  0.00  0.00     0.028 C 
ATOM      5  C   LIG d   1       3.246  83.017 111.494  0.00  0.00    -0.047 C 
ATOM      6  C   LIG d   1       2.889  84.492 111.787  0.00  0.00     0.091 C 
ENDROOT
BRANCH   1   7
ATOM      7  O   LIG d   1       2.958  86.192 113.551  0.00  0.00    -0.368 OA
BRANCH   7   8
ATOM      8  C   LIG d   1       4.288  86.682 113.851  0.00  0.00     0.119 C 
BRANCH   8   9
ATOM      9  C   LIG d   1       4.153  87.731 114.971  0.00  0.00     0.028 C 
ATOM     10  C   LIG d   1       2.792  87.657 115.684  0.00  0.00     0.006 C 
ENDBRANCH   8   9
BRANCH   8  11
ATOM     11  C   LIG d   1       4.886  87.435 112.659  0.00  0.00     0.028 C 
ATOM     12  C   LIG d   1       5.548  88.762 113.064  0.00  0.00     0.006 C 
ENDBRANCH   8  11
ENDBRANCH   7   8
ENDBRANCH   1   7
BRANCH   6  13
ATOM     13  N   LIG d   1       1.572  84.881 111.218  0.00  0.00    -0.311 N 
ATOM     14  C   LIG d   1       1.372  86.008 110.537  0.00  0.00     0.210 C 
ATOM     15  C   LIG d   1      -0.066  86.225 110.055  0.00  0.00     0.109 C 
ATOM     16  O   LIG d   1       2.255  86.833 110.260  0.00  0.00    -0.276 OA
ATOM     17  H   LIG d   1       0.807  84.253 111.369  0.00  0.00     0.149 HD
ENDBRANCH   6  13
BRANCH   5  18
ATOM     18  N   LIG d   1       3.413  82.737 110.055  0.00  0.00     0.381 N 
ATOM     19  H   LIG d   1       4.373  82.538 109.858  0.00  0.00    -0.090 HD
ATOM     20  H   LIG d   1       3.147  83.553 109.532  0.00  0.00    -0.090 HD
ATOM     21  H   LIG d   1       2.844  81.964 109.790  0.00  0.00    -0.090 HD
ENDBRANCH   5  18
BRANCH   3  22
ATOM     22  C   LIG d   1       5.362  82.262 114.404  0.00  0.00     0.382 C 
ATOM     23  O   LIG d   1       5.949  82.810 115.368  0.00  0.00    -0.241 OA
ATOM     24  O   LIG d   1       5.524  81.044 114.201  0.00  0.00    -0.241 OA
ENDBRANCH   3  22
TORSDOF 7
ENDMDL
MODEL 7
REMARK VINA RESULT:      -4.9      1.886      5.091
REMARK  7 active torsions:
REMARK  status: ('A' for Active; 'I' for Inactive)
REMARK    1  A    between atoms: C_2  and  C_3 
REMARK    2  A    between atoms: C_3  and  O_6 
REMARK    3  A    between atoms: C_3  and  C_4 
REMARK    4  A    between atoms: C_7  and  O_6 
REMARK    5  A    between atoms: C_9  and  C_10 
REMARK    6  A    between atoms: N_15  and  C_14 
REMARK    7  A    between atoms: N_20  and  C_19 
REMARK       I    between atoms: C_22  and  N_20 
ROOT
ATOM      1  C   LIG d   1       3.769  84.584 112.587  0.00  0.00     0.161 C 
ATOM      2  C   LIG d   1       4.368  85.803 112.946  0.00  0.00     0.016 C 
ATOM      3  C   LIG d   1       3.939  87.056 112.450  0.00  0.00     0.038 C 
ATOM      4  C   LIG d   1       2.777  87.189 111.676  0.00  0.00     0.028 C 
ATOM      5  C   LIG d   1       2.435  85.936 110.877  0.00  0.00    -0.047 C 
ATOM      6  C   LIG d   1       2.431  84.719 111.831  0.00  0.00     0.091 C 
ENDROOT
BRANCH   1   7
ATOM      7  O   LIG d   1       3.602  83.759 113.757  0.00  0.00    -0.368 OA
BRANCH   7   8
ATOM      8  C   LIG d   1       3.599  84.452 115.030  0.00  0.00     0.119 C 
BRANCH   8   9
ATOM      9  C   LIG d   1       4.425  83.607 116.019  0.00  0.00     0.028 C 
ATOM     10  C   LIG d   1       5.314  82.573 115.307  0.00  0.00     0.006 C 
ENDBRANCH   8   9
BRANCH   8  11
ATOM     11  C   LIG d   1       2.190  84.512 115.628  0.00  0.00     0.028 C 
ATOM     12  C   LIG d   1       1.505  85.870 115.404  0.00  0.00     0.006 C 
ENDBRANCH   8  11
ENDBRANCH   7   8
ENDBRANCH   1   7
BRANCH   6  13
ATOM     13  N   LIG d   1       2.188  83.439 111.115  0.00  0.00    -0.311 N 
ATOM     14  C   LIG d   1       1.337  82.509 111.545  0.00  0.00     0.210 C 
ATOM     15  C   LIG d   1       1.252  81.256 110.669  0.00  0.00     0.109 C 
ATOM     16  O   LIG d   1       0.620  82.617 112.552  0.00  0.00    -0.276 OA
ATOM     17  H   LIG d   1       2.704  83.283 110.272  0.00  0.00     0.149 HD
ENDBRANCH   6  13
BRANCH   5  18
ATOM     18  N   LIG d   1       1.132  86.164 110.225  0.00  0.00     0.381 N 
ATOM     19  H   LIG d   1       0.421  86.277 110.920  0.00  0.00    -0.090 HD
ATOM     20  H   LIG d   1       0.903  85.361 109.667  0.00  0.00    -0.090 HD
ATOM     21  H   LIG d   1       1.176  86.976 109.650  0.00  0.00    -0.090 HD
ENDBRANCH   5  18
BRANCH   3  22
ATOM     22  C   LIG d   1       4.699  88.190 112.697  0.00  0.00     0.382 C 
ATOM     23  O   LIG d   1       5.949  88.137 112.609  0.00  0.00    -0.241 OA
ATOM     24  O   LIG d   1       4.153  89.252 113.051  0.00  0.00    -0.241 OA
ENDBRANCH   3  22
TORSDOF 7
ENDMDL
MODEL 8
REMARK VINA RESULT:      -4.7     25.592     28.795
REMARK  7 active torsions:
REMARK  status: ('A' for Active; 'I' for Inactive)
REMARK    1  A    between atoms: C_2  and  C_3 
REMARK    2  A    between atoms: C_3  and  O_6 
REMARK    3  A    between atoms: C_3  and  C_4 
REMARK    4  A    between atoms: C_7  and  O_6 
REMARK    5  A    between atoms: C_9  and  C_10 
REMARK    6  A    between atoms: N_15  and  C_14 
REMARK    7  A    between atoms: N_20  and  C_19 
REMARK       I    between atoms: C_22  and  N_20 
ROOT
ATOM      1  C   LIG d   1     -25.844  84.881 112.798  0.00  0.00     0.161 C 
ATOM      2  C   LIG d   1     -24.686  85.618 113.098  0.00  0.00     0.016 C 
ATOM      3  C   LIG d   1     -23.504  85.036 113.611  0.00  0.00     0.038 C 
ATOM      4  C   LIG d   1     -23.348  83.645 113.717  0.00  0.00     0.028 C 
ATOM      5  C   LIG d   1     -24.666  82.900 113.902  0.00  0.00    -0.047 C 
ATOM      6  C   LIG d   1     -25.655  83.349 112.802  0.00  0.00     0.091 C 
ENDROOT
BRANCH   1   7
ATOM      7  O   LIG d   1     -26.386  85.315 111.535  0.00  0.00    -0.368 OA
BRANCH   7   8
ATOM      8  C   LIG d   1     -26.762  86.712 111.449  0.00  0.00     0.119 C 
BRANCH   8   9
ATOM      9  C   LIG d   1     -28.246  86.768 111.038  0.00  0.00     0.028 C 
ATOM     10  C   LIG d   1     -28.732  85.449 110.415  0.00  0.00     0.006 C 
ENDBRANCH   8   9
BRANCH   8  11
ATOM     11  C   LIG d   1     -26.003  87.425 110.326  0.00  0.00     0.028 C 
ATOM     12  C   LIG d   1     -26.215  88.947 110.337  0.00  0.00     0.006 C 
ENDBRANCH   8  11
ENDBRANCH   7   8
ENDBRANCH   1   7
BRANCH   6  13
ATOM     13  N   LIG d   1     -26.997  82.731 112.960  0.00  0.00    -0.311 N 
ATOM     14  C   LIG d   1     -27.629  82.089 111.978  0.00  0.00     0.210 C 
ATOM     15  C   LIG d   1     -29.012  81.544 112.347  0.00  0.00     0.109 C 
ATOM     16  O   LIG d   1     -27.161  81.892 110.847  0.00  0.00    -0.276 OA
ATOM     17  H   LIG d   1     -27.437  82.817 113.856  0.00  0.00     0.149 HD
ENDBRANCH   6  13
BRANCH   5  18
ATOM     18  N   LIG d   1     -24.371  81.456 113.859  0.00  0.00     0.381 N 
ATOM     19  H   LIG d   1     -23.399  81.303 114.041  0.00  0.00    -0.090 HD
ATOM     20  H   LIG d   1     -24.577  81.109 112.939  0.00  0.00    -0.090 HD
ATOM     21  H   LIG d   1     -24.922  80.975 114.535  0.00  0.00    -0.090 HD
ENDBRANCH   5  18
BRANCH   3  22
ATOM     22  C   LIG d   1     -22.477  85.850 114.062  0.00  0.00     0.382 C 
ATOM     23  O   LIG d   1     -22.683  86.659 114.998  0.00  0.00    -0.241 OA
ATOM     24  O   LIG d   1     -21.358  85.817 113.515  0.00  0.00    -0.241 OA
ENDBRANCH   3  22
TORSDOF 7
ENDMDL
MODEL 9
REMARK VINA RESULT:      -4.3     26.151     29.265
REMARK  7 active torsions:
REMARK  status: ('A' for Active; 'I' for Inactive)
REMARK    1  A    between atoms: C_2  and  C_3 
REMARK    2  A    between atoms: C_3  and  O_6 
REMARK    3  A    between atoms: C_3  and  C_4 
REMARK    4  A    between atoms: C_7  and  O_6 
REMARK    5  A    between atoms: C_9  and  C_10 
REMARK    6  A    between atoms: N_15  and  C_14 
REMARK    7  A    between atoms: N_20  and  C_19 
REMARK       I    between atoms: C_22  and  N_20 
ROOT
ATOM      1  C   LIG d   1     -17.041  63.862 116.809  0.00  0.00     0.161 C 
ATOM      2  C   LIG d   1     -16.446  65.097 117.118  0.00  0.00     0.016 C 
ATOM      3  C   LIG d   1     -16.198  66.103 116.157  0.00  0.00     0.038 C 
ATOM      4  C   LIG d   1     -16.670  66.003 114.840  0.00  0.00     0.028 C 
ATOM      5  C   LIG d   1     -16.829  64.564 114.361  0.00  0.00    -0.047 C 
ATOM      6  C   LIG d   1     -17.663  63.779 115.400  0.00  0.00     0.091 C 
ENDROOT
BRANCH   1   7
ATOM      7  O   LIG d   1     -18.023  63.529 117.811  0.00  0.00    -0.368 OA
BRANCH   7   8
ATOM      8  C   LIG d   1     -19.396  63.862 117.492  0.00  0.00     0.119 C 
BRANCH   8   9
ATOM      9  C   LIG d   1     -19.769  65.117 118.305  0.00  0.00     0.028 C 
ATOM     10  C   LIG d   1     -19.909  66.368 117.422  0.00  0.00     0.006 C 
ENDBRANCH   8   9
BRANCH   8  11
ATOM     11  C   LIG d   1     -20.359  62.770 117.968  0.00  0.00     0.028 C 
ATOM     12  C   LIG d   1     -19.708  61.378 118.007  0.00  0.00     0.006 C 
ENDBRANCH   8  11
ENDBRANCH   7   8
ENDBRANCH   1   7
BRANCH   6  13
ATOM     13  N   LIG d   1     -17.795  62.341 115.050  0.00  0.00    -0.311 N 
ATOM     14  C   LIG d   1     -18.846  61.836 114.407  0.00  0.00     0.210 C 
ATOM     15  C   LIG d   1     -18.791  60.324 114.164  0.00  0.00     0.109 C 
ATOM     16  O   LIG d   1     -19.804  62.502 113.986  0.00  0.00    -0.276 OA
ATOM     17  H   LIG d   1     -17.048  61.734 115.327  0.00  0.00     0.149 HD
ENDBRANCH   6  13
BRANCH   5  18
ATOM     18  N   LIG d   1     -17.456  64.604 113.027  0.00  0.00     0.381 N 
ATOM     19  H   LIG d   1     -18.331  65.088 113.078  0.00  0.00    -0.090 HD
ATOM     20  H   LIG d   1     -17.634  63.663 112.722  0.00  0.00    -0.090 HD
ATOM     21  H   LIG d   1     -16.853  65.062 112.380  0.00  0.00    -0.090 HD
ENDBRANCH   5  18
BRANCH   3  22
ATOM     22  C   LIG d   1     -15.435  67.209 116.501  0.00  0.00     0.382 C 
ATOM     23  O   LIG d   1     -14.341  67.056 117.094  0.00  0.00    -0.241 OA
ATOM     24  O   LIG d   1     -15.849  68.360 116.265  0.00  0.00    -0.241 OA
ENDBRANCH   3  22
TORSDOF 7
ENDMDL
