MODEL 1
REMARK VINA RESULT:      -5.6      0.000      0.000
REMARK  7 active torsions:
REMARK  status: ('A' for Active; 'I' for Inactive)
REMARK    1  A    between atoms: C_2  and  C_3 
REMARK    2  A    between atoms: C_3  and  O_6 
REMARK    3  A    between atoms: C_3  and  C_4 
REMARK    4  A    between atoms: C_7  and  O_6 
REMARK    5  A    between atoms: C_9  and  C_10 
REMARK    6  A    between atoms: N_15  and  C_14 
REMARK    7  A    between atoms: N_20  and  C_19 
REMARK       I    between atoms: C_22  and  N_20 
ROOT
ATOM      1  C   LIG d   1      -0.966  81.413 112.345  0.00  0.00     0.161 C 
ATOM      2  C   LIG d   1      -1.493  80.143 112.057  0.00  0.00     0.016 C 
ATOM      3  C   LIG d   1      -2.333  79.430 112.943  0.00  0.00     0.038 C 
ATOM      4  C   LIG d   1      -2.829  80.008 114.121  0.00  0.00     0.028 C 
ATOM      5  C   LIG d   1      -1.922  81.092 114.693  0.00  0.00    -0.047 C 
ATOM      6  C   LIG d   1      -1.586  82.106 113.576  0.00  0.00     0.091 C 
ENDROOT
BRANCH   1   7
ATOM      7  O   LIG d   1      -1.075  82.261 111.184  0.00  0.00    -0.368 OA
BRANCH   7   8
ATOM      8  C   LIG d   1       0.160  82.539 110.480  0.00  0.00     0.119 C 
BRANCH   8   9
ATOM      9  C   LIG d   1       1.307  81.897 111.285  0.00  0.00     0.028 C 
ATOM     10  C   LIG d   1       2.250  81.064 110.400  0.00  0.00     0.006 C 
ENDBRANCH   8   9
BRANCH   8  11
ATOM     11  C   LIG d   1       0.467  84.040 110.465  0.00  0.00     0.028 C 
ATOM     12  C   LIG d   1      -0.800  84.906 110.380  0.00  0.00     0.006 C 
ENDBRANCH   8  11
ENDBRANCH   7   8
ENDBRANCH   1   7
BRANCH   6  13
ATOM     13  N   LIG d   1      -0.634  83.154 114.029  0.00  0.00    -0.311 N 
ATOM     14  C   LIG d   1      -0.938  84.450 114.076  0.00  0.00     0.210 C 
ATOM     15  C   LIG d   1       0.195  85.363 114.555  0.00  0.00     0.109 C 
ATOM     16  O   LIG d   1      -2.049  84.926 113.798  0.00  0.00    -0.276 OA
ATOM     17  H   LIG d   1       0.280  82.852 114.303  0.00  0.00     0.149 HD
ENDBRANCH   6  13
BRANCH   5  18
ATOM     18  N   LIG d   1      -2.623  81.703 115.837  0.00  0.00     0.381 N 
ATOM     19  H   LIG d   1      -3.593  81.456 115.811  0.00  0.00    -0.090 HD
ATOM     20  H   LIG d   1      -2.550  82.702 115.768  0.00  0.00    -0.090 HD
ATOM     21  H   LIG d   1      -2.217  81.391 116.692  0.00  0.00    -0.090 HD
ENDBRANCH   5  18
BRANCH   3  22
ATOM     22  C   LIG d   1      -2.653  78.108 112.673  0.00  0.00     0.382 C 
ATOM     23  O   LIG d   1      -1.997  77.182 113.208  0.00  0.00    -0.241 OA
ATOM     24  O   LIG d   1      -3.560  77.830 111.866  0.00  0.00    -0.241 OA
ENDBRANCH   3  22
TORSDOF 7
ENDMDL
MODEL 2
REMARK VINA RESULT:      -5.3      3.380      7.121
REMARK  7 active torsions:
REMARK  status: ('A' for Active; 'I' for Inactive)
REMARK    1  A    between atoms: C_2  and  C_3 
REMARK    2  A    between atoms: C_3  and  O_6 
REMARK    3  A    between atoms: C_3  and  C_4 
REMARK    4  A    between atoms: C_7  and  O_6 
REMARK    5  A    between atoms: C_9  and  C_10 
REMARK    6  A    between atoms: N_15  and  C_14 
REMARK    7  A    between atoms: N_20  and  C_19 
REMARK       I    between atoms: C_22  and  N_20 
ROOT
ATOM      1  C   LIG d   1      -1.405  79.343 115.577  0.00  0.00     0.161 C 
ATOM      2  C   LIG d   1      -1.842  80.659 115.353  0.00  0.00     0.016 C 
ATOM      3  C   LIG d   1      -2.344  81.112 114.112  0.00  0.00     0.038 C 
ATOM      4  C   LIG d   1      -2.586  80.234 113.045  0.00  0.00     0.028 C 
ATOM      5  C   LIG d   1      -1.689  79.001 113.061  0.00  0.00    -0.047 C 
ATOM      6  C   LIG d   1      -1.764  78.343 114.458  0.00  0.00     0.091 C 
ENDROOT
BRANCH   1   7
ATOM      7  O   LIG d   1      -1.899  78.873 116.847  0.00  0.00    -0.368 OA
BRANCH   7   8
ATOM      8  C   LIG d   1      -3.304  78.524 116.894  0.00  0.00     0.119 C 
BRANCH   8   9
ATOM      9  C   LIG d   1      -3.977  79.451 117.924  0.00  0.00     0.028 C 
ATOM     10  C   LIG d   1      -4.996  80.405 117.278  0.00  0.00     0.006 C 
ENDBRANCH   8   9
BRANCH   8  11
ATOM     11  C   LIG d   1      -3.507  77.105 117.432  0.00  0.00     0.028 C 
ATOM     12  C   LIG d   1      -2.208  76.474 117.957  0.00  0.00     0.006 C 
ENDBRANCH   8  11
ENDBRANCH   7   8
ENDBRANCH   1   7
BRANCH   6  13
ATOM     13  N   LIG d   1      -0.851  77.178 114.586  0.00  0.00    -0.311 N 
ATOM     14  C   LIG d   1      -1.250  75.915 114.442  0.00  0.00     0.210 C 
ATOM     15  C   LIG d   1      -0.152  74.864 114.634  0.00  0.00     0.109 C 
ATOM     16  O   LIG d   1      -2.402  75.567 114.142  0.00  0.00    -0.276 OA
ATOM     17  H   LIG d   1       0.108  77.371 114.798  0.00  0.00     0.149 HD
ENDBRANCH   6  13
BRANCH   5  18
ATOM     18  N   LIG d   1      -2.141  78.107 111.977  0.00  0.00     0.381 N 
ATOM     19  H   LIG d   1      -3.140  78.064 111.968  0.00  0.00    -0.090 HD
ATOM     20  H   LIG d   1      -1.786  77.183 112.149  0.00  0.00    -0.090 HD
ATOM     21  H   LIG d   1      -1.807  78.441 111.099  0.00  0.00    -0.090 HD
ENDBRANCH   5  18
BRANCH   3  22
ATOM     22  C   LIG d   1      -2.573  82.466 113.915  0.00  0.00     0.382 C 
ATOM     23  O   LIG d   1      -3.384  83.078 114.651  0.00  0.00    -0.241 OA
ATOM     24  O   LIG d   1      -2.012  83.073 112.984  0.00  0.00    -0.241 OA
ENDBRANCH   3  22
TORSDOF 7
ENDMDL
MODEL 3
REMARK VINA RESULT:      -5.3      2.708      5.957
REMARK  7 active torsions:
REMARK  status: ('A' for Active; 'I' for Inactive)
REMARK    1  A    between atoms: C_2  and  C_3 
REMARK    2  A    between atoms: C_3  and  O_6 
REMARK    3  A    between atoms: C_3  and  C_4 
REMARK    4  A    between atoms: C_7  and  O_6 
REMARK    5  A    between atoms: C_9  and  C_10 
REMARK    6  A    between atoms: N_15  and  C_14 
REMARK    7  A    between atoms: N_20  and  C_19 
REMARK       I    between atoms: C_22  and  N_20 
ROOT
ATOM      1  C   LIG d   1       0.236  81.481 113.395  0.00  0.00     0.161 C 
ATOM      2  C   LIG d   1       1.097  82.421 112.806  0.00  0.00     0.016 C 
ATOM      3  C   LIG d   1       1.324  82.504 111.413  0.00  0.00     0.038 C 
ATOM      4  C   LIG d   1       0.583  81.744 110.495  0.00  0.00     0.028 C 
ATOM      5  C   LIG d   1       0.068  80.430 111.072  0.00  0.00    -0.047 C 
ATOM      6  C   LIG d   1      -0.666  80.718 112.402  0.00  0.00     0.091 C 
ENDROOT
BRANCH   1   7
ATOM      7  O   LIG d   1      -0.565  82.119 114.409  0.00  0.00    -0.368 OA
BRANCH   7   8
ATOM      8  C   LIG d   1      -0.400  81.621 115.760  0.00  0.00     0.119 C 
BRANCH   8   9
ATOM      9  C   LIG d   1      -1.798  81.560 116.405  0.00  0.00     0.028 C 
ATOM     10  C   LIG d   1      -2.922  81.868 115.400  0.00  0.00     0.006 C 
ENDBRANCH   8   9
BRANCH   8  11
ATOM     11  C   LIG d   1       0.402  82.600 116.621  0.00  0.00     0.028 C 
ATOM     12  C   LIG d   1       1.840  82.125 116.882  0.00  0.00     0.006 C 
ENDBRANCH   8  11
ENDBRANCH   7   8
ENDBRANCH   1   7
BRANCH   6  13
ATOM     13  N   LIG d   1      -1.127  79.476 113.075  0.00  0.00    -0.311 N 
ATOM     14  C   LIG d   1      -2.390  79.053 113.047  0.00  0.00     0.210 C 
ATOM     15  C   LIG d   1      -2.656  77.759 113.823  0.00  0.00     0.109 C 
ATOM     16  O   LIG d   1      -3.308  79.608 112.426  0.00  0.00    -0.276 OA
ATOM     17  H   LIG d   1      -0.441  78.947 113.577  0.00  0.00     0.149 HD
ENDBRANCH   6  13
BRANCH   5  18
ATOM     18  N   LIG d   1      -0.800  79.806 110.056  0.00  0.00     0.381 N 
ATOM     19  H   LIG d   1      -0.287  79.673 109.207  0.00  0.00    -0.090 HD
ATOM     20  H   LIG d   1      -1.571  80.422 109.865  0.00  0.00    -0.090 HD
ATOM     21  H   LIG d   1      -1.139  78.931 110.388  0.00  0.00    -0.090 HD
ENDBRANCH   5  18
BRANCH   3  22
ATOM     22  C   LIG d   1       2.329  83.325 110.928  0.00  0.00     0.382 C 
ATOM     23  O   LIG d   1       2.053  84.244 110.120  0.00  0.00    -0.241 OA
ATOM     24  O   LIG d   1       3.516  83.131 111.254  0.00  0.00    -0.241 OA
ENDBRANCH   3  22
TORSDOF 7
ENDMDL
MODEL 4
REMARK VINA RESULT:      -5.3      5.565      9.118
REMARK  7 active torsions:
REMARK  status: ('A' for Active; 'I' for Inactive)
REMARK    1  A    between atoms: C_2  and  C_3 
REMARK    2  A    between atoms: C_3  and  O_6 
REMARK    3  A    between atoms: C_3  and  C_4 
REMARK    4  A    between atoms: C_7  and  O_6 
REMARK    5  A    between atoms: C_9  and  C_10 
REMARK    6  A    between atoms: N_15  and  C_14 
REMARK    7  A    between atoms: N_20  and  C_19 
REMARK       I    between atoms: C_22  and  N_20 
ROOT
ATOM      1  C   LIG d   1       2.621  87.254 114.691  0.00  0.00     0.161 C 
ATOM      2  C   LIG d   1       2.507  88.318 115.601  0.00  0.00     0.016 C 
ATOM      3  C   LIG d   1       3.393  89.420 115.625  0.00  0.00     0.038 C 
ATOM      4  C   LIG d   1       4.370  89.607 114.636  0.00  0.00     0.028 C 
ATOM      5  C   LIG d   1       4.845  88.305 114.000  0.00  0.00    -0.047 C 
ATOM      6  C   LIG d   1       3.613  87.496 113.534  0.00  0.00     0.091 C 
ENDROOT
BRANCH   1   7
ATOM      7  O   LIG d   1       1.320  86.913 114.172  0.00  0.00    -0.368 OA
BRANCH   7   8
ATOM      8  C   LIG d   1       0.567  85.936 114.932  0.00  0.00     0.119 C 
BRANCH   8   9
ATOM      9  C   LIG d   1       1.351  84.609 114.885  0.00  0.00     0.028 C 
ATOM     10  C   LIG d   1       0.808  83.572 115.882  0.00  0.00     0.006 C 
ENDBRANCH   8   9
BRANCH   8  11
ATOM     11  C   LIG d   1      -0.781  85.634 114.271  0.00  0.00     0.028 C 
ATOM     12  C   LIG d   1      -0.655  85.338 112.768  0.00  0.00     0.006 C 
ENDBRANCH   8  11
ENDBRANCH   7   8
ENDBRANCH   1   7
BRANCH   6  13
ATOM     13  N   LIG d   1       3.985  86.170 112.975  0.00  0.00    -0.311 N 
ATOM     14  C   LIG d   1       3.672  85.781 111.740  0.00  0.00     0.210 C 
ATOM     15  C   LIG d   1       4.133  84.367 111.371  0.00  0.00     0.109 C 
ATOM     16  O   LIG d   1       3.085  86.484 110.905  0.00  0.00    -0.276 OA
ATOM     17  H   LIG d   1       4.490  85.547 113.575  0.00  0.00     0.149 HD
ENDBRANCH   6  13
BRANCH   5  18
ATOM     18  N   LIG d   1       5.758  88.656 112.895  0.00  0.00     0.381 N 
ATOM     19  H   LIG d   1       6.697  88.415 113.141  0.00  0.00    -0.090 HD
ATOM     20  H   LIG d   1       5.717  89.649 112.742  0.00  0.00    -0.090 HD
ATOM     21  H   LIG d   1       5.490  88.174 112.065  0.00  0.00    -0.090 HD
ENDBRANCH   5  18
BRANCH   3  22
ATOM     22  C   LIG d   1       3.332  90.328 116.671  0.00  0.00     0.382 C 
ATOM     23  O   LIG d   1       3.747  91.501 116.508  0.00  0.00    -0.241 OA
ATOM     24  O   LIG d   1       2.908  89.977 117.788  0.00  0.00    -0.241 OA
ENDBRANCH   3  22
TORSDOF 7
ENDMDL
MODEL 5
REMARK VINA RESULT:      -5.2     11.030     12.969
REMARK  7 active torsions:
REMARK  status: ('A' for Active; 'I' for Inactive)
REMARK    1  A    between atoms: C_2  and  C_3 
REMARK    2  A    between atoms: C_3  and  O_6 
REMARK    3  A    between atoms: C_3  and  C_4 
REMARK    4  A    between atoms: C_7  and  O_6 
REMARK    5  A    between atoms: C_9  and  C_10 
REMARK    6  A    between atoms: N_15  and  C_14 
REMARK    7  A    between atoms: N_20  and  C_19 
REMARK       I    between atoms: C_22  and  N_20 
ROOT
ATOM      1  C   LIG d   1      10.647  78.912 114.410  0.00  0.00     0.161 C 
ATOM      2  C   LIG d   1       9.308  79.088 114.797  0.00  0.00     0.016 C 
ATOM      3  C   LIG d   1       8.508  78.049 115.328  0.00  0.00     0.038 C 
ATOM      4  C   LIG d   1       9.043  76.793 115.651  0.00  0.00     0.028 C 
ATOM      5  C   LIG d   1      10.259  76.418 114.810  0.00  0.00    -0.047 C 
ATOM      6  C   LIG d   1      11.280  77.578 114.858  0.00  0.00     0.091 C 
ENDROOT
BRANCH   1   7
ATOM      7  O   LIG d   1      11.439  80.024 114.873  0.00  0.00    -0.368 OA
BRANCH   7   8
ATOM      8  C   LIG d   1      11.819  80.997 113.870  0.00  0.00     0.119 C 
BRANCH   8   9
ATOM      9  C   LIG d   1      10.693  82.047 113.793  0.00  0.00     0.028 C 
ATOM     10  C   LIG d   1      10.353  82.436 112.345  0.00  0.00     0.006 C 
ENDBRANCH   8   9
BRANCH   8  11
ATOM     11  C   LIG d   1      11.881  80.366 112.476  0.00  0.00     0.028 C 
ATOM     12  C   LIG d   1      13.316  80.254 111.936  0.00  0.00     0.006 C 
ENDBRANCH   8  11
ENDBRANCH   7   8
ENDBRANCH   1   7
BRANCH   6  13
ATOM     13  N   LIG d   1      12.463  77.329 113.994  0.00  0.00    -0.311 N 
ATOM     14  C   LIG d   1      13.716  77.337 114.446  0.00  0.00     0.210 C 
ATOM     15  C   LIG d   1      14.788  77.077 113.383  0.00  0.00     0.109 C 
ATOM     16  O   LIG d   1      14.039  77.504 115.632  0.00  0.00    -0.276 OA
ATOM     17  H   LIG d   1      12.290  77.154 113.024  0.00  0.00     0.149 HD
ENDBRANCH   6  13
BRANCH   5  18
ATOM     18  N   LIG d   1      10.797  75.153 115.344  0.00  0.00     0.381 N 
ATOM     19  H   LIG d   1      11.479  75.345 116.050  0.00  0.00    -0.090 HD
ATOM     20  H   LIG d   1      11.248  74.651 114.599  0.00  0.00    -0.090 HD
ATOM     21  H   LIG d   1      10.059  74.603 115.726  0.00  0.00    -0.090 HD
ENDBRANCH   5  18
BRANCH   3  22
ATOM     22  C   LIG d   1       7.148  78.251 115.503  0.00  0.00     0.382 C 
ATOM     23  O   LIG d   1       6.737  78.976 116.441  0.00  0.00    -0.241 OA
ATOM     24  O   LIG d   1       6.324  77.680 114.763  0.00  0.00    -0.241 OA
ENDBRANCH   3  22
TORSDOF 7
ENDMDL
MODEL 6
REMARK VINA RESULT:      -4.8     23.338     25.031
REMARK  7 active torsions:
REMARK  status: ('A' for Active; 'I' for Inactive)
REMARK    1  A    between atoms: C_2  and  C_3 
REMARK    2  A    between atoms: C_3  and  O_6 
REMARK    3  A    between atoms: C_3  and  C_4 
REMARK    4  A    between atoms: C_7  and  O_6 
REMARK    5  A    between atoms: C_9  and  C_10 
REMARK    6  A    between atoms: N_15  and  C_14 
REMARK    7  A    between atoms: N_20  and  C_19 
REMARK       I    between atoms: C_22  and  N_20 
ROOT
ATOM      1  C   LIG d   1     -25.324  86.074 113.659  0.00  0.00     0.161 C 
ATOM      2  C   LIG d   1     -24.211  86.884 113.937  0.00  0.00     0.016 C 
ATOM      3  C   LIG d   1     -22.899  86.379 114.090  0.00  0.00     0.038 C 
ATOM      4  C   LIG d   1     -22.586  85.038 113.823  0.00  0.00     0.028 C 
ATOM      5  C   LIG d   1     -23.760  84.088 114.032  0.00  0.00    -0.047 C 
ATOM      6  C   LIG d   1     -24.984  84.624 113.254  0.00  0.00     0.091 C 
ENDROOT
BRANCH   1   7
ATOM      7  O   LIG d   1     -26.141  86.697 112.648  0.00  0.00    -0.368 OA
BRANCH   7   8
ATOM      8  C   LIG d   1     -27.228  87.527 113.129  0.00  0.00     0.119 C 
BRANCH   8   9
ATOM      9  C   LIG d   1     -28.487  86.642 113.206  0.00  0.00     0.028 C 
ATOM     10  C   LIG d   1     -29.215  86.539 111.855  0.00  0.00     0.006 C 
ENDBRANCH   8   9
BRANCH   8  11
ATOM     11  C   LIG d   1     -27.570  88.633 112.127  0.00  0.00     0.028 C 
ATOM     12  C   LIG d   1     -26.323  89.336 111.566  0.00  0.00     0.006 C 
ENDBRANCH   8  11
ENDBRANCH   7   8
ENDBRANCH   1   7
BRANCH   6  13
ATOM     13  N   LIG d   1     -26.200  83.799 113.473  0.00  0.00    -0.311 N 
ATOM     14  C   LIG d   1     -26.950  83.321 112.481  0.00  0.00     0.210 C 
ATOM     15  C   LIG d   1     -28.171  82.511 112.926  0.00  0.00     0.109 C 
ATOM     16  O   LIG d   1     -26.701  83.464 111.274  0.00  0.00    -0.276 OA
ATOM     17  H   LIG d   1     -26.458  83.608 114.421  0.00  0.00     0.149 HD
ENDBRANCH   6  13
BRANCH   5  18
ATOM     18  N   LIG d   1     -23.334  82.748 113.587  0.00  0.00     0.381 N 
ATOM     19  H   LIG d   1     -23.506  82.080 114.311  0.00  0.00    -0.090 HD
ATOM     20  H   LIG d   1     -22.347  82.765 113.402  0.00  0.00    -0.090 HD
ATOM     21  H   LIG d   1     -23.829  82.489 112.762  0.00  0.00    -0.090 HD
ENDBRANCH   5  18
BRANCH   3  22
ATOM     22  C   LIG d   1     -21.892  87.211 114.553  0.00  0.00     0.382 C 
ATOM     23  O   LIG d   1     -20.788  87.250 113.958  0.00  0.00    -0.241 OA
ATOM     24  O   LIG d   1     -22.057  87.891 115.584  0.00  0.00    -0.241 OA
ENDBRANCH   3  22
TORSDOF 7
ENDMDL
MODEL 7
REMARK VINA RESULT:      -4.8     11.580     14.083
REMARK  7 active torsions:
REMARK  status: ('A' for Active; 'I' for Inactive)
REMARK    1  A    between atoms: C_2  and  C_3 
REMARK    2  A    between atoms: C_3  and  O_6 
REMARK    3  A    between atoms: C_3  and  C_4 
REMARK    4  A    between atoms: C_7  and  O_6 
REMARK    5  A    between atoms: C_9  and  C_10 
REMARK    6  A    between atoms: N_15  and  C_14 
REMARK    7  A    between atoms: N_20  and  C_19 
REMARK       I    between atoms: C_22  and  N_20 
ROOT
ATOM      1  C   LIG d   1      12.150  79.426 114.049  0.00  0.00     0.161 C 
ATOM      2  C   LIG d   1      11.175  80.099 114.806  0.00  0.00     0.016 C 
ATOM      3  C   LIG d   1      10.525  81.275 114.367  0.00  0.00     0.038 C 
ATOM      4  C   LIG d   1      10.696  81.777 113.069  0.00  0.00     0.028 C 
ATOM      5  C   LIG d   1      12.046  81.421 112.455  0.00  0.00    -0.047 C 
ATOM      6  C   LIG d   1      12.270  79.897 112.585  0.00  0.00     0.091 C 
ENDROOT
BRANCH   1   7
ATOM      7  O   LIG d   1      11.915  78.005 114.102  0.00  0.00    -0.368 OA
BRANCH   7   8
ATOM      8  C   LIG d   1      11.255  77.512 115.294  0.00  0.00     0.119 C 
BRANCH   8   9
ATOM      9  C   LIG d   1      12.304  76.740 116.117  0.00  0.00     0.028 C 
ATOM     10  C   LIG d   1      11.720  75.480 116.778  0.00  0.00     0.006 C 
ENDBRANCH   8   9
BRANCH   8  11
ATOM     11  C   LIG d   1      10.174  76.483 114.947  0.00  0.00     0.028 C 
ATOM     12  C   LIG d   1       8.750  77.032 115.126  0.00  0.00     0.006 C 
ENDBRANCH   8  11
ENDBRANCH   7   8
ENDBRANCH   1   7
BRANCH   6  13
ATOM     13  N   LIG d   1      13.604  79.475 112.085  0.00  0.00    -0.311 N 
ATOM     14  C   LIG d   1      13.784  78.820 110.939  0.00  0.00     0.210 C 
ATOM     15  C   LIG d   1      15.239  78.463 110.620  0.00  0.00     0.109 C 
ATOM     16  O   LIG d   1      12.881  78.530 110.140  0.00  0.00    -0.276 OA
ATOM     17  H   LIG d   1      14.396  79.698 112.655  0.00  0.00     0.149 HD
ENDBRANCH   6  13
BRANCH   5  18
ATOM     18  N   LIG d   1      12.037  81.887 111.056  0.00  0.00     0.381 N 
ATOM     19  H   LIG d   1      11.184  82.375 110.867  0.00  0.00    -0.090 HD
ATOM     20  H   LIG d   1      12.085  81.089 110.447  0.00  0.00    -0.090 HD
ATOM     21  H   LIG d   1      12.815  82.487 110.891  0.00  0.00    -0.090 HD
ENDBRANCH   5  18
BRANCH   3  22
ATOM     22  C   LIG d   1       9.721  81.984 115.247  0.00  0.00     0.382 C 
ATOM     23  O   LIG d   1       9.666  81.649 116.455  0.00  0.00    -0.241 OA
ATOM     24  O   LIG d   1       9.016  82.926 114.839  0.00  0.00    -0.241 OA
ENDBRANCH   3  22
TORSDOF 7
ENDMDL
MODEL 8
REMARK VINA RESULT:      -4.6     25.080     28.269
REMARK  7 active torsions:
REMARK  status: ('A' for Active; 'I' for Inactive)
REMARK    1  A    between atoms: C_2  and  C_3 
REMARK    2  A    between atoms: C_3  and  O_6 
REMARK    3  A    between atoms: C_3  and  C_4 
REMARK    4  A    between atoms: C_7  and  O_6 
REMARK    5  A    between atoms: C_9  and  C_10 
REMARK    6  A    between atoms: N_15  and  C_14 
REMARK    7  A    between atoms: N_20  and  C_19 
REMARK       I    between atoms: C_22  and  N_20 
ROOT
ATOM      1  C   LIG d   1     -12.693  55.830 113.686  0.00  0.00     0.161 C 
ATOM      2  C   LIG d   1     -11.525  56.568 113.433  0.00  0.00     0.016 C 
ATOM      3  C   LIG d   1     -11.532  57.929 113.051  0.00  0.00     0.038 C 
ATOM      4  C   LIG d   1     -12.709  58.691 113.042  0.00  0.00     0.028 C 
ATOM      5  C   LIG d   1     -13.966  57.861 112.800  0.00  0.00    -0.047 C 
ATOM      6  C   LIG d   1     -13.981  56.674 113.789  0.00  0.00     0.091 C 
ENDROOT
BRANCH   1   7
ATOM      7  O   LIG d   1     -12.520  55.032 114.874  0.00  0.00    -0.368 OA
BRANCH   7   8
ATOM      8  C   LIG d   1     -11.721  55.623 115.928  0.00  0.00     0.119 C 
BRANCH   8   9
ATOM      9  C   LIG d   1     -10.990  54.477 116.652  0.00  0.00     0.028 C 
ATOM     10  C   LIG d   1     -10.077  53.674 115.710  0.00  0.00     0.006 C 
ENDBRANCH   8   9
BRANCH   8  11
ATOM     11  C   LIG d   1     -12.603  56.280 116.994  0.00  0.00     0.028 C 
ATOM     12  C   LIG d   1     -13.746  55.367 117.466  0.00  0.00     0.006 C 
ENDBRANCH   8  11
ENDBRANCH   7   8
ENDBRANCH   1   7
BRANCH   6  13
ATOM     13  N   LIG d   1     -15.135  55.764 113.564  0.00  0.00    -0.311 N 
ATOM     14  C   LIG d   1     -16.192  55.707 114.372  0.00  0.00     0.210 C 
ATOM     15  C   LIG d   1     -17.260  54.686 113.968  0.00  0.00     0.109 C 
ATOM     16  O   LIG d   1     -16.362  56.429 115.366  0.00  0.00    -0.276 OA
ATOM     17  H   LIG d   1     -15.094  55.165 112.763  0.00  0.00     0.149 HD
ENDBRANCH   6  13
BRANCH   5  18
ATOM     18  N   LIG d   1     -15.128  58.757 112.954  0.00  0.00     0.381 N 
ATOM     19  H   LIG d   1     -14.921  59.652 112.556  0.00  0.00    -0.090 HD
ATOM     20  H   LIG d   1     -15.314  58.883 113.933  0.00  0.00    -0.090 HD
ATOM     21  H   LIG d   1     -15.924  58.362 112.504  0.00  0.00    -0.090 HD
ENDBRANCH   5  18
BRANCH   3  22
ATOM     22  C   LIG d   1     -10.354  58.531 112.634  0.00  0.00     0.382 C 
ATOM     23  O   LIG d   1     -10.203  59.770 112.765  0.00  0.00    -0.241 OA
ATOM     24  O   LIG d   1      -9.460  57.859 112.087  0.00  0.00    -0.241 OA
ENDBRANCH   3  22
TORSDOF 7
ENDMDL
MODEL 9
REMARK VINA RESULT:      -4.6     23.302     24.982
REMARK  7 active torsions:
REMARK  status: ('A' for Active; 'I' for Inactive)
REMARK    1  A    between atoms: C_2  and  C_3 
REMARK    2  A    between atoms: C_3  and  O_6 
REMARK    3  A    between atoms: C_3  and  C_4 
REMARK    4  A    between atoms: C_7  and  O_6 
REMARK    5  A    between atoms: C_9  and  C_10 
REMARK    6  A    between atoms: N_15  and  C_14 
REMARK    7  A    between atoms: N_20  and  C_19 
REMARK       I    between atoms: C_22  and  N_20 
ROOT
ATOM      1  C   LIG d   1     -25.441  86.208 114.366  0.00  0.00     0.161 C 
ATOM      2  C   LIG d   1     -24.283  86.961 114.623  0.00  0.00     0.016 C 
ATOM      3  C   LIG d   1     -22.992  86.570 114.202  0.00  0.00     0.038 C 
ATOM      4  C   LIG d   1     -22.789  85.468 113.358  0.00  0.00     0.028 C 
ATOM      5  C   LIG d   1     -23.866  84.397 113.491  0.00  0.00    -0.047 C 
ATOM      6  C   LIG d   1     -25.255  85.061 113.351  0.00  0.00     0.091 C 
ENDROOT
BRANCH   1   7
ATOM      7  O   LIG d   1     -26.508  87.082 113.944  0.00  0.00    -0.368 OA
BRANCH   7   8
ATOM      8  C   LIG d   1     -26.137  88.456 113.674  0.00  0.00     0.119 C 
BRANCH   8   9
ATOM      9  C   LIG d   1     -26.979  89.353 114.602  0.00  0.00     0.028 C 
ATOM     10  C   LIG d   1     -26.398  90.771 114.733  0.00  0.00     0.006 C 
ENDBRANCH   8   9
BRANCH   8  11
ATOM     11  C   LIG d   1     -26.523  88.869 112.251  0.00  0.00     0.028 C 
ATOM     12  C   LIG d   1     -28.006  88.610 111.937  0.00  0.00     0.006 C 
ENDBRANCH   8  11
ENDBRANCH   7   8
ENDBRANCH   1   7
BRANCH   6  13
ATOM     13  N   LIG d   1     -26.368  84.097 113.553  0.00  0.00    -0.311 N 
ATOM     14  C   LIG d   1     -26.940  83.419 112.559  0.00  0.00     0.210 C 
ATOM     15  C   LIG d   1     -28.083  82.492 112.983  0.00  0.00     0.109 C 
ATOM     16  O   LIG d   1     -26.587  83.474 111.371  0.00  0.00    -0.276 OA
ATOM     17  H   LIG d   1     -26.695  83.968 114.490  0.00  0.00     0.149 HD
ENDBRANCH   6  13
BRANCH   5  18
ATOM     18  N   LIG d   1     -23.608  83.374 112.460  0.00  0.00     0.381 N 
ATOM     19  H   LIG d   1     -24.009  82.501 112.740  0.00  0.00    -0.090 HD
ATOM     20  H   LIG d   1     -22.615  83.250 112.367  0.00  0.00    -0.090 HD
ATOM     21  H   LIG d   1     -23.997  83.662 111.589  0.00  0.00    -0.090 HD
ENDBRANCH   5  18
BRANCH   3  22
ATOM     22  C   LIG d   1     -21.881  87.262 114.659  0.00  0.00     0.382 C 
ATOM     23  O   LIG d   1     -21.949  87.926 115.722  0.00  0.00    -0.241 OA
ATOM     24  O   LIG d   1     -20.824  87.268 114.000  0.00  0.00    -0.241 OA
ENDBRANCH   3  22
TORSDOF 7
ENDMDL
