MODEL 1
REMARK VINA RESULT:      -5.7      0.000      0.000
REMARK  7 active torsions:
REMARK  status: ('A' for Active; 'I' for Inactive)
REMARK    1  A    between atoms: C_2  and  C_3 
REMARK    2  A    between atoms: C_3  and  O_6 
REMARK    3  A    between atoms: C_3  and  C_4 
REMARK    4  A    between atoms: C_7  and  O_6 
REMARK    5  A    between atoms: C_9  and  C_10 
REMARK    6  A    between atoms: N_15  and  C_14 
REMARK    7  A    between atoms: N_20  and  C_19 
REMARK       I    between atoms: C_22  and  N_20 
ROOT
ATOM      1  C   LIG d   1       2.964  87.656 114.478  0.00  0.00     0.161 C 
ATOM      2  C   LIG d   1       2.954  88.643 115.478  0.00  0.00     0.016 C 
ATOM      3  C   LIG d   1       3.906  89.686 115.551  0.00  0.00     0.038 C 
ATOM      4  C   LIG d   1       4.850  89.901 114.536  0.00  0.00     0.028 C 
ATOM      5  C   LIG d   1       5.217  88.633 113.772  0.00  0.00    -0.047 C 
ATOM      6  C   LIG d   1       3.919  87.938 113.300  0.00  0.00     0.091 C 
ENDROOT
BRANCH   1   7
ATOM      7  O   LIG d   1       1.624  87.436 113.995  0.00  0.00    -0.368 OA
BRANCH   7   8
ATOM      8  C   LIG d   1       0.974  86.223 114.450  0.00  0.00     0.119 C 
BRANCH   8   9
ATOM      9  C   LIG d   1       2.058  85.324 115.077  0.00  0.00     0.028 C 
ATOM     10  C   LIG d   1       1.679  84.846 116.488  0.00  0.00     0.006 C 
ENDBRANCH   8   9
BRANCH   8  11
ATOM     11  C   LIG d   1       0.410  85.419 113.274  0.00  0.00     0.028 C 
ATOM     12  C   LIG d   1      -0.631  86.204 112.461  0.00  0.00     0.006 C 
ENDBRANCH   8  11
ENDBRANCH   7   8
ENDBRANCH   1   7
BRANCH   6  13
ATOM     13  N   LIG d   1       4.185  86.646 112.616  0.00  0.00    -0.311 N 
ATOM     14  C   LIG d   1       3.504  86.227 111.550  0.00  0.00     0.210 C 
ATOM     15  C   LIG d   1       3.925  84.856 111.012  0.00  0.00     0.109 C 
ATOM     16  O   LIG d   1       2.614  86.875 110.980  0.00  0.00    -0.276 OA
ATOM     17  H   LIG d   1       4.912  86.071 112.994  0.00  0.00     0.149 HD
ENDBRANCH   6  13
BRANCH   5  18
ATOM     18  N   LIG d   1       6.102  89.024 112.658  0.00  0.00     0.381 N 
ATOM     19  H   LIG d   1       5.668  88.798 111.785  0.00  0.00    -0.090 HD
ATOM     20  H   LIG d   1       6.960  88.506 112.727  0.00  0.00    -0.090 HD
ATOM     21  H   LIG d   1       6.291  90.001 112.700  0.00  0.00    -0.090 HD
ENDBRANCH   5  18
BRANCH   3  22
ATOM     22  C   LIG d   1       3.945  90.503 116.670  0.00  0.00     0.382 C 
ATOM     23  O   LIG d   1       3.901  89.998 117.818  0.00  0.00    -0.241 OA
ATOM     24  O   LIG d   1       3.979  91.742 116.547  0.00  0.00    -0.241 OA
ENDBRANCH   3  22
TORSDOF 7
ENDMDL
MODEL 2
REMARK VINA RESULT:      -5.5      3.000      4.014
REMARK  7 active torsions:
REMARK  status: ('A' for Active; 'I' for Inactive)
REMARK    1  A    between atoms: C_2  and  C_3 
REMARK    2  A    between atoms: C_3  and  O_6 
REMARK    3  A    between atoms: C_3  and  C_4 
REMARK    4  A    between atoms: C_7  and  O_6 
REMARK    5  A    between atoms: C_9  and  C_10 
REMARK    6  A    between atoms: N_15  and  C_14 
REMARK    7  A    between atoms: N_20  and  C_19 
REMARK       I    between atoms: C_22  and  N_20 
ROOT
ATOM      1  C   LIG d   1       3.444  84.912 113.047  0.00  0.00     0.161 C 
ATOM      2  C   LIG d   1       4.006  86.164 113.352  0.00  0.00     0.016 C 
ATOM      3  C   LIG d   1       3.614  87.367 112.721  0.00  0.00     0.038 C 
ATOM      4  C   LIG d   1       2.520  87.422 111.844  0.00  0.00     0.028 C 
ATOM      5  C   LIG d   1       2.252  86.103 111.126  0.00  0.00    -0.047 C 
ATOM      6  C   LIG d   1       2.173  84.969 112.174  0.00  0.00     0.091 C 
ENDROOT
BRANCH   1   7
ATOM      7  O   LIG d   1       3.184  84.184 114.263  0.00  0.00    -0.368 OA
BRANCH   7   8
ATOM      8  C   LIG d   1       3.007  84.983 115.459  0.00  0.00     0.119 C 
BRANCH   8   9
ATOM      9  C   LIG d   1       3.549  84.166 116.647  0.00  0.00     0.028 C 
ATOM     10  C   LIG d   1       2.672  82.944 116.967  0.00  0.00     0.006 C 
ENDBRANCH   8   9
BRANCH   8  11
ATOM     11  C   LIG d   1       1.523  85.207 115.764  0.00  0.00     0.028 C 
ATOM     12  C   LIG d   1       1.101  86.678 115.626  0.00  0.00     0.006 C 
ENDBRANCH   8  11
ENDBRANCH   7   8
ENDBRANCH   1   7
BRANCH   6  13
ATOM     13  N   LIG d   1       1.997  83.632 111.549  0.00  0.00    -0.311 N 
ATOM     14  C   LIG d   1       1.028  82.785 111.892  0.00  0.00     0.210 C 
ATOM     15  C   LIG d   1       1.038  81.452 111.137  0.00  0.00     0.109 C 
ATOM     16  O   LIG d   1       0.142  83.024 112.726  0.00  0.00    -0.276 OA
ATOM     17  H   LIG d   1       2.653  83.370 110.840  0.00  0.00     0.149 HD
ENDBRANCH   6  13
BRANCH   5  18
ATOM     18  N   LIG d   1       1.006  86.263 110.352  0.00  0.00     0.381 N 
ATOM     19  H   LIG d   1       0.915  87.212 110.049  0.00  0.00    -0.090 HD
ATOM     20  H   LIG d   1       0.225  86.045 110.945  0.00  0.00    -0.090 HD
ATOM     21  H   LIG d   1       1.014  85.654 109.564  0.00  0.00    -0.090 HD
ENDBRANCH   5  18
BRANCH   3  22
ATOM     22  C   LIG d   1       4.345  88.525 112.935  0.00  0.00     0.382 C 
ATOM     23  O   LIG d   1       3.775  89.556 113.367  0.00  0.00    -0.241 OA
ATOM     24  O   LIG d   1       5.559  88.566 112.660  0.00  0.00    -0.241 OA
ENDBRANCH   3  22
TORSDOF 7
ENDMDL
MODEL 3
REMARK VINA RESULT:      -5.4      3.219      5.470
REMARK  7 active torsions:
REMARK  status: ('A' for Active; 'I' for Inactive)
REMARK    1  A    between atoms: C_2  and  C_3 
REMARK    2  A    between atoms: C_3  and  O_6 
REMARK    3  A    between atoms: C_3  and  C_4 
REMARK    4  A    between atoms: C_7  and  O_6 
REMARK    5  A    between atoms: C_9  and  C_10 
REMARK    6  A    between atoms: N_15  and  C_14 
REMARK    7  A    between atoms: N_20  and  C_19 
REMARK       I    between atoms: C_22  and  N_20 
ROOT
ATOM      1  C   LIG d   1       1.742  84.247 113.495  0.00  0.00     0.161 C 
ATOM      2  C   LIG d   1       1.920  85.409 112.726  0.00  0.00     0.016 C 
ATOM      3  C   LIG d   1       2.446  86.613 113.247  0.00  0.00     0.038 C 
ATOM      4  C   LIG d   1       2.975  86.692 114.544  0.00  0.00     0.028 C 
ATOM      5  C   LIG d   1       2.355  85.691 115.512  0.00  0.00    -0.047 C 
ATOM      6  C   LIG d   1       2.416  84.280 114.883  0.00  0.00     0.091 C 
ENDROOT
BRANCH   1   7
ATOM      7  O   LIG d   1       2.186  83.095 112.751  0.00  0.00    -0.368 OA
BRANCH   7   8
ATOM      8  C   LIG d   1       1.404  82.753 111.580  0.00  0.00     0.119 C 
BRANCH   8   9
ATOM      9  C   LIG d   1       0.950  81.289 111.738  0.00  0.00     0.028 C 
ATOM     10  C   LIG d   1       0.655  80.617 110.386  0.00  0.00     0.006 C 
ENDBRANCH   8   9
BRANCH   8  11
ATOM     11  C   LIG d   1       2.261  82.777 110.311  0.00  0.00     0.028 C 
ATOM     12  C   LIG d   1       3.759  82.952 110.607  0.00  0.00     0.006 C 
ENDBRANCH   8  11
ENDBRANCH   7   8
ENDBRANCH   1   7
BRANCH   6  13
ATOM     13  N   LIG d   1       1.754  83.253 115.729  0.00  0.00    -0.311 N 
ATOM     14  C   LIG d   1       2.390  82.557 116.670  0.00  0.00     0.210 C 
ATOM     15  C   LIG d   1       1.526  81.534 117.413  0.00  0.00     0.109 C 
ATOM     16  O   LIG d   1       3.580  82.714 116.982  0.00  0.00    -0.276 OA
ATOM     17  H   LIG d   1       0.781  83.084 115.564  0.00  0.00     0.149 HD
ENDBRANCH   6  13
BRANCH   5  18
ATOM     18  N   LIG d   1       3.092  85.788 116.786  0.00  0.00     0.381 N 
ATOM     19  H   LIG d   1       3.376  86.734 116.942  0.00  0.00    -0.090 HD
ATOM     20  H   LIG d   1       3.916  85.216 116.729  0.00  0.00    -0.090 HD
ATOM     21  H   LIG d   1       2.516  85.478 117.538  0.00  0.00    -0.090 HD
ENDBRANCH   5  18
BRANCH   3  22
ATOM     22  C   LIG d   1       2.411  87.767 112.479  0.00  0.00     0.382 C 
ATOM     23  O   LIG d   1       2.153  87.697 111.253  0.00  0.00    -0.241 OA
ATOM     24  O   LIG d   1       2.677  88.873 112.987  0.00  0.00    -0.241 OA
ENDBRANCH   3  22
TORSDOF 7
ENDMDL
MODEL 4
REMARK VINA RESULT:      -5.1      1.952      5.056
REMARK  7 active torsions:
REMARK  status: ('A' for Active; 'I' for Inactive)
REMARK    1  A    between atoms: C_2  and  C_3 
REMARK    2  A    between atoms: C_3  and  O_6 
REMARK    3  A    between atoms: C_3  and  C_4 
REMARK    4  A    between atoms: C_7  and  O_6 
REMARK    5  A    between atoms: C_9  and  C_10 
REMARK    6  A    between atoms: N_15  and  C_14 
REMARK    7  A    between atoms: N_20  and  C_19 
REMARK       I    between atoms: C_22  and  N_20 
ROOT
ATOM      1  C   LIG d   1       2.868  87.812 114.518  0.00  0.00     0.161 C 
ATOM      2  C   LIG d   1       2.530  86.983 113.436  0.00  0.00     0.016 C 
ATOM      3  C   LIG d   1       3.348  86.823 112.293  0.00  0.00     0.038 C 
ATOM      4  C   LIG d   1       4.638  87.369 112.222  0.00  0.00     0.028 C 
ATOM      5  C   LIG d   1       4.813  88.623 113.073  0.00  0.00    -0.047 C 
ATOM      6  C   LIG d   1       4.322  88.327 114.509  0.00  0.00     0.091 C 
ENDROOT
BRANCH   1   7
ATOM      7  O   LIG d   1       2.585  87.135 115.759  0.00  0.00    -0.368 OA
BRANCH   7   8
ATOM      8  C   LIG d   1       3.184  85.826 115.922  0.00  0.00     0.119 C 
BRANCH   8   9
ATOM      9  C   LIG d   1       2.076  84.865 116.394  0.00  0.00     0.028 C 
ATOM     10  C   LIG d   1       2.136  83.503 115.681  0.00  0.00     0.006 C 
ENDBRANCH   8   9
BRANCH   8  11
ATOM     11  C   LIG d   1       4.226  85.826 117.044  0.00  0.00     0.028 C 
ATOM     12  C   LIG d   1       5.644  85.515 116.541  0.00  0.00     0.006 C 
ENDBRANCH   8  11
ENDBRANCH   7   8
ENDBRANCH   1   7
BRANCH   6  13
ATOM     13  N   LIG d   1       4.380  89.526 115.385  0.00  0.00    -0.311 N 
ATOM     14  C   LIG d   1       5.365  89.754 116.252  0.00  0.00     0.210 C 
ATOM     15  C   LIG d   1       5.221  91.040 117.072  0.00  0.00     0.109 C 
ATOM     16  O   LIG d   1       6.362  89.030 116.397  0.00  0.00    -0.276 OA
ATOM     17  H   LIG d   1       3.628  90.183 115.310  0.00  0.00     0.149 HD
ENDBRANCH   6  13
BRANCH   5  18
ATOM     18  N   LIG d   1       6.236  89.005 113.015  0.00  0.00     0.381 N 
ATOM     19  H   LIG d   1       6.810  88.190 113.098  0.00  0.00    -0.090 HD
ATOM     20  H   LIG d   1       6.441  89.614 113.788  0.00  0.00    -0.090 HD
ATOM     21  H   LIG d   1       6.430  89.470 112.156  0.00  0.00    -0.090 HD
ENDBRANCH   5  18
BRANCH   3  22
ATOM     22  C   LIG d   1       2.858  86.144 111.188  0.00  0.00     0.382 C 
ATOM     23  O   LIG d   1       3.414  85.086 110.806  0.00  0.00    -0.241 OA
ATOM     24  O   LIG d   1       1.896  86.599 110.541  0.00  0.00    -0.241 OA
ENDBRANCH   3  22
TORSDOF 7
ENDMDL
MODEL 5
REMARK VINA RESULT:      -5.1     11.326     12.875
REMARK  7 active torsions:
REMARK  status: ('A' for Active; 'I' for Inactive)
REMARK    1  A    between atoms: C_2  and  C_3 
REMARK    2  A    between atoms: C_3  and  O_6 
REMARK    3  A    between atoms: C_3  and  C_4 
REMARK    4  A    between atoms: C_7  and  O_6 
REMARK    5  A    between atoms: C_9  and  C_10 
REMARK    6  A    between atoms: N_15  and  C_14 
REMARK    7  A    between atoms: N_20  and  C_19 
REMARK       I    between atoms: C_22  and  N_20 
ROOT
ATOM      1  C   LIG d   1      12.675  79.513 114.662  0.00  0.00     0.161 C 
ATOM      2  C   LIG d   1      11.552  80.154 115.209  0.00  0.00     0.016 C 
ATOM      3  C   LIG d   1      10.534  80.745 114.425  0.00  0.00     0.038 C 
ATOM      4  C   LIG d   1      10.495  80.600 113.030  0.00  0.00     0.028 C 
ATOM      5  C   LIG d   1      11.870  80.395 112.404  0.00  0.00    -0.047 C 
ATOM      6  C   LIG d   1      12.594  79.248 113.144  0.00  0.00     0.091 C 
ENDROOT
BRANCH   1   7
ATOM      7  O   LIG d   1      12.930  78.284 115.372  0.00  0.00    -0.368 OA
BRANCH   7   8
ATOM      8  C   LIG d   1      12.343  77.087 114.806  0.00  0.00     0.119 C 
BRANCH   8   9
ATOM      9  C   LIG d   1      11.092  76.747 115.638  0.00  0.00     0.028 C 
ATOM     10  C   LIG d   1       9.797  76.833 114.813  0.00  0.00     0.006 C 
ENDBRANCH   8   9
BRANCH   8  11
ATOM     11  C   LIG d   1      13.275  75.882 114.963  0.00  0.00     0.028 C 
ATOM     12  C   LIG d   1      14.757  76.248 114.788  0.00  0.00     0.006 C 
ENDBRANCH   8  11
ENDBRANCH   7   8
ENDBRANCH   1   7
BRANCH   6  13
ATOM     13  N   LIG d   1      13.979  79.038 112.649  0.00  0.00    -0.311 N 
ATOM     14  C   LIG d   1      14.281  78.223 111.640  0.00  0.00     0.210 C 
ATOM     15  C   LIG d   1      15.773  78.137 111.303  0.00  0.00     0.109 C 
ATOM     16  O   LIG d   1      13.452  77.587 110.972  0.00  0.00    -0.276 OA
ATOM     17  H   LIG d   1      14.711  79.539 113.115  0.00  0.00     0.149 HD
ENDBRANCH   6  13
BRANCH   5  18
ATOM     18  N   LIG d   1      11.670  80.121 110.968  0.00  0.00     0.381 N 
ATOM     19  H   LIG d   1      11.413  80.964 110.495  0.00  0.00    -0.090 HD
ATOM     20  H   LIG d   1      10.919  79.461 110.865  0.00  0.00    -0.090 HD
ATOM     21  H   LIG d   1      12.505  79.750 110.572  0.00  0.00    -0.090 HD
ENDBRANCH   5  18
BRANCH   3  22
ATOM     22  C   LIG d   1       9.562  81.524 115.034  0.00  0.00     0.382 C 
ATOM     23  O   LIG d   1       9.402  82.717 114.680  0.00  0.00    -0.241 OA
ATOM     24  O   LIG d   1       8.873  81.062 115.963  0.00  0.00    -0.241 OA
ENDBRANCH   3  22
TORSDOF 7
ENDMDL
MODEL 6
REMARK VINA RESULT:      -5.1      2.274      5.309
REMARK  7 active torsions:
REMARK  status: ('A' for Active; 'I' for Inactive)
REMARK    1  A    between atoms: C_2  and  C_3 
REMARK    2  A    between atoms: C_3  and  O_6 
REMARK    3  A    between atoms: C_3  and  C_4 
REMARK    4  A    between atoms: C_7  and  O_6 
REMARK    5  A    between atoms: C_9  and  C_10 
REMARK    6  A    between atoms: N_15  and  C_14 
REMARK    7  A    between atoms: N_20  and  C_19 
REMARK       I    between atoms: C_22  and  N_20 
ROOT
ATOM      1  C   LIG d   1       1.518  86.483 114.174  0.00  0.00     0.161 C 
ATOM      2  C   LIG d   1       0.454  85.799 113.562  0.00  0.00     0.016 C 
ATOM      3  C   LIG d   1       0.555  85.175 112.297  0.00  0.00     0.038 C 
ATOM      4  C   LIG d   1       1.779  85.061 111.622  0.00  0.00     0.028 C 
ATOM      5  C   LIG d   1       2.766  86.173 111.965  0.00  0.00    -0.047 C 
ATOM      6  C   LIG d   1       2.892  86.274 113.502  0.00  0.00     0.091 C 
ENDROOT
BRANCH   1   7
ATOM      7  O   LIG d   1       1.585  86.133 115.570  0.00  0.00    -0.368 OA
BRANCH   7   8
ATOM      8  C   LIG d   1       0.796  86.951 116.470  0.00  0.00     0.119 C 
BRANCH   8   9
ATOM      9  C   LIG d   1       1.554  88.277 116.674  0.00  0.00     0.028 C 
ATOM     10  C   LIG d   1       2.866  88.089 117.455  0.00  0.00     0.006 C 
ENDBRANCH   8   9
BRANCH   8  11
ATOM     11  C   LIG d   1       0.704  86.318 117.862  0.00  0.00     0.028 C 
ATOM     12  C   LIG d   1       1.203  84.864 117.889  0.00  0.00     0.006 C 
ENDBRANCH   8  11
ENDBRANCH   7   8
ENDBRANCH   1   7
BRANCH   6  13
ATOM     13  N   LIG d   1       3.774  87.393 113.926  0.00  0.00    -0.311 N 
ATOM     14  C   LIG d   1       3.568  88.661 113.575  0.00  0.00     0.210 C 
ATOM     15  C   LIG d   1       4.608  89.655 114.103  0.00  0.00     0.109 C 
ATOM     16  O   LIG d   1       2.606  89.063 112.904  0.00  0.00    -0.276 OA
ATOM     17  H   LIG d   1       4.561  87.161 114.499  0.00  0.00     0.149 HD
ENDBRANCH   6  13
BRANCH   5  18
ATOM     18  N   LIG d   1       4.043  85.856 111.300  0.00  0.00     0.381 N 
ATOM     19  H   LIG d   1       3.898  85.763 110.314  0.00  0.00    -0.090 HD
ATOM     20  H   LIG d   1       4.385  84.979 111.652  0.00  0.00    -0.090 HD
ATOM     21  H   LIG d   1       4.709  86.575 111.478  0.00  0.00    -0.090 HD
ENDBRANCH   5  18
BRANCH   3  22
ATOM     22  C   LIG d   1      -0.587  84.690 111.677  0.00  0.00     0.382 C 
ATOM     23  O   LIG d   1      -1.091  83.604 112.052  0.00  0.00    -0.241 OA
ATOM     24  O   LIG d   1      -1.093  85.302 110.718  0.00  0.00    -0.241 OA
ENDBRANCH   3  22
TORSDOF 7
ENDMDL
MODEL 7
REMARK VINA RESULT:      -5.0     25.644     28.516
REMARK  7 active torsions:
REMARK  status: ('A' for Active; 'I' for Inactive)
REMARK    1  A    between atoms: C_2  and  C_3 
REMARK    2  A    between atoms: C_3  and  O_6 
REMARK    3  A    between atoms: C_3  and  C_4 
REMARK    4  A    between atoms: C_7  and  O_6 
REMARK    5  A    between atoms: C_9  and  C_10 
REMARK    6  A    between atoms: N_15  and  C_14 
REMARK    7  A    between atoms: N_20  and  C_19 
REMARK       I    between atoms: C_22  and  N_20 
ROOT
ATOM      1  C   LIG d   1     -25.480  85.585 114.281  0.00  0.00     0.161 C 
ATOM      2  C   LIG d   1     -24.437  86.525 114.263  0.00  0.00     0.016 C 
ATOM      3  C   LIG d   1     -23.150  86.250 113.747  0.00  0.00     0.038 C 
ATOM      4  C   LIG d   1     -22.862  85.055 113.071  0.00  0.00     0.028 C 
ATOM      5  C   LIG d   1     -23.735  83.885 113.512  0.00  0.00    -0.047 C 
ATOM      6  C   LIG d   1     -25.219  84.313 113.447  0.00  0.00     0.091 C 
ENDROOT
BRANCH   1   7
ATOM      7  O   LIG d   1     -26.710  86.212 113.865  0.00  0.00    -0.368 OA
BRANCH   7   8
ATOM      8  C   LIG d   1     -26.576  87.373 113.010  0.00  0.00     0.119 C 
BRANCH   8   9
ATOM      9  C   LIG d   1     -27.598  88.422 113.490  0.00  0.00     0.028 C 
ATOM     10  C   LIG d   1     -27.376  88.828 114.957  0.00  0.00     0.006 C 
ENDBRANCH   8   9
BRANCH   8  11
ATOM     11  C   LIG d   1     -26.974  87.051 111.566  0.00  0.00     0.028 C 
ATOM     12  C   LIG d   1     -25.769  86.697 110.681  0.00  0.00     0.006 C 
ENDBRANCH   8  11
ENDBRANCH   7   8
ENDBRANCH   1   7
BRANCH   6  13
ATOM     13  N   LIG d   1     -26.137  83.254 113.942  0.00  0.00    -0.311 N 
ATOM     14  C   LIG d   1     -26.723  82.361 113.146  0.00  0.00     0.210 C 
ATOM     15  C   LIG d   1     -27.647  81.369 113.858  0.00  0.00     0.109 C 
ATOM     16  O   LIG d   1     -26.539  82.276 111.923  0.00  0.00    -0.276 OA
ATOM     17  H   LIG d   1     -26.317  83.230 114.927  0.00  0.00     0.149 HD
ENDBRANCH   6  13
BRANCH   5  18
ATOM     18  N   LIG d   1     -23.424  82.741 112.633  0.00  0.00     0.381 N 
ATOM     19  H   LIG d   1     -22.926  82.044 113.148  0.00  0.00    -0.090 HD
ATOM     20  H   LIG d   1     -22.837  83.059 111.882  0.00  0.00    -0.090 HD
ATOM     21  H   LIG d   1     -24.266  82.355 112.265  0.00  0.00    -0.090 HD
ENDBRANCH   5  18
BRANCH   3  22
ATOM     22  C   LIG d   1     -22.122  87.161 113.941  0.00  0.00     0.382 C 
ATOM     23  O   LIG d   1     -21.049  87.040 113.303  0.00  0.00    -0.241 OA
ATOM     24  O   LIG d   1     -22.239  88.076 114.778  0.00  0.00    -0.241 OA
ENDBRANCH   3  22
TORSDOF 7
ENDMDL
MODEL 8
REMARK VINA RESULT:      -4.9     10.589     11.757
REMARK  7 active torsions:
REMARK  status: ('A' for Active; 'I' for Inactive)
REMARK    1  A    between atoms: C_2  and  C_3 
REMARK    2  A    between atoms: C_3  and  O_6 
REMARK    3  A    between atoms: C_3  and  C_4 
REMARK    4  A    between atoms: C_7  and  O_6 
REMARK    5  A    between atoms: C_9  and  C_10 
REMARK    6  A    between atoms: N_15  and  C_14 
REMARK    7  A    between atoms: N_20  and  C_19 
REMARK       I    between atoms: C_22  and  N_20 
ROOT
ATOM      1  C   LIG d   1      11.556  78.968 114.878  0.00  0.00     0.161 C 
ATOM      2  C   LIG d   1      10.907  80.037 115.518  0.00  0.00     0.016 C 
ATOM      3  C   LIG d   1      10.379  81.153 114.828  0.00  0.00     0.038 C 
ATOM      4  C   LIG d   1      10.331  81.203 113.427  0.00  0.00     0.028 C 
ATOM      5  C   LIG d   1      11.426  80.382 112.753  0.00  0.00    -0.047 C 
ATOM      6  C   LIG d   1      11.415  78.952 113.341  0.00  0.00     0.091 C 
ENDROOT
BRANCH   1   7
ATOM      7  O   LIG d   1      11.105  77.718 115.436  0.00  0.00    -0.368 OA
BRANCH   7   8
ATOM      8  C   LIG d   1       9.803  77.737 116.071  0.00  0.00     0.119 C 
BRANCH   8   9
ATOM      9  C   LIG d   1       9.849  76.746 117.250  0.00  0.00     0.028 C 
ATOM     10  C   LIG d   1      10.084  75.297 116.790  0.00  0.00     0.006 C 
ENDBRANCH   8   9
BRANCH   8  11
ATOM     11  C   LIG d   1       8.718  77.200 115.132  0.00  0.00     0.028 C 
ATOM     12  C   LIG d   1       7.362  77.896 115.331  0.00  0.00     0.006 C 
ENDBRANCH   8  11
ENDBRANCH   7   8
ENDBRANCH   1   7
BRANCH   6  13
ATOM     13  N   LIG d   1      12.510  78.107 112.798  0.00  0.00    -0.311 N 
ATOM     14  C   LIG d   1      13.790  78.473 112.803  0.00  0.00     0.210 C 
ATOM     15  C   LIG d   1      14.754  77.462 112.175  0.00  0.00     0.109 C 
ATOM     16  O   LIG d   1      14.223  79.525 113.298  0.00  0.00    -0.276 OA
ATOM     17  H   LIG d   1      12.251  77.223 112.405  0.00  0.00     0.149 HD
ENDBRANCH   6  13
BRANCH   5  18
ATOM     18  N   LIG d   1      11.174  80.411 111.300  0.00  0.00     0.381 N 
ATOM     19  H   LIG d   1      12.038  80.312 110.805  0.00  0.00    -0.090 HD
ATOM     20  H   LIG d   1      10.771  81.299 111.057  0.00  0.00    -0.090 HD
ATOM     21  H   LIG d   1      10.552  79.675 111.047  0.00  0.00    -0.090 HD
ENDBRANCH   5  18
BRANCH   3  22
ATOM     22  C   LIG d   1       9.928  82.252 115.542  0.00  0.00     0.382 C 
ATOM     23  O   LIG d   1      10.625  82.724 116.473  0.00  0.00    -0.241 OA
ATOM     24  O   LIG d   1       8.813  82.751 115.297  0.00  0.00    -0.241 OA
ENDBRANCH   3  22
TORSDOF 7
ENDMDL
MODEL 9
REMARK VINA RESULT:      -4.7     13.043     15.810
REMARK  7 active torsions:
REMARK  status: ('A' for Active; 'I' for Inactive)
REMARK    1  A    between atoms: C_2  and  C_3 
REMARK    2  A    between atoms: C_3  and  O_6 
REMARK    3  A    between atoms: C_3  and  C_4 
REMARK    4  A    between atoms: C_7  and  O_6 
REMARK    5  A    between atoms: C_9  and  C_10 
REMARK    6  A    between atoms: N_15  and  C_14 
REMARK    7  A    between atoms: N_20  and  C_19 
REMARK       I    between atoms: C_22  and  N_20 
ROOT
ATOM      1  C   LIG d   1      -6.015  75.627 117.814  0.00  0.00     0.161 C 
ATOM      2  C   LIG d   1      -7.344  75.174 117.794  0.00  0.00     0.016 C 
ATOM      3  C   LIG d   1      -8.460  76.038 117.707  0.00  0.00     0.038 C 
ATOM      4  C   LIG d   1      -8.315  77.415 117.480  0.00  0.00     0.028 C 
ATOM      5  C   LIG d   1      -6.997  77.979 117.999  0.00  0.00    -0.047 C 
ATOM      6  C   LIG d   1      -5.834  77.117 117.456  0.00  0.00     0.091 C 
ENDROOT
BRANCH   1   7
ATOM      7  O   LIG d   1      -5.205  74.803 116.953  0.00  0.00    -0.368 OA
BRANCH   7   8
ATOM      8  C   LIG d   1      -5.616  74.734 115.565  0.00  0.00     0.119 C 
BRANCH   8   9
ATOM      9  C   LIG d   1      -5.559  73.254 115.138  0.00  0.00     0.028 C 
ATOM     10  C   LIG d   1      -6.369  72.342 116.075  0.00  0.00     0.006 C 
ENDBRANCH   8   9
BRANCH   8  11
ATOM     11  C   LIG d   1      -4.621  75.458 114.653  0.00  0.00     0.028 C 
ATOM     12  C   LIG d   1      -4.497  74.803 113.268  0.00  0.00     0.006 C 
ENDBRANCH   8  11
ENDBRANCH   7   8
ENDBRANCH   1   7
BRANCH   6  13
ATOM     13  N   LIG d   1      -4.514  77.550 117.983  0.00  0.00    -0.311 N 
ATOM     14  C   LIG d   1      -3.695  78.369 117.327  0.00  0.00     0.210 C 
ATOM     15  C   LIG d   1      -2.374  78.672 118.040  0.00  0.00     0.109 C 
ATOM     16  O   LIG d   1      -3.951  78.900 116.235  0.00  0.00    -0.276 OA
ATOM     17  H   LIG d   1      -4.240  77.191 118.877  0.00  0.00     0.149 HD
ENDBRANCH   6  13
BRANCH   5  18
ATOM     18  N   LIG d   1      -6.918  79.389 117.575  0.00  0.00     0.381 N 
ATOM     19  H   LIG d   1      -6.280  79.478 116.809  0.00  0.00    -0.090 HD
ATOM     20  H   LIG d   1      -6.571  79.940 118.340  0.00  0.00    -0.090 HD
ATOM     21  H   LIG d   1      -7.820  79.715 117.304  0.00  0.00    -0.090 HD
ENDBRANCH   5  18
BRANCH   3  22
ATOM     22  C   LIG d   1      -9.738  75.531 117.887  0.00  0.00     0.382 C 
ATOM     23  O   LIG d   1      -9.924  74.290 117.898  0.00  0.00    -0.241 OA
ATOM     24  O   LIG d   1     -10.713  76.298 117.994  0.00  0.00    -0.241 OA
ENDBRANCH   3  22
TORSDOF 7
ENDMDL
