MODEL 1
REMARK VINA RESULT:      -5.7      0.000      0.000
REMARK  7 active torsions:
REMARK  status: ('A' for Active; 'I' for Inactive)
REMARK    1  A    between atoms: C_2  and  C_3 
REMARK    2  A    between atoms: C_3  and  O_6 
REMARK    3  A    between atoms: C_3  and  C_4 
REMARK    4  A    between atoms: C_7  and  O_6 
REMARK    5  A    between atoms: C_9  and  C_10 
REMARK    6  A    between atoms: N_15  and  C_14 
REMARK    7  A    between atoms: N_20  and  C_19 
REMARK       I    between atoms: C_22  and  N_20 
ROOT
ATOM      1  C   LIG d   1     -16.691  65.409 114.068  0.00  0.00     0.161 C 
ATOM      2  C   LIG d   1     -16.275  66.241 113.015  0.00  0.00     0.016 C 
ATOM      3  C   LIG d   1     -15.565  67.448 113.211  0.00  0.00     0.038 C 
ATOM      4  C   LIG d   1     -15.087  67.831 114.473  0.00  0.00     0.028 C 
ATOM      5  C   LIG d   1     -15.917  67.280 115.628  0.00  0.00    -0.047 C 
ATOM      6  C   LIG d   1     -16.082  65.754 115.443  0.00  0.00     0.091 C 
ENDROOT
BRANCH   1   7
ATOM      7  O   LIG d   1     -16.428  64.032 113.735  0.00  0.00    -0.368 OA
BRANCH   7   8
ATOM      8  C   LIG d   1     -17.591  63.205 113.479  0.00  0.00     0.119 C 
BRANCH   8   9
ATOM      9  C   LIG d   1     -18.833  64.112 113.576  0.00  0.00     0.028 C 
ATOM     10  C   LIG d   1     -19.876  63.795 112.491  0.00  0.00     0.006 C 
ENDBRANCH   8   9
BRANCH   8  11
ATOM     11  C   LIG d   1     -17.774  62.149 114.573  0.00  0.00     0.028 C 
ATOM     12  C   LIG d   1     -18.059  60.749 114.006  0.00  0.00     0.006 C 
ENDBRANCH   8  11
ENDBRANCH   7   8
ENDBRANCH   1   7
BRANCH   6  13
ATOM     13  N   LIG d   1     -16.952  65.148 116.485  0.00  0.00    -0.311 N 
ATOM     14  C   LIG d   1     -16.544  64.188 117.313  0.00  0.00     0.210 C 
ATOM     15  C   LIG d   1     -17.607  63.689 118.298  0.00  0.00     0.109 C 
ATOM     16  O   LIG d   1     -15.394  63.724 117.347  0.00  0.00    -0.276 OA
ATOM     17  H   LIG d   1     -17.892  65.487 116.548  0.00  0.00     0.149 HD
ENDBRANCH   6  13
BRANCH   5  18
ATOM     18  N   LIG d   1     -15.229  67.639 116.882  0.00  0.00     0.381 N 
ATOM     19  H   LIG d   1     -14.741  66.844 117.241  0.00  0.00    -0.090 HD
ATOM     20  H   LIG d   1     -15.916  67.920 117.560  0.00  0.00    -0.090 HD
ATOM     21  H   LIG d   1     -14.589  68.385 116.719  0.00  0.00    -0.090 HD
ENDBRANCH   5  18
BRANCH   3  22
ATOM     22  C   LIG d   1     -15.360  68.307 112.141  0.00  0.00     0.382 C 
ATOM     23  O   LIG d   1     -15.166  69.529 112.347  0.00  0.00    -0.241 OA
ATOM     24  O   LIG d   1     -15.412  67.882 110.971  0.00  0.00    -0.241 OA
ENDBRANCH   3  22
TORSDOF 7
ENDMDL
MODEL 2
REMARK VINA RESULT:      -5.4     26.376     29.002
REMARK  7 active torsions:
REMARK  status: ('A' for Active; 'I' for Inactive)
REMARK    1  A    between atoms: C_2  and  C_3 
REMARK    2  A    between atoms: C_3  and  O_6 
REMARK    3  A    between atoms: C_3  and  C_4 
REMARK    4  A    between atoms: C_7  and  O_6 
REMARK    5  A    between atoms: C_9  and  C_10 
REMARK    6  A    between atoms: N_15  and  C_14 
REMARK    7  A    between atoms: N_20  and  C_19 
REMARK       I    between atoms: C_22  and  N_20 
ROOT
ATOM      1  C   LIG d   1       3.790  85.918 113.506  0.00  0.00     0.161 C 
ATOM      2  C   LIG d   1       4.325  87.149 113.092  0.00  0.00     0.016 C 
ATOM      3  C   LIG d   1       4.896  88.087 113.983  0.00  0.00     0.038 C 
ATOM      4  C   LIG d   1       5.108  87.790 115.337  0.00  0.00     0.028 C 
ATOM      5  C   LIG d   1       4.126  86.764 115.893  0.00  0.00    -0.047 C 
ATOM      6  C   LIG d   1       4.112  85.529 114.964  0.00  0.00     0.091 C 
ENDROOT
BRANCH   1   7
ATOM      7  O   LIG d   1       4.210  84.875 112.604  0.00  0.00    -0.368 OA
BRANCH   7   8
ATOM      8  C   LIG d   1       3.455  84.752 111.374  0.00  0.00     0.119 C 
BRANCH   8   9
ATOM      9  C   LIG d   1       2.255  83.827 111.658  0.00  0.00     0.028 C 
ATOM     10  C   LIG d   1       0.907  84.552 111.505  0.00  0.00     0.006 C 
ENDBRANCH   8   9
BRANCH   8  11
ATOM     11  C   LIG d   1       4.268  84.040 110.289  0.00  0.00     0.028 C 
ATOM     12  C   LIG d   1       3.810  82.592 110.055  0.00  0.00     0.006 C 
ENDBRANCH   8  11
ENDBRANCH   7   8
ENDBRANCH   1   7
BRANCH   6  13
ATOM     13  N   LIG d   1       3.116  84.511 115.389  0.00  0.00    -0.311 N 
ATOM     14  C   LIG d   1       3.406  83.494 116.198  0.00  0.00     0.210 C 
ATOM     15  C   LIG d   1       2.237  82.549 116.494  0.00  0.00     0.109 C 
ATOM     16  O   LIG d   1       4.513  83.303 116.725  0.00  0.00    -0.276 OA
ATOM     17  H   LIG d   1       2.185  84.608 115.033  0.00  0.00     0.149 HD
ENDBRANCH   6  13
BRANCH   5  18
ATOM     18  N   LIG d   1       4.547  86.446 117.271  0.00  0.00     0.381 N 
ATOM     19  H   LIG d   1       3.784  86.034 117.771  0.00  0.00    -0.090 HD
ATOM     20  H   LIG d   1       4.805  87.298 117.737  0.00  0.00    -0.090 HD
ATOM     21  H   LIG d   1       5.321  85.819 117.255  0.00  0.00    -0.090 HD
ENDBRANCH   5  18
BRANCH   3  22
ATOM     22  C   LIG d   1       5.225  89.355 113.527  0.00  0.00     0.382 C 
ATOM     23  O   LIG d   1       4.351  90.253 113.486  0.00  0.00    -0.241 OA
ATOM     24  O   LIG d   1       6.375  89.598 113.114  0.00  0.00    -0.241 OA
ENDBRANCH   3  22
TORSDOF 7
ENDMDL
MODEL 3
REMARK VINA RESULT:      -5.3      1.689      4.888
REMARK  7 active torsions:
REMARK  status: ('A' for Active; 'I' for Inactive)
REMARK    1  A    between atoms: C_2  and  C_3 
REMARK    2  A    between atoms: C_3  and  O_6 
REMARK    3  A    between atoms: C_3  and  C_4 
REMARK    4  A    between atoms: C_7  and  O_6 
REMARK    5  A    between atoms: C_9  and  C_10 
REMARK    6  A    between atoms: N_15  and  C_14 
REMARK    7  A    between atoms: N_20  and  C_19 
REMARK       I    between atoms: C_22  and  N_20 
ROOT
ATOM      1  C   LIG d   1     -16.557  64.958 113.576  0.00  0.00     0.161 C 
ATOM      2  C   LIG d   1     -16.760  64.343 114.823  0.00  0.00     0.016 C 
ATOM      3  C   LIG d   1     -16.483  64.975 116.057  0.00  0.00     0.038 C 
ATOM      4  C   LIG d   1     -16.124  66.329 116.132  0.00  0.00     0.028 C 
ATOM      5  C   LIG d   1     -15.421  66.840 114.879  0.00  0.00    -0.047 C 
ATOM      6  C   LIG d   1     -16.272  66.473 113.641  0.00  0.00     0.091 C 
ENDROOT
BRANCH   1   7
ATOM      7  O   LIG d   1     -17.682  64.697 112.713  0.00  0.00    -0.368 OA
BRANCH   7   8
ATOM      8  C   LIG d   1     -18.906  64.283 113.369  0.00  0.00     0.119 C 
BRANCH   8   9
ATOM      9  C   LIG d   1     -19.606  63.269 112.445  0.00  0.00     0.028 C 
ATOM     10  C   LIG d   1     -19.743  61.880 113.093  0.00  0.00     0.006 C 
ENDBRANCH   8   9
BRANCH   8  11
ATOM     11  C   LIG d   1     -19.887  65.451 113.507  0.00  0.00     0.028 C 
ATOM     12  C   LIG d   1     -20.545  65.516 114.894  0.00  0.00     0.006 C 
ENDBRANCH   8  11
ENDBRANCH   7   8
ENDBRANCH   1   7
BRANCH   6  13
ATOM     13  N   LIG d   1     -15.615  66.862 112.366  0.00  0.00    -0.311 N 
ATOM     14  C   LIG d   1     -15.623  68.105 111.886  0.00  0.00     0.210 C 
ATOM     15  C   LIG d   1     -14.903  68.285 110.546  0.00  0.00     0.109 C 
ATOM     16  O   LIG d   1     -16.130  69.081 112.460  0.00  0.00    -0.276 OA
ATOM     17  H   LIG d   1     -15.152  66.138 111.852  0.00  0.00     0.149 HD
ENDBRANCH   6  13
BRANCH   5  18
ATOM     18  N   LIG d   1     -15.228  68.294 115.037  0.00  0.00     0.381 N 
ATOM     19  H   LIG d   1     -15.590  68.589 115.921  0.00  0.00    -0.090 HD
ATOM     20  H   LIG d   1     -15.736  68.770 114.313  0.00  0.00    -0.090 HD
ATOM     21  H   LIG d   1     -14.259  68.518 114.975  0.00  0.00    -0.090 HD
ENDBRANCH   5  18
BRANCH   3  22
ATOM     22  C   LIG d   1     -16.526  64.239 117.231  0.00  0.00     0.382 C 
ATOM     23  O   LIG d   1     -15.489  63.673 117.654  0.00  0.00    -0.241 OA
ATOM     24  O   LIG d   1     -17.598  64.097 117.849  0.00  0.00    -0.241 OA
ENDBRANCH   3  22
TORSDOF 7
ENDMDL
MODEL 4
REMARK VINA RESULT:      -5.2     20.323     22.544
REMARK  7 active torsions:
REMARK  status: ('A' for Active; 'I' for Inactive)
REMARK    1  A    between atoms: C_2  and  C_3 
REMARK    2  A    between atoms: C_3  and  O_6 
REMARK    3  A    between atoms: C_3  and  C_4 
REMARK    4  A    between atoms: C_7  and  O_6 
REMARK    5  A    between atoms: C_9  and  C_10 
REMARK    6  A    between atoms: N_15  and  C_14 
REMARK    7  A    between atoms: N_20  and  C_19 
REMARK       I    between atoms: C_22  and  N_20 
ROOT
ATOM      1  C   LIG d   1     -25.698  85.926 113.312  0.00  0.00     0.161 C 
ATOM      2  C   LIG d   1     -24.605  86.803 113.409  0.00  0.00     0.016 C 
ATOM      3  C   LIG d   1     -23.298  86.384 113.746  0.00  0.00     0.038 C 
ATOM      4  C   LIG d   1     -22.961  85.027 113.862  0.00  0.00     0.028 C 
ATOM      5  C   LIG d   1     -24.136  84.144 114.270  0.00  0.00    -0.047 C 
ATOM      6  C   LIG d   1     -25.328  84.428 113.327  0.00  0.00     0.091 C 
ENDROOT
BRANCH   1   7
ATOM      7  O   LIG d   1     -26.474  86.239 112.139  0.00  0.00    -0.368 OA
BRANCH   7   8
ATOM      8  C   LIG d   1     -27.653  87.053 112.353  0.00  0.00     0.119 C 
BRANCH   8   9
ATOM      9  C   LIG d   1     -28.881  86.188 112.008  0.00  0.00     0.028 C 
ATOM     10  C   LIG d   1     -28.803  85.595 110.592  0.00  0.00     0.006 C 
ENDBRANCH   8   9
BRANCH   8  11
ATOM     11  C   LIG d   1     -27.701  88.232 111.376  0.00  0.00     0.028 C 
ATOM     12  C   LIG d   1     -26.839  89.419 111.833  0.00  0.00     0.006 C 
ENDBRANCH   8  11
ENDBRANCH   7   8
ENDBRANCH   1   7
BRANCH   6  13
ATOM     13  N   LIG d   1     -26.546  83.667 113.708  0.00  0.00    -0.311 N 
ATOM     14  C   LIG d   1     -27.246  82.926 112.851  0.00  0.00     0.210 C 
ATOM     15  C   LIG d   1     -28.480  82.241 113.446  0.00  0.00     0.109 C 
ATOM     16  O   LIG d   1     -26.944  82.746 111.661  0.00  0.00    -0.276 OA
ATOM     17  H   LIG d   1     -26.844  83.732 114.661  0.00  0.00     0.149 HD
ENDBRANCH   6  13
BRANCH   5  18
ATOM     18  N   LIG d   1     -23.679  82.743 114.219  0.00  0.00     0.381 N 
ATOM     19  H   LIG d   1     -24.330  82.193 113.694  0.00  0.00    -0.090 HD
ATOM     20  H   LIG d   1     -23.642  82.379 115.155  0.00  0.00    -0.090 HD
ATOM     21  H   LIG d   1     -22.777  82.693 113.799  0.00  0.00    -0.090 HD
ENDBRANCH   5  18
BRANCH   3  22
ATOM     22  C   LIG d   1     -22.319  87.330 114.010  0.00  0.00     0.382 C 
ATOM     23  O   LIG d   1     -22.579  88.313 114.745  0.00  0.00    -0.241 OA
ATOM     24  O   LIG d   1     -21.193  87.236 113.486  0.00  0.00    -0.241 OA
ENDBRANCH   3  22
TORSDOF 7
ENDMDL
MODEL 5
REMARK VINA RESULT:      -5.1     28.765     31.554
REMARK  7 active torsions:
REMARK  status: ('A' for Active; 'I' for Inactive)
REMARK    1  A    between atoms: C_2  and  C_3 
REMARK    2  A    between atoms: C_3  and  O_6 
REMARK    3  A    between atoms: C_3  and  C_4 
REMARK    4  A    between atoms: C_7  and  O_6 
REMARK    5  A    between atoms: C_9  and  C_10 
REMARK    6  A    between atoms: N_15  and  C_14 
REMARK    7  A    between atoms: N_20  and  C_19 
REMARK       I    between atoms: C_22  and  N_20 
ROOT
ATOM      1  C   LIG d   1      11.103  80.145 114.974  0.00  0.00     0.161 C 
ATOM      2  C   LIG d   1      10.281  79.090 114.546  0.00  0.00     0.016 C 
ATOM      3  C   LIG d   1       9.091  78.712 115.208  0.00  0.00     0.038 C 
ATOM      4  C   LIG d   1       8.559  79.466 116.265  0.00  0.00     0.028 C 
ATOM      5  C   LIG d   1       9.615  80.238 117.049  0.00  0.00    -0.047 C 
ATOM      6  C   LIG d   1      10.481  81.050 116.059  0.00  0.00     0.091 C 
ENDROOT
BRANCH   1   7
ATOM      7  O   LIG d   1      11.516  80.934 113.841  0.00  0.00    -0.368 OA
BRANCH   7   8
ATOM      8  C   LIG d   1      12.100  80.203 112.735  0.00  0.00     0.119 C 
BRANCH   8   9
ATOM      9  C   LIG d   1      13.631  80.262 112.898  0.00  0.00     0.028 C 
ATOM     10  C   LIG d   1      14.367  79.427 111.836  0.00  0.00     0.006 C 
ENDBRANCH   8   9
BRANCH   8  11
ATOM     11  C   LIG d   1      11.808  80.891 111.397  0.00  0.00     0.028 C 
ATOM     12  C   LIG d   1      10.696  81.946 111.500  0.00  0.00     0.006 C 
ENDBRANCH   8  11
ENDBRANCH   7   8
ENDBRANCH   1   7
BRANCH   6  13
ATOM     13  N   LIG d   1      11.592  81.769 116.736  0.00  0.00    -0.311 N 
ATOM     14  C   LIG d   1      11.714  83.095 116.736  0.00  0.00     0.210 C 
ATOM     15  C   LIG d   1      12.944  83.631 117.477  0.00  0.00     0.109 C 
ATOM     16  O   LIG d   1      10.904  83.880 116.221  0.00  0.00    -0.276 OA
ATOM     17  H   LIG d   1      12.278  81.210 117.205  0.00  0.00     0.149 HD
ENDBRANCH   6  13
BRANCH   5  18
ATOM     18  N   LIG d   1       8.910  81.086 118.030  0.00  0.00     0.381 N 
ATOM     19  H   LIG d   1       7.929  81.085 117.835  0.00  0.00    -0.090 HD
ATOM     20  H   LIG d   1       9.247  82.029 117.946  0.00  0.00    -0.090 HD
ATOM     21  H   LIG d   1       9.073  80.748 118.952  0.00  0.00    -0.090 HD
ENDBRANCH   5  18
BRANCH   3  22
ATOM     22  C   LIG d   1       8.440  77.544 114.840  0.00  0.00     0.382 C 
ATOM     23  O   LIG d   1       9.091  76.480 114.706  0.00  0.00    -0.241 OA
ATOM     24  O   LIG d   1       7.219  77.551 114.597  0.00  0.00    -0.241 OA
ENDBRANCH   3  22
TORSDOF 7
ENDMDL
MODEL 6
REMARK VINA RESULT:      -5.0     29.318     31.899
REMARK  7 active torsions:
REMARK  status: ('A' for Active; 'I' for Inactive)
REMARK    1  A    between atoms: C_2  and  C_3 
REMARK    2  A    between atoms: C_3  and  O_6 
REMARK    3  A    between atoms: C_3  and  C_4 
REMARK    4  A    between atoms: C_7  and  O_6 
REMARK    5  A    between atoms: C_9  and  C_10 
REMARK    6  A    between atoms: N_15  and  C_14 
REMARK    7  A    between atoms: N_20  and  C_19 
REMARK       I    between atoms: C_22  and  N_20 
ROOT
ATOM      1  C   LIG d   1      12.504  79.115 114.261  0.00  0.00     0.161 C 
ATOM      2  C   LIG d   1      11.504  79.829 114.941  0.00  0.00     0.016 C 
ATOM      3  C   LIG d   1      10.738  80.857 114.344  0.00  0.00     0.038 C 
ATOM      4  C   LIG d   1      10.818  81.139 112.973  0.00  0.00     0.028 C 
ATOM      5  C   LIG d   1      12.169  80.789 112.360  0.00  0.00    -0.047 C 
ATOM      6  C   LIG d   1      12.528  79.333 112.733  0.00  0.00     0.091 C 
ENDROOT
BRANCH   1   7
ATOM      7  O   LIG d   1      12.394  77.710 114.565  0.00  0.00    -0.368 OA
BRANCH   7   8
ATOM      8  C   LIG d   1      11.467  77.357 115.621  0.00  0.00     0.119 C 
BRANCH   8   9
ATOM      9  C   LIG d   1      12.235  76.496 116.642  0.00  0.00     0.028 C 
ATOM     10  C   LIG d   1      13.447  75.785 116.016  0.00  0.00     0.006 C 
ENDBRANCH   8   9
BRANCH   8  11
ATOM     11  C   LIG d   1      10.341  76.460 115.099  0.00  0.00     0.028 C 
ATOM     12  C   LIG d   1       9.008  77.208 114.941  0.00  0.00     0.006 C 
ENDBRANCH   8  11
ENDBRANCH   7   8
ENDBRANCH   1   7
BRANCH   6  13
ATOM     13  N   LIG d   1      13.874  78.937 112.244  0.00  0.00    -0.311 N 
ATOM     14  C   LIG d   1      14.082  78.340 111.071  0.00  0.00     0.210 C 
ATOM     15  C   LIG d   1      15.544  77.999 110.769  0.00  0.00     0.109 C 
ATOM     16  O   LIG d   1      13.197  78.089 110.239  0.00  0.00    -0.276 OA
ATOM     17  H   LIG d   1      14.653  79.131 112.843  0.00  0.00     0.149 HD
ENDBRANCH   6  13
BRANCH   5  18
ATOM     18  N   LIG d   1      12.068  81.004 110.904  0.00  0.00     0.381 N 
ATOM     19  H   LIG d   1      12.946  81.325 110.547  0.00  0.00    -0.090 HD
ATOM     20  H   LIG d   1      11.378  81.713 110.727  0.00  0.00    -0.090 HD
ATOM     21  H   LIG d   1      11.807  80.156 110.451  0.00  0.00    -0.090 HD
ENDBRANCH   5  18
BRANCH   3  22
ATOM     22  C   LIG d   1       9.910  81.642 115.131  0.00  0.00     0.382 C 
ATOM     23  O   LIG d   1       9.386  81.161 116.165  0.00  0.00    -0.241 OA
ATOM     24  O   LIG d   1       9.643  82.812 114.797  0.00  0.00    -0.241 OA
ENDBRANCH   3  22
TORSDOF 7
ENDMDL
MODEL 7
REMARK VINA RESULT:      -4.8      2.554      4.203
REMARK  7 active torsions:
REMARK  status: ('A' for Active; 'I' for Inactive)
REMARK    1  A    between atoms: C_2  and  C_3 
REMARK    2  A    between atoms: C_3  and  O_6 
REMARK    3  A    between atoms: C_3  and  C_4 
REMARK    4  A    between atoms: C_7  and  O_6 
REMARK    5  A    between atoms: C_9  and  C_10 
REMARK    6  A    between atoms: N_15  and  C_14 
REMARK    7  A    between atoms: N_20  and  C_19 
REMARK       I    between atoms: C_22  and  N_20 
ROOT
ATOM      1  C   LIG d   1     -16.579  63.999 116.448  0.00  0.00     0.161 C 
ATOM      2  C   LIG d   1     -16.038  65.270 116.707  0.00  0.00     0.016 C 
ATOM      3  C   LIG d   1     -15.849  66.253 115.709  0.00  0.00     0.038 C 
ATOM      4  C   LIG d   1     -16.331  66.085 114.402  0.00  0.00     0.028 C 
ATOM      5  C   LIG d   1     -16.428  64.624 113.975  0.00  0.00    -0.047 C 
ATOM      6  C   LIG d   1     -17.213  63.839 115.051  0.00  0.00     0.091 C 
ENDROOT
BRANCH   1   7
ATOM      7  O   LIG d   1     -17.533  63.657 117.473  0.00  0.00    -0.368 OA
BRANCH   7   8
ATOM      8  C   LIG d   1     -18.900  64.076 117.238  0.00  0.00     0.119 C 
BRANCH   8   9
ATOM      9  C   LIG d   1     -19.250  65.132 118.305  0.00  0.00     0.028 C 
ATOM     10  C   LIG d   1     -19.464  66.529 117.699  0.00  0.00     0.006 C 
ENDBRANCH   8   9
BRANCH   8  11
ATOM     11  C   LIG d   1     -19.883  62.925 117.469  0.00  0.00     0.028 C 
ATOM     12  C   LIG d   1     -19.180  61.579 117.709  0.00  0.00     0.006 C 
ENDBRANCH   8  11
ENDBRANCH   7   8
ENDBRANCH   1   7
BRANCH   6  13
ATOM     13  N   LIG d   1     -17.283  62.385 114.753  0.00  0.00    -0.311 N 
ATOM     14  C   LIG d   1     -18.291  61.819 114.092  0.00  0.00     0.210 C 
ATOM     15  C   LIG d   1     -18.175  60.303 113.909  0.00  0.00     0.109 C 
ATOM     16  O   LIG d   1     -19.255  62.434 113.611  0.00  0.00    -0.276 OA
ATOM     17  H   LIG d   1     -16.526  61.816 115.079  0.00  0.00     0.149 HD
ENDBRANCH   6  13
BRANCH   5  18
ATOM     18  N   LIG d   1     -17.073  64.590 112.649  0.00  0.00     0.381 N 
ATOM     19  H   LIG d   1     -17.787  63.889 112.637  0.00  0.00    -0.090 HD
ATOM     20  H   LIG d   1     -16.383  64.349 111.959  0.00  0.00    -0.090 HD
ATOM     21  H   LIG d   1     -17.467  65.480 112.438  0.00  0.00    -0.090 HD
ENDBRANCH   5  18
BRANCH   3  22
ATOM     22  C   LIG d   1     -15.134  67.404 116.005  0.00  0.00     0.382 C 
ATOM     23  O   LIG d   1     -15.454  68.494 115.473  0.00  0.00    -0.241 OA
ATOM     24  O   LIG d   1     -14.147  67.357 116.763  0.00  0.00    -0.241 OA
ENDBRANCH   3  22
TORSDOF 7
ENDMDL
MODEL 8
REMARK VINA RESULT:      -4.8     21.054     23.444
REMARK  7 active torsions:
REMARK  status: ('A' for Active; 'I' for Inactive)
REMARK    1  A    between atoms: C_2  and  C_3 
REMARK    2  A    between atoms: C_3  and  O_6 
REMARK    3  A    between atoms: C_3  and  C_4 
REMARK    4  A    between atoms: C_7  and  O_6 
REMARK    5  A    between atoms: C_9  and  C_10 
REMARK    6  A    between atoms: N_15  and  C_14 
REMARK    7  A    between atoms: N_20  and  C_19 
REMARK       I    between atoms: C_22  and  N_20 
ROOT
ATOM      1  C   LIG d   1     -25.967  86.510 114.007  0.00  0.00     0.161 C 
ATOM      2  C   LIG d   1     -24.736  87.184 114.070  0.00  0.00     0.016 C 
ATOM      3  C   LIG d   1     -23.500  86.579 113.747  0.00  0.00     0.038 C 
ATOM      4  C   LIG d   1     -23.427  85.293 113.190  0.00  0.00     0.028 C 
ATOM      5  C   LIG d   1     -24.596  84.396 113.582  0.00  0.00    -0.047 C 
ATOM      6  C   LIG d   1     -25.920  85.142 113.296  0.00  0.00     0.091 C 
ENDROOT
BRANCH   1   7
ATOM      7  O   LIG d   1     -26.958  87.359 113.395  0.00  0.00    -0.368 OA
BRANCH   7   8
ATOM      8  C   LIG d   1     -26.494  88.653 112.938  0.00  0.00     0.119 C 
BRANCH   8   9
ATOM      9  C   LIG d   1     -27.223  89.726 113.770  0.00  0.00     0.028 C 
ATOM     10  C   LIG d   1     -26.291  90.421 114.777  0.00  0.00     0.006 C 
ENDBRANCH   8   9
BRANCH   8  11
ATOM     11  C   LIG d   1     -26.910  88.914 111.487  0.00  0.00     0.028 C 
ATOM     12  C   LIG d   1     -27.472  90.328 111.273  0.00  0.00     0.006 C 
ENDBRANCH   8  11
ENDBRANCH   7   8
ENDBRANCH   1   7
BRANCH   6  13
ATOM     13  N   LIG d   1     -27.112  84.367 113.729  0.00  0.00    -0.311 N 
ATOM     14  C   LIG d   1     -27.811  83.580 112.913  0.00  0.00     0.210 C 
ATOM     15  C   LIG d   1     -29.016  82.888 113.558  0.00  0.00     0.109 C 
ATOM     16  O   LIG d   1     -27.528  83.363 111.725  0.00  0.00    -0.276 OA
ATOM     17  H   LIG d   1     -27.393  84.460 114.685  0.00  0.00     0.149 HD
ENDBRANCH   6  13
BRANCH   5  18
ATOM     18  N   LIG d   1     -24.466  83.137 112.825  0.00  0.00     0.381 N 
ATOM     19  H   LIG d   1     -25.329  82.632 112.855  0.00  0.00    -0.090 HD
ATOM     20  H   LIG d   1     -23.754  82.572 113.253  0.00  0.00    -0.090 HD
ATOM     21  H   LIG d   1     -24.220  83.332 111.879  0.00  0.00    -0.090 HD
ENDBRANCH   5  18
BRANCH   3  22
ATOM     22  C   LIG d   1     -22.316  87.247 114.019  0.00  0.00     0.382 C 
ATOM     23  O   LIG d   1     -22.321  88.252 114.770  0.00  0.00    -0.241 OA
ATOM     24  O   LIG d   1     -21.250  86.884 113.487  0.00  0.00    -0.241 OA
ENDBRANCH   3  22
TORSDOF 7
ENDMDL
MODEL 9
REMARK VINA RESULT:      -4.7     18.774     20.860
REMARK  7 active torsions:
REMARK  status: ('A' for Active; 'I' for Inactive)
REMARK    1  A    between atoms: C_2  and  C_3 
REMARK    2  A    between atoms: C_3  and  O_6 
REMARK    3  A    between atoms: C_3  and  C_4 
REMARK    4  A    between atoms: C_7  and  O_6 
REMARK    5  A    between atoms: C_9  and  C_10 
REMARK    6  A    between atoms: N_15  and  C_14 
REMARK    7  A    between atoms: N_20  and  C_19 
REMARK       I    between atoms: C_22  and  N_20 
ROOT
ATOM      1  C   LIG d   1     -23.993  83.835 113.707  0.00  0.00     0.161 C 
ATOM      2  C   LIG d   1     -23.083  84.876 113.954  0.00  0.00     0.016 C 
ATOM      3  C   LIG d   1     -23.445  86.243 113.956  0.00  0.00     0.038 C 
ATOM      4  C   LIG d   1     -24.782  86.656 113.860  0.00  0.00     0.028 C 
ATOM      5  C   LIG d   1     -25.668  85.669 113.106  0.00  0.00    -0.047 C 
ATOM      6  C   LIG d   1     -25.477  84.260 113.711  0.00  0.00     0.091 C 
ENDROOT
BRANCH   1   7
ATOM      7  O   LIG d   1     -23.776  82.764 114.647  0.00  0.00    -0.368 OA
BRANCH   7   8
ATOM      8  C   LIG d   1     -24.130  83.042 116.024  0.00  0.00     0.119 C 
BRANCH   8   9
ATOM      9  C   LIG d   1     -22.842  82.937 116.863  0.00  0.00     0.028 C 
ATOM     10  C   LIG d   1     -22.668  84.126 117.823  0.00  0.00     0.006 C 
ENDBRANCH   8   9
BRANCH   8  11
ATOM     11  C   LIG d   1     -25.068  81.970 116.585  0.00  0.00     0.028 C 
ATOM     12  C   LIG d   1     -24.646  80.545 116.195  0.00  0.00     0.006 C 
ENDBRANCH   8  11
ENDBRANCH   7   8
ENDBRANCH   1   7
BRANCH   6  13
ATOM     13  N   LIG d   1     -26.243  83.219 112.977  0.00  0.00    -0.311 N 
ATOM     14  C   LIG d   1     -27.281  82.568 113.500  0.00  0.00     0.210 C 
ATOM     15  C   LIG d   1     -27.917  81.520 112.580  0.00  0.00     0.109 C 
ATOM     16  O   LIG d   1     -27.754  82.780 114.626  0.00  0.00    -0.276 OA
ATOM     17  H   LIG d   1     -25.946  83.006 112.045  0.00  0.00     0.149 HD
ENDBRANCH   6  13
BRANCH   5  18
ATOM     18  N   LIG d   1     -27.057  86.155 113.200  0.00  0.00     0.381 N 
ATOM     19  H   LIG d   1     -27.683  85.379 113.284  0.00  0.00    -0.090 HD
ATOM     20  H   LIG d   1     -27.285  86.655 112.359  0.00  0.00    -0.090 HD
ATOM     21  H   LIG d   1     -27.155  86.756 113.989  0.00  0.00    -0.090 HD
ENDBRANCH   5  18
BRANCH   3  22
ATOM     22  C   LIG d   1     -22.458  87.215 114.015  0.00  0.00     0.382 C 
ATOM     23  O   LIG d   1     -21.342  87.009 113.481  0.00  0.00    -0.241 OA
ATOM     24  O   LIG d   1     -22.655  88.279 114.634  0.00  0.00    -0.241 OA
ENDBRANCH   3  22
TORSDOF 7
ENDMDL
