MODEL 1
REMARK VINA RESULT:      -5.9      0.000      0.000
REMARK  7 active torsions:
REMARK  status: ('A' for Active; 'I' for Inactive)
REMARK    1  A    between atoms: C_2  and  C_3 
REMARK    2  A    between atoms: C_3  and  O_6 
REMARK    3  A    between atoms: C_3  and  C_4 
REMARK    4  A    between atoms: C_7  and  O_6 
REMARK    5  A    between atoms: C_9  and  C_10 
REMARK    6  A    between atoms: N_15  and  C_14 
REMARK    7  A    between atoms: N_20  and  C_19 
REMARK       I    between atoms: C_22  and  N_20 
ROOT
ATOM      1  C   LIG d   1       2.710  84.664 110.646  0.00  0.00     0.161 C 
ATOM      2  C   LIG d   1       1.782  85.714 110.749  0.00  0.00     0.016 C 
ATOM      3  C   LIG d   1       0.382  85.522 110.699  0.00  0.00     0.038 C 
ATOM      4  C   LIG d   1      -0.191  84.242 110.694  0.00  0.00     0.028 C 
ATOM      5  C   LIG d   1       0.712  83.176 110.081  0.00  0.00    -0.047 C 
ATOM      6  C   LIG d   1       2.102  83.250 110.752  0.00  0.00     0.091 C 
ENDROOT
BRANCH   1   7
ATOM      7  O   LIG d   1       3.752  84.836 111.627  0.00  0.00    -0.368 OA
BRANCH   7   8
ATOM      8  C   LIG d   1       3.381  85.547 112.834  0.00  0.00     0.119 C 
BRANCH   8   9
ATOM      9  C   LIG d   1       4.394  86.693 113.025  0.00  0.00     0.028 C 
ATOM     10  C   LIG d   1       3.719  88.075 113.046  0.00  0.00     0.006 C 
ENDBRANCH   8   9
BRANCH   8  11
ATOM     11  C   LIG d   1       3.534  84.660 114.073  0.00  0.00     0.028 C 
ATOM     12  C   LIG d   1       2.291  84.681 114.977  0.00  0.00     0.006 C 
ENDBRANCH   8  11
ENDBRANCH   7   8
ENDBRANCH   1   7
BRANCH   6  13
ATOM     13  N   LIG d   1       3.072  82.297 110.152  0.00  0.00    -0.311 N 
ATOM     14  C   LIG d   1       3.909  81.553 110.873  0.00  0.00     0.210 C 
ATOM     15  C   LIG d   1       4.840  80.652 110.055  0.00  0.00     0.109 C 
ATOM     16  O   LIG d   1       3.948  81.530 112.112  0.00  0.00    -0.276 OA
ATOM     17  H   LIG d   1       3.087  82.230 109.153  0.00  0.00     0.149 HD
ENDBRANCH   6  13
BRANCH   5  18
ATOM     18  N   LIG d   1       0.049  81.871 110.265  0.00  0.00     0.381 N 
ATOM     19  H   LIG d   1      -0.458  81.629 109.437  0.00  0.00    -0.090 HD
ATOM     20  H   LIG d   1      -0.603  81.942 111.026  0.00  0.00    -0.090 HD
ATOM     21  H   LIG d   1       0.728  81.170 110.464  0.00  0.00    -0.090 HD
ENDBRANCH   5  18
BRANCH   3  22
ATOM     22  C   LIG d   1      -0.459  86.621 110.613  0.00  0.00     0.382 C 
ATOM     23  O   LIG d   1      -0.120  87.712 111.132  0.00  0.00    -0.241 OA
ATOM     24  O   LIG d   1      -1.572  86.523 110.061  0.00  0.00    -0.241 OA
ENDBRANCH   3  22
TORSDOF 7
ENDMDL
MODEL 2
REMARK VINA RESULT:      -5.5      2.796      4.737
REMARK  7 active torsions:
REMARK  status: ('A' for Active; 'I' for Inactive)
REMARK    1  A    between atoms: C_2  and  C_3 
REMARK    2  A    between atoms: C_3  and  O_6 
REMARK    3  A    between atoms: C_3  and  C_4 
REMARK    4  A    between atoms: C_7  and  O_6 
REMARK    5  A    between atoms: C_9  and  C_10 
REMARK    6  A    between atoms: N_15  and  C_14 
REMARK    7  A    between atoms: N_20  and  C_19 
REMARK       I    between atoms: C_22  and  N_20 
ROOT
ATOM      1  C   LIG d   1       2.347  84.620 113.490  0.00  0.00     0.161 C 
ATOM      2  C   LIG d   1       1.272  83.815 113.079  0.00  0.00     0.016 C 
ATOM      3  C   LIG d   1       0.345  84.203 112.084  0.00  0.00     0.038 C 
ATOM      4  C   LIG d   1       0.520  85.367 111.321  0.00  0.00     0.028 C 
ATOM      5  C   LIG d   1       1.306  86.454 112.046  0.00  0.00    -0.047 C 
ATOM      6  C   LIG d   1       2.618  85.845 112.592  0.00  0.00     0.091 C 
ENDROOT
BRANCH   1   7
ATOM      7  O   LIG d   1       3.537  83.818 113.617  0.00  0.00    -0.368 OA
BRANCH   7   8
ATOM      8  C   LIG d   1       3.514  82.533 112.950  0.00  0.00     0.119 C 
BRANCH   8   9
ATOM      9  C   LIG d   1       4.058  81.486 113.942  0.00  0.00     0.028 C 
ATOM     10  C   LIG d   1       3.251  81.444 115.251  0.00  0.00     0.006 C 
ENDBRANCH   8   9
BRANCH   8  11
ATOM     11  C   LIG d   1       4.480  82.504 111.761  0.00  0.00     0.028 C 
ATOM     12  C   LIG d   1       3.845  83.033 110.466  0.00  0.00     0.006 C 
ENDBRANCH   8  11
ENDBRANCH   7   8
ENDBRANCH   1   7
BRANCH   6  13
ATOM     13  N   LIG d   1       3.408  86.821 113.387  0.00  0.00    -0.311 N 
ATOM     14  C   LIG d   1       4.406  87.543 112.881  0.00  0.00     0.210 C 
ATOM     15  C   LIG d   1       5.102  88.474 113.878  0.00  0.00     0.109 C 
ATOM     16  O   LIG d   1       4.760  87.524 111.692  0.00  0.00    -0.276 OA
ATOM     17  H   LIG d   1       3.167  86.922 114.354  0.00  0.00     0.149 HD
ENDBRANCH   6  13
BRANCH   5  18
ATOM     18  N   LIG d   1       1.532  87.553 111.090  0.00  0.00     0.381 N 
ATOM     19  H   LIG d   1       1.740  87.178 110.186  0.00  0.00    -0.090 HD
ATOM     20  H   LIG d   1       2.323  88.093 111.396  0.00  0.00    -0.090 HD
ATOM     21  H   LIG d   1       0.724  88.133 111.039  0.00  0.00    -0.090 HD
ENDBRANCH   5  18
BRANCH   3  22
ATOM     22  C   LIG d   1      -0.794  83.441 111.872  0.00  0.00     0.382 C 
ATOM     23  O   LIG d   1      -1.173  83.192 110.702  0.00  0.00    -0.241 OA
ATOM     24  O   LIG d   1      -1.473  83.037 112.835  0.00  0.00    -0.241 OA
ENDBRANCH   3  22
TORSDOF 7
ENDMDL
MODEL 3
REMARK VINA RESULT:      -5.4      2.578      4.365
REMARK  7 active torsions:
REMARK  status: ('A' for Active; 'I' for Inactive)
REMARK    1  A    between atoms: C_2  and  C_3 
REMARK    2  A    between atoms: C_3  and  O_6 
REMARK    3  A    between atoms: C_3  and  C_4 
REMARK    4  A    between atoms: C_7  and  O_6 
REMARK    5  A    between atoms: C_9  and  C_10 
REMARK    6  A    between atoms: N_15  and  C_14 
REMARK    7  A    between atoms: N_20  and  C_19 
REMARK       I    between atoms: C_22  and  N_20 
ROOT
ATOM      1  C   LIG d   1       3.349  85.163 112.939  0.00  0.00     0.161 C 
ATOM      2  C   LIG d   1       3.929  86.373 113.357  0.00  0.00     0.016 C 
ATOM      3  C   LIG d   1       3.565  87.633 112.831  0.00  0.00     0.038 C 
ATOM      4  C   LIG d   1       2.482  87.786 111.953  0.00  0.00     0.028 C 
ATOM      5  C   LIG d   1       2.198  86.540 111.120  0.00  0.00    -0.047 C 
ATOM      6  C   LIG d   1       2.089  85.320 112.063  0.00  0.00     0.091 C 
ENDROOT
BRANCH   1   7
ATOM      7  O   LIG d   1       3.063  84.337 114.085  0.00  0.00    -0.368 OA
BRANCH   7   8
ATOM      8  C   LIG d   1       3.855  83.130 114.214  0.00  0.00     0.119 C 
BRANCH   8   9
ATOM      9  C   LIG d   1       4.799  83.064 112.998  0.00  0.00     0.028 C 
ATOM     10  C   LIG d   1       4.667  81.742 112.224  0.00  0.00     0.006 C 
ENDBRANCH   8   9
BRANCH   8  11
ATOM     11  C   LIG d   1       2.981  81.877 114.117  0.00  0.00     0.028 C 
ATOM     12  C   LIG d   1       2.607  81.303 115.493  0.00  0.00     0.006 C 
ENDBRANCH   8  11
ENDBRANCH   7   8
ENDBRANCH   1   7
BRANCH   6  13
ATOM     13  N   LIG d   1       1.895  84.046 111.322  0.00  0.00    -0.311 N 
ATOM     14  C   LIG d   1       0.700  83.504 111.096  0.00  0.00     0.210 C 
ATOM     15  C   LIG d   1       0.726  82.178 110.330  0.00  0.00     0.109 C 
ATOM     16  O   LIG d   1      -0.382  84.012 111.429  0.00  0.00    -0.276 OA
ATOM     17  H   LIG d   1       2.718  83.583 110.989  0.00  0.00     0.149 HD
ENDBRANCH   6  13
BRANCH   5  18
ATOM     18  N   LIG d   1       0.964  86.790 110.352  0.00  0.00     0.381 N 
ATOM     19  H   LIG d   1       1.177  86.841 109.376  0.00  0.00    -0.090 HD
ATOM     20  H   LIG d   1       0.576  87.672 110.637  0.00  0.00    -0.090 HD
ATOM     21  H   LIG d   1       0.305  86.060 110.518  0.00  0.00    -0.090 HD
ENDBRANCH   5  18
BRANCH   3  22
ATOM     22  C   LIG d   1       4.315  88.755 113.153  0.00  0.00     0.382 C 
ATOM     23  O   LIG d   1       3.772  89.727 113.730  0.00  0.00    -0.241 OA
ATOM     24  O   LIG d   1       5.517  88.824 112.833  0.00  0.00    -0.241 OA
ENDBRANCH   3  22
TORSDOF 7
ENDMDL
MODEL 4
REMARK VINA RESULT:      -5.3      2.704      4.718
REMARK  7 active torsions:
REMARK  status: ('A' for Active; 'I' for Inactive)
REMARK    1  A    between atoms: C_2  and  C_3 
REMARK    2  A    between atoms: C_3  and  O_6 
REMARK    3  A    between atoms: C_3  and  C_4 
REMARK    4  A    between atoms: C_7  and  O_6 
REMARK    5  A    between atoms: C_9  and  C_10 
REMARK    6  A    between atoms: N_15  and  C_14 
REMARK    7  A    between atoms: N_20  and  C_19 
REMARK       I    between atoms: C_22  and  N_20 
ROOT
ATOM      1  C   LIG d   1       2.035  83.521 111.989  0.00  0.00     0.161 C 
ATOM      2  C   LIG d   1       1.060  82.517 111.871  0.00  0.00     0.016 C 
ATOM      3  C   LIG d   1      -0.328  82.783 111.816  0.00  0.00     0.038 C 
ATOM      4  C   LIG d   1      -0.830  84.089 111.722  0.00  0.00     0.028 C 
ATOM      5  C   LIG d   1       0.087  85.136 112.346  0.00  0.00    -0.047 C 
ATOM      6  C   LIG d   1       1.513  84.958 111.776  0.00  0.00     0.091 C 
ENDROOT
BRANCH   1   7
ATOM      7  O   LIG d   1       3.129  83.248 111.092  0.00  0.00    -0.368 OA
BRANCH   7   8
ATOM      8  C   LIG d   1       4.396  82.921 111.713  0.00  0.00     0.119 C 
BRANCH   8   9
ATOM      9  C   LIG d   1       4.759  81.483 111.296  0.00  0.00     0.028 C 
ATOM     10  C   LIG d   1       3.978  81.017 110.055  0.00  0.00     0.006 C 
ENDBRANCH   8   9
BRANCH   8  11
ATOM     11  C   LIG d   1       4.275  82.882 113.239  0.00  0.00     0.028 C 
ATOM     12  C   LIG d   1       4.343  81.455 113.806  0.00  0.00     0.006 C 
ENDBRANCH   8  11
ENDBRANCH   7   8
ENDBRANCH   1   7
BRANCH   6  13
ATOM     13  N   LIG d   1       2.491  85.889 112.397  0.00  0.00    -0.311 N 
ATOM     14  C   LIG d   1       2.726  87.118 111.940  0.00  0.00     0.210 C 
ATOM     15  C   LIG d   1       3.788  87.904 112.715  0.00  0.00     0.109 C 
ATOM     16  O   LIG d   1       2.131  87.643 110.987  0.00  0.00    -0.276 OA
ATOM     17  H   LIG d   1       2.996  85.554 113.195  0.00  0.00     0.149 HD
ENDBRANCH   6  13
BRANCH   5  18
ATOM     18  N   LIG d   1      -0.490  86.463 112.056  0.00  0.00     0.381 N 
ATOM     19  H   LIG d   1       0.058  87.174 112.498  0.00  0.00    -0.090 HD
ATOM     20  H   LIG d   1      -1.420  86.502 112.432  0.00  0.00    -0.090 HD
ATOM     21  H   LIG d   1      -0.515  86.616 111.072  0.00  0.00    -0.090 HD
ENDBRANCH   5  18
BRANCH   3  22
ATOM     22  C   LIG d   1      -1.232  81.734 111.894  0.00  0.00     0.382 C 
ATOM     23  O   LIG d   1      -0.884  80.579 111.548  0.00  0.00    -0.241 OA
ATOM     24  O   LIG d   1      -2.404  81.937 112.265  0.00  0.00    -0.241 OA
ENDBRANCH   3  22
TORSDOF 7
ENDMDL
MODEL 5
REMARK VINA RESULT:      -5.2     25.417     28.284
REMARK  7 active torsions:
REMARK  status: ('A' for Active; 'I' for Inactive)
REMARK    1  A    between atoms: C_2  and  C_3 
REMARK    2  A    between atoms: C_3  and  O_6 
REMARK    3  A    between atoms: C_3  and  C_4 
REMARK    4  A    between atoms: C_7  and  O_6 
REMARK    5  A    between atoms: C_9  and  C_10 
REMARK    6  A    between atoms: N_15  and  C_14 
REMARK    7  A    between atoms: N_20  and  C_19 
REMARK       I    between atoms: C_22  and  N_20 
ROOT
ATOM      1  C   LIG d   1     -25.792  85.473 113.362  0.00  0.00     0.161 C 
ATOM      2  C   LIG d   1     -24.741  86.404 113.414  0.00  0.00     0.016 C 
ATOM      3  C   LIG d   1     -23.392  86.042 113.639  0.00  0.00     0.038 C 
ATOM      4  C   LIG d   1     -22.980  84.702 113.676  0.00  0.00     0.028 C 
ATOM      5  C   LIG d   1     -24.076  83.744 114.132  0.00  0.00    -0.047 C 
ATOM      6  C   LIG d   1     -25.347  83.998 113.289  0.00  0.00     0.091 C 
ENDROOT
BRANCH   1   7
ATOM      7  O   LIG d   1     -26.667  85.787 112.260  0.00  0.00    -0.368 OA
BRANCH   7   8
ATOM      8  C   LIG d   1     -27.823  86.602 112.577  0.00  0.00     0.119 C 
BRANCH   8   9
ATOM      9  C   LIG d   1     -29.065  85.693 112.500  0.00  0.00     0.028 C 
ATOM     10  C   LIG d   1     -29.356  85.218 111.066  0.00  0.00     0.006 C 
ENDBRANCH   8   9
BRANCH   8  11
ATOM     11  C   LIG d   1     -28.047  87.686 111.519  0.00  0.00     0.028 C 
ATOM     12  C   LIG d   1     -27.043  88.845 111.630  0.00  0.00     0.006 C 
ENDBRANCH   8  11
ENDBRANCH   7   8
ENDBRANCH   1   7
BRANCH   6  13
ATOM     13  N   LIG d   1     -26.494  83.160 113.726  0.00  0.00    -0.311 N 
ATOM     14  C   LIG d   1     -27.291  82.509 112.880  0.00  0.00     0.210 C 
ATOM     15  C   LIG d   1     -28.426  81.719 113.539  0.00  0.00     0.109 C 
ATOM     16  O   LIG d   1     -27.146  82.485 111.649  0.00  0.00    -0.276 OA
ATOM     17  H   LIG d   1     -26.665  83.099 114.711  0.00  0.00     0.149 HD
ENDBRANCH   6  13
BRANCH   5  18
ATOM     18  N   LIG d   1     -23.554  82.371 113.992  0.00  0.00     0.381 N 
ATOM     19  H   LIG d   1     -22.820  82.218 114.654  0.00  0.00    -0.090 HD
ATOM     20  H   LIG d   1     -23.174  82.260 113.068  0.00  0.00    -0.090 HD
ATOM     21  H   LIG d   1     -24.286  81.711 114.138  0.00  0.00    -0.090 HD
ENDBRANCH   5  18
BRANCH   3  22
ATOM     22  C   LIG d   1     -22.446  87.029 113.870  0.00  0.00     0.382 C 
ATOM     23  O   LIG d   1     -22.675  87.935 114.707  0.00  0.00    -0.241 OA
ATOM     24  O   LIG d   1     -21.383  87.049 113.219  0.00  0.00    -0.241 OA
ENDBRANCH   3  22
TORSDOF 7
ENDMDL
MODEL 6
REMARK VINA RESULT:      -5.2      2.738      4.801
REMARK  7 active torsions:
REMARK  status: ('A' for Active; 'I' for Inactive)
REMARK    1  A    between atoms: C_2  and  C_3 
REMARK    2  A    between atoms: C_3  and  O_6 
REMARK    3  A    between atoms: C_3  and  C_4 
REMARK    4  A    between atoms: C_7  and  O_6 
REMARK    5  A    between atoms: C_9  and  C_10 
REMARK    6  A    between atoms: N_15  and  C_14 
REMARK    7  A    between atoms: N_20  and  C_19 
REMARK       I    between atoms: C_22  and  N_20 
ROOT
ATOM      1  C   LIG d   1       3.141  85.671 111.457  0.00  0.00     0.161 C 
ATOM      2  C   LIG d   1       4.008  86.735 111.757  0.00  0.00     0.016 C 
ATOM      3  C   LIG d   1       3.890  87.529 112.921  0.00  0.00     0.038 C 
ATOM      4  C   LIG d   1       2.984  87.216 113.944  0.00  0.00     0.028 C 
ATOM      5  C   LIG d   1       1.754  86.458 113.453  0.00  0.00    -0.047 C 
ATOM      6  C   LIG d   1       2.215  85.244 112.615  0.00  0.00     0.091 C 
ENDROOT
BRANCH   1   7
ATOM      7  O   LIG d   1       3.900  84.542 110.980  0.00  0.00    -0.368 OA
BRANCH   7   8
ATOM      8  C   LIG d   1       3.583  83.262 111.580  0.00  0.00     0.119 C 
BRANCH   8   9
ATOM      9  C   LIG d   1       4.722  82.916 112.559  0.00  0.00     0.028 C 
ATOM     10  C   LIG d   1       4.242  82.049 113.735  0.00  0.00     0.006 C 
ENDBRANCH   8   9
BRANCH   8  11
ATOM     11  C   LIG d   1       3.590  82.140 110.537  0.00  0.00     0.028 C 
ATOM     12  C   LIG d   1       5.008  81.757 110.083  0.00  0.00     0.006 C 
ENDBRANCH   8  11
ENDBRANCH   7   8
ENDBRANCH   1   7
BRANCH   6  13
ATOM     13  N   LIG d   1       1.074  84.496 112.026  0.00  0.00    -0.311 N 
ATOM     14  C   LIG d   1       0.487  83.462 112.626  0.00  0.00     0.210 C 
ATOM     15  C   LIG d   1      -0.659  82.821 111.836  0.00  0.00     0.109 C 
ATOM     16  O   LIG d   1       0.785  83.035 113.751  0.00  0.00    -0.276 OA
ATOM     17  H   LIG d   1       0.747  84.796 111.128  0.00  0.00     0.149 HD
ENDBRANCH   6  13
BRANCH   5  18
ATOM     18  N   LIG d   1       0.964  86.076 114.638  0.00  0.00     0.381 N 
ATOM     19  H   LIG d   1       1.563  85.672 115.330  0.00  0.00    -0.090 HD
ATOM     20  H   LIG d   1       0.285  85.386 114.368  0.00  0.00    -0.090 HD
ATOM     21  H   LIG d   1       0.503  86.876 115.014  0.00  0.00    -0.090 HD
ENDBRANCH   5  18
BRANCH   3  22
ATOM     22  C   LIG d   1       4.660  88.675 113.051  0.00  0.00     0.382 C 
ATOM     23  O   LIG d   1       4.106  89.782 113.255  0.00  0.00    -0.241 OA
ATOM     24  O   LIG d   1       5.898  88.623 112.923  0.00  0.00    -0.241 OA
ENDBRANCH   3  22
TORSDOF 7
ENDMDL
MODEL 7
REMARK VINA RESULT:      -5.2      2.435      4.271
REMARK  7 active torsions:
REMARK  status: ('A' for Active; 'I' for Inactive)
REMARK    1  A    between atoms: C_2  and  C_3 
REMARK    2  A    between atoms: C_3  and  O_6 
REMARK    3  A    between atoms: C_3  and  C_4 
REMARK    4  A    between atoms: C_7  and  O_6 
REMARK    5  A    between atoms: C_9  and  C_10 
REMARK    6  A    between atoms: N_15  and  C_14 
REMARK    7  A    between atoms: N_20  and  C_19 
REMARK       I    between atoms: C_22  and  N_20 
ROOT
ATOM      1  C   LIG d   1       3.537  85.130 112.658  0.00  0.00     0.161 C 
ATOM      2  C   LIG d   1       4.129  86.331 113.084  0.00  0.00     0.016 C 
ATOM      3  C   LIG d   1       3.667  87.608 112.690  0.00  0.00     0.038 C 
ATOM      4  C   LIG d   1       2.481  87.775 111.960  0.00  0.00     0.028 C 
ATOM      5  C   LIG d   1       2.133  86.575 111.086  0.00  0.00    -0.047 C 
ATOM      6  C   LIG d   1       2.175  85.295 111.952  0.00  0.00     0.091 C 
ENDROOT
BRANCH   1   7
ATOM      7  O   LIG d   1       3.416  84.223 113.772  0.00  0.00    -0.368 OA
BRANCH   7   8
ATOM      8  C   LIG d   1       3.446  84.824 115.090  0.00  0.00     0.119 C 
BRANCH   8   9
ATOM      9  C   LIG d   1       4.238  83.878 116.013  0.00  0.00     0.028 C 
ATOM     10  C   LIG d   1       3.335  83.157 117.028  0.00  0.00     0.006 C 
ENDBRANCH   8   9
BRANCH   8  11
ATOM     11  C   LIG d   1       2.043  84.903 115.698  0.00  0.00     0.028 C 
ATOM     12  C   LIG d   1       1.461  86.326 115.670  0.00  0.00     0.006 C 
ENDBRANCH   8  11
ENDBRANCH   7   8
ENDBRANCH   1   7
BRANCH   6  13
ATOM     13  N   LIG d   1       1.929  84.065 111.156  0.00  0.00    -0.311 N 
ATOM     14  C   LIG d   1       0.728  83.503 111.026  0.00  0.00     0.210 C 
ATOM     15  C   LIG d   1       0.698  82.228 110.178  0.00  0.00     0.109 C 
ATOM     16  O   LIG d   1      -0.321  83.958 111.506  0.00  0.00    -0.276 OA
ATOM     17  H   LIG d   1       2.720  83.646 110.706  0.00  0.00     0.149 HD
ENDBRANCH   6  13
BRANCH   5  18
ATOM     18  N   LIG d   1       0.808  86.828 110.490  0.00  0.00     0.381 N 
ATOM     19  H   LIG d   1       0.102  86.365 111.026  0.00  0.00    -0.090 HD
ATOM     20  H   LIG d   1       0.794  86.451 109.558  0.00  0.00    -0.090 HD
ATOM     21  H   LIG d   1       0.627  87.807 110.463  0.00  0.00    -0.090 HD
ENDBRANCH   5  18
BRANCH   3  22
ATOM     22  C   LIG d   1       4.418  88.733 112.994  0.00  0.00     0.382 C 
ATOM     23  O   LIG d   1       5.670  88.688 112.930  0.00  0.00    -0.241 OA
ATOM     24  O   LIG d   1       3.861  89.781 113.374  0.00  0.00    -0.241 OA
ENDBRANCH   3  22
TORSDOF 7
ENDMDL
MODEL 8
REMARK VINA RESULT:      -5.1      2.689      3.969
REMARK  7 active torsions:
REMARK  status: ('A' for Active; 'I' for Inactive)
REMARK    1  A    between atoms: C_2  and  C_3 
REMARK    2  A    between atoms: C_3  and  O_6 
REMARK    3  A    between atoms: C_3  and  C_4 
REMARK    4  A    between atoms: C_7  and  O_6 
REMARK    5  A    between atoms: C_9  and  C_10 
REMARK    6  A    between atoms: N_15  and  C_14 
REMARK    7  A    between atoms: N_20  and  C_19 
REMARK       I    between atoms: C_22  and  N_20 
ROOT
ATOM      1  C   LIG d   1       1.589  83.968 113.243  0.00  0.00     0.161 C 
ATOM      2  C   LIG d   1       2.130  85.256 113.092  0.00  0.00     0.016 C 
ATOM      3  C   LIG d   1       1.723  86.158 112.082  0.00  0.00     0.038 C 
ATOM      4  C   LIG d   1       0.632  85.888 111.243  0.00  0.00     0.028 C 
ATOM      5  C   LIG d   1       0.385  84.398 111.030  0.00  0.00    -0.047 C 
ATOM      6  C   LIG d   1       0.320  83.699 112.407  0.00  0.00     0.091 C 
ENDROOT
BRANCH   1   7
ATOM      7  O   LIG d   1       1.335  83.706 114.637  0.00  0.00    -0.368 OA
BRANCH   7   8
ATOM      8  C   LIG d   1       2.453  83.903 115.537  0.00  0.00     0.119 C 
BRANCH   8   9
ATOM      9  C   LIG d   1       3.023  82.513 115.879  0.00  0.00     0.028 C 
ATOM     10  C   LIG d   1       3.969  82.548 117.091  0.00  0.00     0.006 C 
ENDBRANCH   8   9
BRANCH   8  11
ATOM     11  C   LIG d   1       1.996  84.494 116.873  0.00  0.00     0.028 C 
ATOM     12  C   LIG d   1       1.699  86.000 116.788  0.00  0.00     0.006 C 
ENDBRANCH   8  11
ENDBRANCH   7   8
ENDBRANCH   1   7
BRANCH   6  13
ATOM     13  N   LIG d   1       0.165  82.225 112.287  0.00  0.00    -0.311 N 
ATOM     14  C   LIG d   1      -1.017  81.614 112.230  0.00  0.00     0.210 C 
ATOM     15  C   LIG d   1      -0.951  80.087 112.128  0.00  0.00     0.109 C 
ATOM     16  O   LIG d   1      -2.113  82.195 112.222  0.00  0.00    -0.276 OA
ATOM     17  H   LIG d   1       1.004  81.680 112.255  0.00  0.00     0.149 HD
ENDBRANCH   6  13
BRANCH   5  18
ATOM     18  N   LIG d   1      -0.860  84.260 110.251  0.00  0.00     0.381 N 
ATOM     19  H   LIG d   1      -1.387  85.108 110.302  0.00  0.00    -0.090 HD
ATOM     20  H   LIG d   1      -1.412  83.521 110.650  0.00  0.00    -0.090 HD
ATOM     21  H   LIG d   1      -0.646  84.048 109.301  0.00  0.00    -0.090 HD
ENDBRANCH   5  18
BRANCH   3  22
ATOM     22  C   LIG d   1       2.436  87.329 111.879  0.00  0.00     0.382 C 
ATOM     23  O   LIG d   1       1.831  88.424 111.787  0.00  0.00    -0.241 OA
ATOM     24  O   LIG d   1       3.674  87.299 111.742  0.00  0.00    -0.241 OA
ENDBRANCH   3  22
TORSDOF 7
ENDMDL
MODEL 9
REMARK VINA RESULT:      -5.0      2.953      5.245
REMARK  7 active torsions:
REMARK  status: ('A' for Active; 'I' for Inactive)
REMARK    1  A    between atoms: C_2  and  C_3 
REMARK    2  A    between atoms: C_3  and  O_6 
REMARK    3  A    between atoms: C_3  and  C_4 
REMARK    4  A    between atoms: C_7  and  O_6 
REMARK    5  A    between atoms: C_9  and  C_10 
REMARK    6  A    between atoms: N_15  and  C_14 
REMARK    7  A    between atoms: N_20  and  C_19 
REMARK       I    between atoms: C_22  and  N_20 
ROOT
ATOM      1  C   LIG d   1       2.926  86.018 113.042  0.00  0.00     0.161 C 
ATOM      2  C   LIG d   1       3.245  87.386 113.008  0.00  0.00     0.016 C 
ATOM      3  C   LIG d   1       3.956  88.045 114.037  0.00  0.00     0.038 C 
ATOM      4  C   LIG d   1       4.532  87.344 115.107  0.00  0.00     0.028 C 
ATOM      5  C   LIG d   1       3.806  86.046 115.441  0.00  0.00    -0.047 C 
ATOM      6  C   LIG d   1       3.643  85.215 114.148  0.00  0.00     0.091 C 
ENDROOT
BRANCH   1   7
ATOM      7  O   LIG d   1       3.175  85.427 111.752  0.00  0.00    -0.368 OA
BRANCH   7   8
ATOM      8  C   LIG d   1       2.009  84.961 111.028  0.00  0.00     0.119 C 
BRANCH   8   9
ATOM      9  C   LIG d   1       2.477  83.860 110.057  0.00  0.00     0.028 C 
ATOM     10  C   LIG d   1       2.381  82.454 110.673  0.00  0.00     0.006 C 
ENDBRANCH   8   9
BRANCH   8  11
ATOM     11  C   LIG d   1       1.427  86.065 110.141  0.00  0.00     0.028 C 
ATOM     12  C   LIG d   1      -0.091  86.230 110.315  0.00  0.00     0.006 C 
ENDBRANCH   8  11
ENDBRANCH   7   8
ENDBRANCH   1   7
BRANCH   6  13
ATOM     13  N   LIG d   1       2.868  83.966 114.370  0.00  0.00    -0.311 N 
ATOM     14  C   LIG d   1       3.396  82.748 114.270  0.00  0.00     0.210 C 
ATOM     15  C   LIG d   1       2.417  81.596 114.519  0.00  0.00     0.109 C 
ATOM     16  O   LIG d   1       4.590  82.512 114.030  0.00  0.00    -0.276 OA
ATOM     17  H   LIG d   1       1.898  84.066 114.600  0.00  0.00     0.149 HD
ENDBRANCH   6  13
BRANCH   5  18
ATOM     18  N   LIG d   1       4.590  85.351 116.479  0.00  0.00     0.381 N 
ATOM     19  H   LIG d   1       5.342  85.936 116.784  0.00  0.00    -0.090 HD
ATOM     20  H   LIG d   1       4.981  84.514 116.085  0.00  0.00    -0.090 HD
ATOM     21  H   LIG d   1       4.005  85.121 117.252  0.00  0.00    -0.090 HD
ENDBRANCH   5  18
BRANCH   3  22
ATOM     22  C   LIG d   1       4.062  89.428 114.022  0.00  0.00     0.382 C 
ATOM     23  O   LIG d   1       3.884  90.082 115.078  0.00  0.00    -0.241 OA
ATOM     24  O   LIG d   1       4.290  90.033 112.957  0.00  0.00    -0.241 OA
ENDBRANCH   3  22
TORSDOF 7
ENDMDL
