MODEL 1
REMARK VINA RESULT:      -5.4      0.000      0.000
REMARK  7 active torsions:
REMARK  status: ('A' for Active; 'I' for Inactive)
REMARK    1  A    between atoms: C_2  and  C_3 
REMARK    2  A    between atoms: C_3  and  O_6 
REMARK    3  A    between atoms: C_3  and  C_4 
REMARK    4  A    between atoms: C_7  and  O_6 
REMARK    5  A    between atoms: C_9  and  C_10 
REMARK    6  A    between atoms: N_15  and  C_14 
REMARK    7  A    between atoms: N_20  and  C_19 
REMARK       I    between atoms: C_22  and  N_20 
ROOT
ATOM      1  C   LIG d   1      -0.073  82.816 110.831  0.00  0.00     0.161 C 
ATOM      2  C   LIG d   1      -1.348  82.598 111.379  0.00  0.00     0.016 C 
ATOM      3  C   LIG d   1      -1.563  81.957 112.620  0.00  0.00     0.038 C 
ATOM      4  C   LIG d   1      -0.502  81.622 113.475  0.00  0.00     0.028 C 
ATOM      5  C   LIG d   1       0.809  81.366 112.741  0.00  0.00    -0.047 C 
ATOM      6  C   LIG d   1       1.100  82.557 111.800  0.00  0.00     0.091 C 
ENDROOT
BRANCH   1   7
ATOM      7  O   LIG d   1       0.007  84.150 110.293  0.00  0.00    -0.368 OA
BRANCH   7   8
ATOM      8  C   LIG d   1       0.579  85.156 111.164  0.00  0.00     0.119 C 
BRANCH   8   9
ATOM      9  C   LIG d   1      -0.583  86.001 111.722  0.00  0.00     0.028 C 
ATOM     10  C   LIG d   1      -1.316  86.788 110.622  0.00  0.00     0.006 C 
ENDBRANCH   8   9
BRANCH   8  11
ATOM     11  C   LIG d   1       1.456  86.138 110.382  0.00  0.00     0.028 C 
ATOM     12  C   LIG d   1       2.522  86.814 111.259  0.00  0.00     0.006 C 
ENDBRANCH   8  11
ENDBRANCH   7   8
ENDBRANCH   1   7
BRANCH   6  13
ATOM     13  N   LIG d   1       2.322  82.349 110.982  0.00  0.00    -0.311 N 
ATOM     14  C   LIG d   1       3.515  82.845 111.306  0.00  0.00     0.210 C 
ATOM     15  C   LIG d   1       4.638  82.528 110.313  0.00  0.00     0.109 C 
ATOM     16  O   LIG d   1       3.756  83.490 112.337  0.00  0.00    -0.276 OA
ATOM     17  H   LIG d   1       2.224  81.810 110.144  0.00  0.00     0.149 HD
ENDBRANCH   6  13
BRANCH   5  18
ATOM     18  N   LIG d   1       1.858  81.164 113.759  0.00  0.00     0.381 N 
ATOM     19  H   LIG d   1       1.479  81.324 114.671  0.00  0.00    -0.090 HD
ATOM     20  H   LIG d   1       2.595  81.829 113.603  0.00  0.00    -0.090 HD
ATOM     21  H   LIG d   1       2.218  80.237 113.699  0.00  0.00    -0.090 HD
ENDBRANCH   5  18
BRANCH   3  22
ATOM     22  C   LIG d   1      -2.850  81.608 113.000  0.00  0.00     0.382 C 
ATOM     23  O   LIG d   1      -3.397  80.594 112.503  0.00  0.00    -0.241 OA
ATOM     24  O   LIG d   1      -3.488  82.319 113.799  0.00  0.00    -0.241 OA
ENDBRANCH   3  22
TORSDOF 7
ENDMDL
MODEL 2
REMARK VINA RESULT:      -5.2      2.695      5.683
REMARK  7 active torsions:
REMARK  status: ('A' for Active; 'I' for Inactive)
REMARK    1  A    between atoms: C_2  and  C_3 
REMARK    2  A    between atoms: C_3  and  O_6 
REMARK    3  A    between atoms: C_3  and  C_4 
REMARK    4  A    between atoms: C_7  and  O_6 
REMARK    5  A    between atoms: C_9  and  C_10 
REMARK    6  A    between atoms: N_15  and  C_14 
REMARK    7  A    between atoms: N_20  and  C_19 
REMARK       I    between atoms: C_22  and  N_20 
ROOT
ATOM      1  C   LIG d   1      -0.332  84.285 112.954  0.00  0.00     0.161 C 
ATOM      2  C   LIG d   1       0.525  85.165 112.272  0.00  0.00     0.016 C 
ATOM      3  C   LIG d   1       1.005  84.926 110.964  0.00  0.00     0.038 C 
ATOM      4  C   LIG d   1       0.538  83.856 110.186  0.00  0.00     0.028 C 
ATOM      5  C   LIG d   1       0.062  82.668 111.015  0.00  0.00    -0.047 C 
ATOM      6  C   LIG d   1      -0.940  83.168 112.080  0.00  0.00     0.091 C 
ENDROOT
BRANCH   1   7
ATOM      7  O   LIG d   1      -1.375  85.030 113.612  0.00  0.00    -0.368 OA
BRANCH   7   8
ATOM      8  C   LIG d   1      -1.162  85.319 115.016  0.00  0.00     0.119 C 
BRANCH   8   9
ATOM      9  C   LIG d   1      -0.151  84.288 115.553  0.00  0.00     0.028 C 
ATOM     10  C   LIG d   1       0.914  84.927 116.460  0.00  0.00     0.006 C 
ENDBRANCH   8   9
BRANCH   8  11
ATOM     11  C   LIG d   1      -2.440  85.096 115.831  0.00  0.00     0.028 C 
ATOM     12  C   LIG d   1      -2.759  83.608 116.044  0.00  0.00     0.006 C 
ENDBRANCH   8  11
ENDBRANCH   7   8
ENDBRANCH   1   7
BRANCH   6  13
ATOM     13  N   LIG d   1      -1.391  82.081 112.989  0.00  0.00    -0.311 N 
ATOM     14  C   LIG d   1      -2.554  81.447 112.852  0.00  0.00     0.210 C 
ATOM     15  C   LIG d   1      -2.833  80.373 113.908  0.00  0.00     0.109 C 
ATOM     16  O   LIG d   1      -3.367  81.649 111.937  0.00  0.00    -0.276 OA
ATOM     17  H   LIG d   1      -0.778  81.832 113.740  0.00  0.00     0.149 HD
ENDBRANCH   6  13
BRANCH   5  18
ATOM     18  N   LIG d   1      -0.524  81.683 110.086  0.00  0.00     0.381 N 
ATOM     19  H   LIG d   1       0.143  81.445 109.380  0.00  0.00    -0.090 HD
ATOM     20  H   LIG d   1      -1.324  82.095 109.639  0.00  0.00    -0.090 HD
ATOM     21  H   LIG d   1      -0.797  80.865 110.585  0.00  0.00    -0.090 HD
ENDBRANCH   5  18
BRANCH   3  22
ATOM     22  C   LIG d   1       1.995  85.742 110.435  0.00  0.00     0.382 C 
ATOM     23  O   LIG d   1       3.081  85.243 110.056  0.00  0.00    -0.241 OA
ATOM     24  O   LIG d   1       1.831  86.975 110.375  0.00  0.00    -0.241 OA
ENDBRANCH   3  22
TORSDOF 7
ENDMDL
MODEL 3
REMARK VINA RESULT:      -5.1      7.708     10.716
REMARK  7 active torsions:
REMARK  status: ('A' for Active; 'I' for Inactive)
REMARK    1  A    between atoms: C_2  and  C_3 
REMARK    2  A    between atoms: C_3  and  O_6 
REMARK    3  A    between atoms: C_3  and  C_4 
REMARK    4  A    between atoms: C_7  and  O_6 
REMARK    5  A    between atoms: C_9  and  C_10 
REMARK    6  A    between atoms: N_15  and  C_14 
REMARK    7  A    between atoms: N_20  and  C_19 
REMARK       I    between atoms: C_22  and  N_20 
ROOT
ATOM      1  C   LIG d   1      -4.370  75.723 116.550  0.00  0.00     0.161 C 
ATOM      2  C   LIG d   1      -5.236  74.672 116.895  0.00  0.00     0.016 C 
ATOM      3  C   LIG d   1      -6.111  74.050 115.974  0.00  0.00     0.038 C 
ATOM      4  C   LIG d   1      -6.069  74.338 114.602  0.00  0.00     0.028 C 
ATOM      5  C   LIG d   1      -5.568  75.745 114.293  0.00  0.00    -0.047 C 
ATOM      6  C   LIG d   1      -4.232  75.975 115.034  0.00  0.00     0.091 C 
ENDROOT
BRANCH   1   7
ATOM      7  O   LIG d   1      -3.075  75.503 117.142  0.00  0.00    -0.368 OA
BRANCH   7   8
ATOM      8  C   LIG d   1      -2.347  74.342 116.670  0.00  0.00     0.119 C 
BRANCH   8   9
ATOM      9  C   LIG d   1      -1.593  73.747 117.875  0.00  0.00     0.028 C 
ATOM     10  C   LIG d   1      -0.397  74.614 118.305  0.00  0.00     0.006 C 
ENDBRANCH   8   9
BRANCH   8  11
ATOM     11  C   LIG d   1      -1.260  74.736 115.665  0.00  0.00     0.028 C 
ATOM     12  C   LIG d   1      -1.186  73.782 114.463  0.00  0.00     0.006 C 
ENDBRANCH   8  11
ENDBRANCH   7   8
ENDBRANCH   1   7
BRANCH   6  13
ATOM     13  N   LIG d   1      -3.715  77.357 114.854  0.00  0.00    -0.311 N 
ATOM     14  C   LIG d   1      -2.840  77.695 113.907  0.00  0.00     0.210 C 
ATOM     15  C   LIG d   1      -2.423  79.169 113.910  0.00  0.00     0.109 C 
ATOM     16  O   LIG d   1      -2.395  76.921 113.047  0.00  0.00    -0.276 OA
ATOM     17  H   LIG d   1      -4.047  78.055 115.490  0.00  0.00     0.149 HD
ENDBRANCH   6  13
BRANCH   5  18
ATOM     18  N   LIG d   1      -5.445  75.862 112.828  0.00  0.00     0.381 N 
ATOM     19  H   LIG d   1      -4.672  76.455 112.599  0.00  0.00    -0.090 HD
ATOM     20  H   LIG d   1      -6.282  76.282 112.464  0.00  0.00    -0.090 HD
ATOM     21  H   LIG d   1      -5.313  74.962 112.423  0.00  0.00    -0.090 HD
ENDBRANCH   5  18
BRANCH   3  22
ATOM     22  C   LIG d   1      -7.067  73.156 116.431  0.00  0.00     0.382 C 
ATOM     23  O   LIG d   1      -7.820  73.476 117.382  0.00  0.00    -0.241 OA
ATOM     24  O   LIG d   1      -7.157  72.018 115.933  0.00  0.00    -0.241 OA
ENDBRANCH   3  22
TORSDOF 7
ENDMDL
MODEL 4
REMARK VINA RESULT:      -5.0      3.109      4.298
REMARK  7 active torsions:
REMARK  status: ('A' for Active; 'I' for Inactive)
REMARK    1  A    between atoms: C_2  and  C_3 
REMARK    2  A    between atoms: C_3  and  O_6 
REMARK    3  A    between atoms: C_3  and  C_4 
REMARK    4  A    between atoms: C_7  and  O_6 
REMARK    5  A    between atoms: C_9  and  C_10 
REMARK    6  A    between atoms: N_15  and  C_14 
REMARK    7  A    between atoms: N_20  and  C_19 
REMARK       I    between atoms: C_22  and  N_20 
ROOT
ATOM      1  C   LIG d   1       1.910  84.189 113.248  0.00  0.00     0.161 C 
ATOM      2  C   LIG d   1       0.950  83.529 112.463  0.00  0.00     0.016 C 
ATOM      3  C   LIG d   1      -0.439  83.775 112.561  0.00  0.00     0.038 C 
ATOM      4  C   LIG d   1      -0.954  84.814 113.350  0.00  0.00     0.028 C 
ATOM      5  C   LIG d   1      -0.067  85.169 114.539  0.00  0.00    -0.047 C 
ATOM      6  C   LIG d   1       1.376  85.404 114.036  0.00  0.00     0.091 C 
ENDROOT
BRANCH   1   7
ATOM      7  O   LIG d   1       3.030  84.577 112.428  0.00  0.00    -0.368 OA
BRANCH   7   8
ATOM      8  C   LIG d   1       2.735  85.471 111.328  0.00  0.00     0.119 C 
BRANCH   8   9
ATOM      9  C   LIG d   1       3.351  84.859 110.055  0.00  0.00     0.028 C 
ATOM     10  C   LIG d   1       4.030  83.505 110.325  0.00  0.00     0.006 C 
ENDBRANCH   8   9
BRANCH   8  11
ATOM     11  C   LIG d   1       3.433  86.823 111.506  0.00  0.00     0.028 C 
ATOM     12  C   LIG d   1       4.688  86.733 112.388  0.00  0.00     0.006 C 
ENDBRANCH   8  11
ENDBRANCH   7   8
ENDBRANCH   1   7
BRANCH   6  13
ATOM     13  N   LIG d   1       2.327  85.674 115.146  0.00  0.00    -0.311 N 
ATOM     14  C   LIG d   1       2.671  86.900 115.535  0.00  0.00     0.210 C 
ATOM     15  C   LIG d   1       3.681  86.954 116.685  0.00  0.00     0.109 C 
ATOM     16  O   LIG d   1       2.211  87.949 115.058  0.00  0.00    -0.276 OA
ATOM     17  H   LIG d   1       2.724  84.880 115.609  0.00  0.00     0.149 HD
ENDBRANCH   6  13
BRANCH   5  18
ATOM     18  N   LIG d   1      -0.651  86.354 115.194  0.00  0.00     0.381 N 
ATOM     19  H   LIG d   1      -0.408  86.359 116.164  0.00  0.00    -0.090 HD
ATOM     20  H   LIG d   1      -1.652  86.305 115.120  0.00  0.00    -0.090 HD
ATOM     21  H   LIG d   1      -0.319  87.184 114.756  0.00  0.00    -0.090 HD
ENDBRANCH   5  18
BRANCH   3  22
ATOM     22  C   LIG d   1      -1.332  82.951 111.893  0.00  0.00     0.382 C 
ATOM     23  O   LIG d   1      -2.250  82.378 112.528  0.00  0.00    -0.241 OA
ATOM     24  O   LIG d   1      -1.203  82.737 110.673  0.00  0.00    -0.241 OA
ENDBRANCH   3  22
TORSDOF 7
ENDMDL
MODEL 5
REMARK VINA RESULT:      -5.0      1.738      2.293
REMARK  7 active torsions:
REMARK  status: ('A' for Active; 'I' for Inactive)
REMARK    1  A    between atoms: C_2  and  C_3 
REMARK    2  A    between atoms: C_3  and  O_6 
REMARK    3  A    between atoms: C_3  and  C_4 
REMARK    4  A    between atoms: C_7  and  O_6 
REMARK    5  A    between atoms: C_9  and  C_10 
REMARK    6  A    between atoms: N_15  and  C_14 
REMARK    7  A    between atoms: N_20  and  C_19 
REMARK       I    between atoms: C_22  and  N_20 
ROOT
ATOM      1  C   LIG d   1       0.361  83.172 112.311  0.00  0.00     0.161 C 
ATOM      2  C   LIG d   1      -0.945  82.900 112.753  0.00  0.00     0.016 C 
ATOM      3  C   LIG d   1      -1.677  81.757 112.360  0.00  0.00     0.038 C 
ATOM      4  C   LIG d   1      -1.094  80.724 111.612  0.00  0.00     0.028 C 
ATOM      5  C   LIG d   1       0.055  81.192 110.725  0.00  0.00    -0.047 C 
ATOM      6  C   LIG d   1       1.054  82.001 111.583  0.00  0.00     0.091 C 
ENDROOT
BRANCH   1   7
ATOM      7  O   LIG d   1       1.167  83.622 113.417  0.00  0.00    -0.368 OA
BRANCH   7   8
ATOM      8  C   LIG d   1       1.573  85.013 113.386  0.00  0.00     0.119 C 
BRANCH   8   9
ATOM      9  C   LIG d   1       0.963  85.645 112.119  0.00  0.00     0.028 C 
ATOM     10  C   LIG d   1       2.029  86.014 111.075  0.00  0.00     0.006 C 
ENDBRANCH   8   9
BRANCH   8  11
ATOM     11  C   LIG d   1       3.089  85.148 113.216  0.00  0.00     0.028 C 
ATOM     12  C   LIG d   1       3.862  84.852 114.510  0.00  0.00     0.006 C 
ENDBRANCH   8  11
ENDBRANCH   7   8
ENDBRANCH   1   7
BRANCH   6  13
ATOM     13  N   LIG d   1       2.166  82.568 110.776  0.00  0.00    -0.311 N 
ATOM     14  C   LIG d   1       3.449  82.285 110.995  0.00  0.00     0.210 C 
ATOM     15  C   LIG d   1       4.435  82.993 110.060  0.00  0.00     0.109 C 
ATOM     16  O   LIG d   1       3.862  81.491 111.853  0.00  0.00    -0.276 OA
ATOM     17  H   LIG d   1       1.919  83.198 110.038  0.00  0.00     0.149 HD
ENDBRANCH   6  13
BRANCH   5  18
ATOM     18  N   LIG d   1       0.659  79.996 110.109  0.00  0.00     0.381 N 
ATOM     19  H   LIG d   1      -0.041  79.479 109.615  0.00  0.00    -0.090 HD
ATOM     20  H   LIG d   1       1.031  79.409 110.834  0.00  0.00    -0.090 HD
ATOM     21  H   LIG d   1       1.386  80.264 109.483  0.00  0.00    -0.090 HD
ENDBRANCH   5  18
BRANCH   3  22
ATOM     22  C   LIG d   1      -3.022  81.658 112.682  0.00  0.00     0.382 C 
ATOM     23  O   LIG d   1      -3.484  82.309 113.650  0.00  0.00    -0.241 OA
ATOM     24  O   LIG d   1      -3.770  80.891 112.046  0.00  0.00    -0.241 OA
ENDBRANCH   3  22
TORSDOF 7
ENDMDL
MODEL 6
REMARK VINA RESULT:      -4.9      3.622      4.588
REMARK  7 active torsions:
REMARK  status: ('A' for Active; 'I' for Inactive)
REMARK    1  A    between atoms: C_2  and  C_3 
REMARK    2  A    between atoms: C_3  and  O_6 
REMARK    3  A    between atoms: C_3  and  C_4 
REMARK    4  A    between atoms: C_7  and  O_6 
REMARK    5  A    between atoms: C_9  and  C_10 
REMARK    6  A    between atoms: N_15  and  C_14 
REMARK    7  A    between atoms: N_20  and  C_19 
REMARK       I    between atoms: C_22  and  N_20 
ROOT
ATOM      1  C   LIG d   1       1.173  86.141 113.175  0.00  0.00     0.161 C 
ATOM      2  C   LIG d   1      -0.020  85.654 113.734  0.00  0.00     0.016 C 
ATOM      3  C   LIG d   1      -0.349  85.786 115.102  0.00  0.00     0.038 C 
ATOM      4  C   LIG d   1       0.430  86.553 115.981  0.00  0.00     0.028 C 
ATOM      5  C   LIG d   1       1.897  86.637 115.575  0.00  0.00    -0.047 C 
ATOM      6  C   LIG d   1       1.983  87.077 114.096  0.00  0.00     0.091 C 
ENDROOT
BRANCH   1   7
ATOM      7  O   LIG d   1       0.895  86.791 111.919  0.00  0.00    -0.368 OA
BRANCH   7   8
ATOM      8  C   LIG d   1       1.348  86.100 110.729  0.00  0.00     0.119 C 
BRANCH   8   9
ATOM      9  C   LIG d   1       0.110  85.477 110.055  0.00  0.00     0.028 C 
ATOM     10  C   LIG d   1      -1.153  86.334 110.242  0.00  0.00     0.006 C 
ENDBRANCH   8   9
BRANCH   8  11
ATOM     11  C   LIG d   1       2.255  84.917 111.083  0.00  0.00     0.028 C 
ATOM     12  C   LIG d   1       3.685  85.080 110.544  0.00  0.00     0.006 C 
ENDBRANCH   8  11
ENDBRANCH   7   8
ENDBRANCH   1   7
BRANCH   6  13
ATOM     13  N   LIG d   1       3.382  87.103 113.593  0.00  0.00    -0.311 N 
ATOM     14  C   LIG d   1       3.906  88.136 112.936  0.00  0.00     0.210 C 
ATOM     15  C   LIG d   1       5.358  87.948 112.488  0.00  0.00     0.109 C 
ATOM     16  O   LIG d   1       3.316  89.203 112.710  0.00  0.00    -0.276 OA
ATOM     17  H   LIG d   1       3.942  86.290 113.760  0.00  0.00     0.149 HD
ENDBRANCH   6  13
BRANCH   5  18
ATOM     18  N   LIG d   1       2.562  87.576 116.497  0.00  0.00     0.381 N 
ATOM     19  H   LIG d   1       3.006  88.306 115.976  0.00  0.00    -0.090 HD
ATOM     20  H   LIG d   1       3.270  87.080 117.011  0.00  0.00    -0.090 HD
ATOM     21  H   LIG d   1       1.896  87.965 117.127  0.00  0.00    -0.090 HD
ENDBRANCH   5  18
BRANCH   3  22
ATOM     22  C   LIG d   1      -1.449  85.114 115.613  0.00  0.00     0.382 C 
ATOM     23  O   LIG d   1      -1.323  84.385 116.627  0.00  0.00    -0.241 OA
ATOM     24  O   LIG d   1      -2.556  85.191 115.047  0.00  0.00    -0.241 OA
ENDBRANCH   3  22
TORSDOF 7
ENDMDL
MODEL 7
REMARK VINA RESULT:      -4.9      2.598      3.081
REMARK  7 active torsions:
REMARK  status: ('A' for Active; 'I' for Inactive)
REMARK    1  A    between atoms: C_2  and  C_3 
REMARK    2  A    between atoms: C_3  and  O_6 
REMARK    3  A    between atoms: C_3  and  C_4 
REMARK    4  A    between atoms: C_7  and  O_6 
REMARK    5  A    between atoms: C_9  and  C_10 
REMARK    6  A    between atoms: N_15  and  C_14 
REMARK    7  A    between atoms: N_20  and  C_19 
REMARK       I    between atoms: C_22  and  N_20 
ROOT
ATOM      1  C   LIG d   1       1.120  83.851 112.465  0.00  0.00     0.161 C 
ATOM      2  C   LIG d   1       0.060  83.070 111.977  0.00  0.00     0.016 C 
ATOM      3  C   LIG d   1      -1.141  82.855 112.691  0.00  0.00     0.038 C 
ATOM      4  C   LIG d   1      -1.426  83.534 113.885  0.00  0.00     0.028 C 
ATOM      5  C   LIG d   1      -0.179  83.938 114.664  0.00  0.00    -0.047 C 
ATOM      6  C   LIG d   1       0.783  84.690 113.716  0.00  0.00     0.091 C 
ENDROOT
BRANCH   1   7
ATOM      7  O   LIG d   1       1.627  84.699 111.415  0.00  0.00    -0.368 OA
BRANCH   7   8
ATOM      8  C   LIG d   1       1.113  86.054 111.386  0.00  0.00     0.119 C 
BRANCH   8   9
ATOM      9  C   LIG d   1       0.290  86.209 110.093  0.00  0.00     0.028 C 
ATOM     10  C   LIG d   1      -1.213  86.378 110.371  0.00  0.00     0.006 C 
ENDBRANCH   8   9
BRANCH   8  11
ATOM     11  C   LIG d   1       2.247  87.077 111.270  0.00  0.00     0.028 C 
ATOM     12  C   LIG d   1       3.639  86.443 111.416  0.00  0.00     0.006 C 
ENDBRANCH   8  11
ENDBRANCH   7   8
ENDBRANCH   1   7
BRANCH   6  13
ATOM     13  N   LIG d   1       2.066  85.048 114.377  0.00  0.00    -0.311 N 
ATOM     14  C   LIG d   1       2.306  86.243 114.911  0.00  0.00     0.210 C 
ATOM     15  C   LIG d   1       3.700  86.409 115.525  0.00  0.00     0.109 C 
ATOM     16  O   LIG d   1       1.486  87.172 114.965  0.00  0.00    -0.276 OA
ATOM     17  H   LIG d   1       2.776  84.343 114.406  0.00  0.00     0.149 HD
ENDBRANCH   6  13
BRANCH   5  18
ATOM     18  N   LIG d   1      -0.615  84.755 115.812  0.00  0.00     0.381 N 
ATOM     19  H   LIG d   1      -1.353  84.287 116.300  0.00  0.00    -0.090 HD
ATOM     20  H   LIG d   1      -0.970  85.631 115.471  0.00  0.00    -0.090 HD
ATOM     21  H   LIG d   1       0.151  84.915 116.428  0.00  0.00    -0.090 HD
ENDBRANCH   5  18
BRANCH   3  22
ATOM     22  C   LIG d   1      -2.056  81.920 112.231  0.00  0.00     0.382 C 
ATOM     23  O   LIG d   1      -1.717  81.091 111.352  0.00  0.00    -0.241 OA
ATOM     24  O   LIG d   1      -3.229  81.924 112.651  0.00  0.00    -0.241 OA
ENDBRANCH   3  22
TORSDOF 7
ENDMDL
MODEL 8
REMARK VINA RESULT:      -4.9      3.493      4.946
REMARK  7 active torsions:
REMARK  status: ('A' for Active; 'I' for Inactive)
REMARK    1  A    between atoms: C_2  and  C_3 
REMARK    2  A    between atoms: C_3  and  O_6 
REMARK    3  A    between atoms: C_3  and  C_4 
REMARK    4  A    between atoms: C_7  and  O_6 
REMARK    5  A    between atoms: C_9  and  C_10 
REMARK    6  A    between atoms: N_15  and  C_14 
REMARK    7  A    between atoms: N_20  and  C_19 
REMARK       I    between atoms: C_22  and  N_20 
ROOT
ATOM      1  C   LIG d   1       1.820  85.514 113.271  0.00  0.00     0.161 C 
ATOM      2  C   LIG d   1       0.941  84.680 112.559  0.00  0.00     0.016 C 
ATOM      3  C   LIG d   1      -0.414  84.494 112.915  0.00  0.00     0.038 C 
ATOM      4  C   LIG d   1      -1.027  85.251 113.924  0.00  0.00     0.028 C 
ATOM      5  C   LIG d   1      -0.054  85.734 114.995  0.00  0.00    -0.047 C 
ATOM      6  C   LIG d   1       1.141  86.434 114.308  0.00  0.00     0.091 C 
ENDROOT
BRANCH   1   7
ATOM      7  O   LIG d   1       2.608  86.294 112.350  0.00  0.00    -0.368 OA
BRANCH   7   8
ATOM      8  C   LIG d   1       3.995  85.900 112.206  0.00  0.00     0.119 C 
BRANCH   8   9
ATOM      9  C   LIG d   1       4.786  87.147 111.763  0.00  0.00     0.028 C 
ATOM     10  C   LIG d   1       5.586  87.774 112.916  0.00  0.00     0.006 C 
ENDBRANCH   8   9
BRANCH   8  11
ATOM     11  C   LIG d   1       4.171  84.884 111.074  0.00  0.00     0.028 C 
ATOM     12  C   LIG d   1       4.492  83.471 111.586  0.00  0.00     0.006 C 
ENDBRANCH   8  11
ENDBRANCH   7   8
ENDBRANCH   1   7
BRANCH   6  13
ATOM     13  N   LIG d   1       2.182  86.862 115.279  0.00  0.00    -0.311 N 
ATOM     14  C   LIG d   1       2.748  88.068 115.262  0.00  0.00     0.210 C 
ATOM     15  C   LIG d   1       3.813  88.297 116.340  0.00  0.00     0.109 C 
ATOM     16  O   LIG d   1       2.446  88.980 114.479  0.00  0.00    -0.276 OA
ATOM     17  H   LIG d   1       2.464  86.194 115.969  0.00  0.00     0.149 HD
ENDBRANCH   6  13
BRANCH   5  18
ATOM     18  N   LIG d   1      -0.799  86.623 115.906  0.00  0.00     0.381 N 
ATOM     19  H   LIG d   1      -0.176  87.297 116.305  0.00  0.00    -0.090 HD
ATOM     20  H   LIG d   1      -1.187  86.072 116.652  0.00  0.00    -0.090 HD
ATOM     21  H   LIG d   1      -1.528  87.086 115.410  0.00  0.00    -0.090 HD
ENDBRANCH   5  18
BRANCH   3  22
ATOM     22  C   LIG d   1      -1.161  83.511 112.283  0.00  0.00     0.382 C 
ATOM     23  O   LIG d   1      -1.147  83.420 111.032  0.00  0.00    -0.241 OA
ATOM     24  O   LIG d   1      -1.884  82.743 112.946  0.00  0.00    -0.241 OA
ENDBRANCH   3  22
TORSDOF 7
ENDMDL
MODEL 9
REMARK VINA RESULT:      -4.9      3.478      6.601
REMARK  7 active torsions:
REMARK  status: ('A' for Active; 'I' for Inactive)
REMARK    1  A    between atoms: C_2  and  C_3 
REMARK    2  A    between atoms: C_3  and  O_6 
REMARK    3  A    between atoms: C_3  and  C_4 
REMARK    4  A    between atoms: C_7  and  O_6 
REMARK    5  A    between atoms: C_9  and  C_10 
REMARK    6  A    between atoms: N_15  and  C_14 
REMARK    7  A    between atoms: N_20  and  C_19 
REMARK       I    between atoms: C_22  and  N_20 
ROOT
ATOM      1  C   LIG d   1       2.243  85.765 113.534  0.00  0.00     0.161 C 
ATOM      2  C   LIG d   1       3.009  86.919 113.771  0.00  0.00     0.016 C 
ATOM      3  C   LIG d   1       3.100  87.994 112.858  0.00  0.00     0.038 C 
ATOM      4  C   LIG d   1       2.305  88.056 111.704  0.00  0.00     0.028 C 
ATOM      5  C   LIG d   1       1.898  86.685 111.175  0.00  0.00    -0.047 C 
ATOM      6  C   LIG d   1       1.282  85.864 112.331  0.00  0.00     0.091 C 
ENDROOT
BRANCH   1   7
ATOM      7  O   LIG d   1       1.518  85.406 114.726  0.00  0.00    -0.368 OA
BRANCH   7   8
ATOM      8  C   LIG d   1       0.297  86.146 114.977  0.00  0.00     0.119 C 
BRANCH   8   9
ATOM      9  C   LIG d   1       0.482  86.906 116.305  0.00  0.00     0.028 C 
ATOM     10  C   LIG d   1      -0.824  87.553 116.796  0.00  0.00     0.006 C 
ENDBRANCH   8   9
BRANCH   8  11
ATOM     11  C   LIG d   1      -0.887  85.204 115.210  0.00  0.00     0.028 C 
ATOM     12  C   LIG d   1      -0.478  83.722 115.216  0.00  0.00     0.006 C 
ENDBRANCH   8  11
ENDBRANCH   7   8
ENDBRANCH   1   7
BRANCH   6  13
ATOM     13  N   LIG d   1       0.933  84.479 111.919  0.00  0.00    -0.311 N 
ATOM     14  C   LIG d   1      -0.283  84.120 111.509  0.00  0.00     0.210 C 
ATOM     15  C   LIG d   1      -0.433  82.639 111.150  0.00  0.00     0.109 C 
ATOM     16  O   LIG d   1      -1.242  84.895 111.378  0.00  0.00    -0.276 OA
ATOM     17  H   LIG d   1       1.660  83.793 111.964  0.00  0.00     0.149 HD
ENDBRANCH   6  13
BRANCH   5  18
ATOM     18  N   LIG d   1       0.962  86.900 110.055  0.00  0.00     0.381 N 
ATOM     19  H   LIG d   1       1.015  87.850 109.747  0.00  0.00    -0.090 HD
ATOM     20  H   LIG d   1       0.026  86.724 110.376  0.00  0.00    -0.090 HD
ATOM     21  H   LIG d   1       1.183  86.286 109.303  0.00  0.00    -0.090 HD
ENDBRANCH   5  18
BRANCH   3  22
ATOM     22  C   LIG d   1       4.024  89.005 113.077  0.00  0.00     0.382 C 
ATOM     23  O   LIG d   1       3.675  90.057 113.665  0.00  0.00    -0.241 OA
ATOM     24  O   LIG d   1       5.190  88.897 112.653  0.00  0.00    -0.241 OA
ENDBRANCH   3  22
TORSDOF 7
ENDMDL
