MODEL 1
REMARK VINA RESULT:      -5.5      0.000      0.000
REMARK  7 active torsions:
REMARK  status: ('A' for Active; 'I' for Inactive)
REMARK    1  A    between atoms: C_2  and  C_3 
REMARK    2  A    between atoms: C_3  and  O_6 
REMARK    3  A    between atoms: C_3  and  C_4 
REMARK    4  A    between atoms: C_7  and  O_6 
REMARK    5  A    between atoms: C_9  and  C_10 
REMARK    6  A    between atoms: N_15  and  C_14 
REMARK    7  A    between atoms: N_20  and  C_19 
REMARK       I    between atoms: C_22  and  N_20 
ROOT
ATOM      1  C   LIG d   1       2.822  84.232 113.069  0.00  0.00     0.161 C 
ATOM      2  C   LIG d   1       2.961  85.552 112.609  0.00  0.00     0.016 C 
ATOM      3  C   LIG d   1       2.970  86.678 113.465  0.00  0.00     0.038 C 
ATOM      4  C   LIG d   1       2.993  86.547 114.862  0.00  0.00     0.028 C 
ATOM      5  C   LIG d   1       2.345  85.260 115.360  0.00  0.00    -0.047 C 
ATOM      6  C   LIG d   1       2.957  84.062 114.597  0.00  0.00     0.091 C 
ENDROOT
BRANCH   1   7
ATOM      7  O   LIG d   1       3.757  83.375 112.385  0.00  0.00    -0.368 OA
BRANCH   7   8
ATOM      8  C   LIG d   1       3.262  82.710 111.197  0.00  0.00     0.119 C 
BRANCH   8   9
ATOM      9  C   LIG d   1       2.535  81.430 111.653  0.00  0.00     0.028 C 
ATOM     10  C   LIG d   1       1.024  81.480 111.367  0.00  0.00     0.006 C 
ENDBRANCH   8   9
BRANCH   8  11
ATOM     11  C   LIG d   1       4.411  82.229 110.308  0.00  0.00     0.028 C 
ATOM     12  C   LIG d   1       4.376  80.713 110.056  0.00  0.00     0.006 C 
ENDBRANCH   8  11
ENDBRANCH   7   8
ENDBRANCH   1   7
BRANCH   6  13
ATOM     13  N   LIG d   1       2.320  82.771 114.964  0.00  0.00    -0.311 N 
ATOM     14  C   LIG d   1       2.949  81.807 115.635  0.00  0.00     0.210 C 
ATOM     15  C   LIG d   1       2.115  80.548 115.892  0.00  0.00     0.109 C 
ATOM     16  O   LIG d   1       4.108  81.888 116.068  0.00  0.00    -0.276 OA
ATOM     17  H   LIG d   1       1.370  82.634 114.679  0.00  0.00     0.149 HD
ENDBRANCH   6  13
BRANCH   5  18
ATOM     18  N   LIG d   1       2.561  85.188 116.818  0.00  0.00     0.381 N 
ATOM     19  H   LIG d   1       1.771  85.572 117.296  0.00  0.00    -0.090 HD
ATOM     20  H   LIG d   1       3.370  85.735 117.054  0.00  0.00    -0.090 HD
ATOM     21  H   LIG d   1       2.699  84.241 117.096  0.00  0.00    -0.090 HD
ENDBRANCH   5  18
BRANCH   3  22
ATOM     22  C   LIG d   1       2.917  87.953 112.923  0.00  0.00     0.382 C 
ATOM     23  O   LIG d   1       1.904  88.319 112.279  0.00  0.00    -0.241 OA
ATOM     24  O   LIG d   1       3.886  88.727 113.033  0.00  0.00    -0.241 OA
ENDBRANCH   3  22
TORSDOF 7
ENDMDL
MODEL 2
REMARK VINA RESULT:      -5.5      2.745      4.625
REMARK  7 active torsions:
REMARK  status: ('A' for Active; 'I' for Inactive)
REMARK    1  A    between atoms: C_2  and  C_3 
REMARK    2  A    between atoms: C_3  and  O_6 
REMARK    3  A    between atoms: C_3  and  C_4 
REMARK    4  A    between atoms: C_7  and  O_6 
REMARK    5  A    between atoms: C_9  and  C_10 
REMARK    6  A    between atoms: N_15  and  C_14 
REMARK    7  A    between atoms: N_20  and  C_19 
REMARK       I    between atoms: C_22  and  N_20 
ROOT
ATOM      1  C   LIG d   1       3.381  85.115 112.800  0.00  0.00     0.161 C 
ATOM      2  C   LIG d   1       4.070  86.272 113.199  0.00  0.00     0.016 C 
ATOM      3  C   LIG d   1       3.600  87.582 112.948  0.00  0.00     0.038 C 
ATOM      4  C   LIG d   1       2.327  87.823 112.410  0.00  0.00     0.028 C 
ATOM      5  C   LIG d   1       1.815  86.686 111.533  0.00  0.00    -0.047 C 
ATOM      6  C   LIG d   1       1.938  85.357 112.311  0.00  0.00     0.091 C 
ENDROOT
BRANCH   1   7
ATOM      7  O   LIG d   1       3.393  84.147 113.868  0.00  0.00    -0.368 OA
BRANCH   7   8
ATOM      8  C   LIG d   1       3.555  84.677 115.207  0.00  0.00     0.119 C 
BRANCH   8   9
ATOM      9  C   LIG d   1       4.410  83.672 116.002  0.00  0.00     0.028 C 
ATOM     10  C   LIG d   1       5.565  84.352 116.757  0.00  0.00     0.006 C 
ENDBRANCH   8   9
BRANCH   8  11
ATOM     11  C   LIG d   1       2.215  84.743 115.946  0.00  0.00     0.028 C 
ATOM     12  C   LIG d   1       1.710  86.182 116.137  0.00  0.00     0.006 C 
ENDBRANCH   8  11
ENDBRANCH   7   8
ENDBRANCH   1   7
BRANCH   6  13
ATOM     13  N   LIG d   1       1.537  84.182 111.494  0.00  0.00    -0.311 N 
ATOM     14  C   LIG d   1       0.449  83.454 111.741  0.00  0.00     0.210 C 
ATOM     15  C   LIG d   1       0.231  82.274 110.789  0.00  0.00     0.109 C 
ATOM     16  O   LIG d   1      -0.373  83.692 112.639  0.00  0.00    -0.276 OA
ATOM     17  H   LIG d   1       2.130  83.937 110.726  0.00  0.00     0.149 HD
ENDBRANCH   6  13
BRANCH   5  18
ATOM     18  N   LIG d   1       0.427  87.008 111.152  0.00  0.00     0.381 N 
ATOM     19  H   LIG d   1       0.409  87.390 110.228  0.00  0.00    -0.090 HD
ATOM     20  H   LIG d   1       0.068  87.700 111.786  0.00  0.00    -0.090 HD
ATOM     21  H   LIG d   1      -0.136  86.187 111.191  0.00  0.00    -0.090 HD
ENDBRANCH   5  18
BRANCH   3  22
ATOM     22  C   LIG d   1       4.426  88.668 113.199  0.00  0.00     0.382 C 
ATOM     23  O   LIG d   1       5.605  88.671 112.773  0.00  0.00    -0.241 OA
ATOM     24  O   LIG d   1       4.019  89.625 113.885  0.00  0.00    -0.241 OA
ENDBRANCH   3  22
TORSDOF 7
ENDMDL
MODEL 3
REMARK VINA RESULT:      -5.2     10.478     13.480
REMARK  7 active torsions:
REMARK  status: ('A' for Active; 'I' for Inactive)
REMARK    1  A    between atoms: C_2  and  C_3 
REMARK    2  A    between atoms: C_3  and  O_6 
REMARK    3  A    between atoms: C_3  and  C_4 
REMARK    4  A    between atoms: C_7  and  O_6 
REMARK    5  A    between atoms: C_9  and  C_10 
REMARK    6  A    between atoms: N_15  and  C_14 
REMARK    7  A    between atoms: N_20  and  C_19 
REMARK       I    between atoms: C_22  and  N_20 
ROOT
ATOM      1  C   LIG d   1      -5.616  75.727 116.512  0.00  0.00     0.161 C 
ATOM      2  C   LIG d   1      -6.104  74.415 116.397  0.00  0.00     0.016 C 
ATOM      3  C   LIG d   1      -7.374  74.013 116.871  0.00  0.00     0.038 C 
ATOM      4  C   LIG d   1      -8.309  74.938 117.361  0.00  0.00     0.028 C 
ATOM      5  C   LIG d   1      -7.670  76.186 117.960  0.00  0.00    -0.047 C 
ATOM      6  C   LIG d   1      -6.665  76.773 116.943  0.00  0.00     0.091 C 
ENDROOT
BRANCH   1   7
ATOM      7  O   LIG d   1      -4.989  76.126 115.276  0.00  0.00    -0.368 OA
BRANCH   7   8
ATOM      8  C   LIG d   1      -3.550  75.972 115.213  0.00  0.00     0.119 C 
BRANCH   8   9
ATOM      9  C   LIG d   1      -3.028  75.897 116.661  0.00  0.00     0.028 C 
ATOM     10  C   LIG d   1      -1.642  75.236 116.751  0.00  0.00     0.006 C 
ENDBRANCH   8   9
BRANCH   8  11
ATOM     11  C   LIG d   1      -2.884  77.210 114.605  0.00  0.00     0.028 C 
ATOM     12  C   LIG d   1      -2.957  78.438 115.526  0.00  0.00     0.006 C 
ENDBRANCH   8  11
ENDBRANCH   7   8
ENDBRANCH   1   7
BRANCH   6  13
ATOM     13  N   LIG d   1      -5.934  77.949 117.483  0.00  0.00    -0.311 N 
ATOM     14  C   LIG d   1      -6.433  79.183 117.488  0.00  0.00     0.210 C 
ATOM     15  C   LIG d   1      -5.506  80.253 118.073  0.00  0.00     0.109 C 
ATOM     16  O   LIG d   1      -7.569  79.489 117.094  0.00  0.00    -0.276 OA
ATOM     17  H   LIG d   1      -5.017  77.786 117.851  0.00  0.00     0.149 HD
ENDBRANCH   6  13
BRANCH   5  18
ATOM     18  N   LIG d   1      -8.758  77.122 118.304  0.00  0.00     0.381 N 
ATOM     19  H   LIG d   1      -8.531  78.040 117.978  0.00  0.00    -0.090 HD
ATOM     20  H   LIG d   1      -8.852  77.157 119.304  0.00  0.00    -0.090 HD
ATOM     21  H   LIG d   1      -9.613  76.817 117.893  0.00  0.00    -0.090 HD
ENDBRANCH   5  18
BRANCH   3  22
ATOM     22  C   LIG d   1      -7.704  72.667 116.895  0.00  0.00     0.382 C 
ATOM     23  O   LIG d   1      -6.818  71.801 116.700  0.00  0.00    -0.241 OA
ATOM     24  O   LIG d   1      -8.885  72.309 117.065  0.00  0.00    -0.241 OA
ENDBRANCH   3  22
TORSDOF 7
ENDMDL
MODEL 4
REMARK VINA RESULT:      -5.2     27.121     28.657
REMARK  7 active torsions:
REMARK  status: ('A' for Active; 'I' for Inactive)
REMARK    1  A    between atoms: C_2  and  C_3 
REMARK    2  A    between atoms: C_3  and  O_6 
REMARK    3  A    between atoms: C_3  and  C_4 
REMARK    4  A    between atoms: C_7  and  O_6 
REMARK    5  A    between atoms: C_9  and  C_10 
REMARK    6  A    between atoms: N_15  and  C_14 
REMARK    7  A    between atoms: N_20  and  C_19 
REMARK       I    between atoms: C_22  and  N_20 
ROOT
ATOM      1  C   LIG d   1     -25.734  85.067 113.631  0.00  0.00     0.161 C 
ATOM      2  C   LIG d   1     -24.738  86.046 113.778  0.00  0.00     0.016 C 
ATOM      3  C   LIG d   1     -23.370  85.812 113.506  0.00  0.00     0.038 C 
ATOM      4  C   LIG d   1     -22.925  84.618 112.918  0.00  0.00     0.028 C 
ATOM      5  C   LIG d   1     -23.821  83.423 113.222  0.00  0.00    -0.047 C 
ATOM      6  C   LIG d   1     -25.284  83.793 112.886  0.00  0.00     0.091 C 
ENDROOT
BRANCH   1   7
ATOM      7  O   LIG d   1     -26.891  85.639 112.990  0.00  0.00    -0.368 OA
BRANCH   7   8
ATOM      8  C   LIG d   1     -26.975  87.086 113.000  0.00  0.00     0.119 C 
BRANCH   8   9
ATOM      9  C   LIG d   1     -28.202  87.473 113.847  0.00  0.00     0.028 C 
ATOM     10  C   LIG d   1     -27.810  88.154 115.170  0.00  0.00     0.006 C 
ENDBRANCH   8   9
BRANCH   8  11
ATOM     11  C   LIG d   1     -27.259  87.637 111.599  0.00  0.00     0.028 C 
ATOM     12  C   LIG d   1     -26.640  89.025 111.368  0.00  0.00     0.006 C 
ENDBRANCH   8  11
ENDBRANCH   7   8
ENDBRANCH   1   7
BRANCH   6  13
ATOM     13  N   LIG d   1     -26.238  82.707 113.233  0.00  0.00    -0.311 N 
ATOM     14  C   LIG d   1     -26.687  81.816 112.351  0.00  0.00     0.210 C 
ATOM     15  C   LIG d   1     -27.680  80.794 112.913  0.00  0.00     0.109 C 
ATOM     16  O   LIG d   1     -26.334  81.756 111.164  0.00  0.00    -0.276 OA
ATOM     17  H   LIG d   1     -26.553  82.663 114.182  0.00  0.00     0.149 HD
ENDBRANCH   6  13
BRANCH   5  18
ATOM     18  N   LIG d   1     -23.319  82.278 112.438  0.00  0.00     0.381 N 
ATOM     19  H   LIG d   1     -22.750  81.694 113.018  0.00  0.00    -0.090 HD
ATOM     20  H   LIG d   1     -22.751  82.625 111.685  0.00  0.00    -0.090 HD
ATOM     21  H   LIG d   1     -24.083  81.754 112.073  0.00  0.00    -0.090 HD
ENDBRANCH   5  18
BRANCH   3  22
ATOM     22  C   LIG d   1     -22.427  86.765 113.858  0.00  0.00     0.382 C 
ATOM     23  O   LIG d   1     -21.395  86.913 113.160  0.00  0.00    -0.241 OA
ATOM     24  O   LIG d   1     -22.572  87.446 114.891  0.00  0.00    -0.241 OA
ENDBRANCH   3  22
TORSDOF 7
ENDMDL
MODEL 5
REMARK VINA RESULT:      -5.1      3.021      6.199
REMARK  7 active torsions:
REMARK  status: ('A' for Active; 'I' for Inactive)
REMARK    1  A    between atoms: C_2  and  C_3 
REMARK    2  A    between atoms: C_3  and  O_6 
REMARK    3  A    between atoms: C_3  and  C_4 
REMARK    4  A    between atoms: C_7  and  O_6 
REMARK    5  A    between atoms: C_9  and  C_10 
REMARK    6  A    between atoms: N_15  and  C_14 
REMARK    7  A    between atoms: N_20  and  C_19 
REMARK       I    between atoms: C_22  and  N_20 
ROOT
ATOM      1  C   LIG d   1       2.150  86.612 114.808  0.00  0.00     0.161 C 
ATOM      2  C   LIG d   1       3.139  86.046 115.630  0.00  0.00     0.016 C 
ATOM      3  C   LIG d   1       3.852  84.872 115.294  0.00  0.00     0.038 C 
ATOM      4  C   LIG d   1       3.729  84.265 114.036  0.00  0.00     0.028 C 
ATOM      5  C   LIG d   1       2.377  84.509 113.374  0.00  0.00    -0.047 C 
ATOM      6  C   LIG d   1       2.081  86.027 113.382  0.00  0.00     0.091 C 
ENDROOT
BRANCH   1   7
ATOM      7  O   LIG d   1       2.319  88.043 114.754  0.00  0.00    -0.368 OA
BRANCH   7   8
ATOM      8  C   LIG d   1       3.644  88.540 115.067  0.00  0.00     0.119 C 
BRANCH   8   9
ATOM      9  C   LIG d   1       3.475  89.737 116.023  0.00  0.00     0.028 C 
ATOM     10  C   LIG d   1       2.124  89.715 116.758  0.00  0.00     0.006 C 
ENDBRANCH   8   9
BRANCH   8  11
ATOM     11  C   LIG d   1       4.334  89.108 113.824  0.00  0.00     0.028 C 
ATOM     12  C   LIG d   1       5.169  88.058 113.073  0.00  0.00     0.006 C 
ENDBRANCH   8  11
ENDBRANCH   7   8
ENDBRANCH   1   7
BRANCH   6  13
ATOM     13  N   LIG d   1       0.739  86.346 112.829  0.00  0.00    -0.311 N 
ATOM     14  C   LIG d   1       0.533  86.693 111.560  0.00  0.00     0.210 C 
ATOM     15  C   LIG d   1      -0.924  87.000 111.202  0.00  0.00     0.109 C 
ATOM     16  O   LIG d   1       1.414  86.746 110.689  0.00  0.00    -0.276 OA
ATOM     17  H   LIG d   1      -0.037  86.298 113.459  0.00  0.00     0.149 HD
ENDBRANCH   6  13
BRANCH   5  18
ATOM     18  N   LIG d   1       2.435  83.939 112.015  0.00  0.00     0.381 N 
ATOM     19  H   LIG d   1       1.636  84.231 111.490  0.00  0.00    -0.090 HD
ATOM     20  H   LIG d   1       2.419  82.936 112.083  0.00  0.00    -0.090 HD
ATOM     21  H   LIG d   1       3.269  84.234 111.557  0.00  0.00    -0.090 HD
ENDBRANCH   5  18
BRANCH   3  22
ATOM     22  C   LIG d   1       4.669  84.271 116.239  0.00  0.00     0.382 C 
ATOM     23  O   LIG d   1       4.977  83.060 116.122  0.00  0.00    -0.241 OA
ATOM     24  O   LIG d   1       5.066  84.912 117.230  0.00  0.00    -0.241 OA
ENDBRANCH   3  22
TORSDOF 7
ENDMDL
MODEL 6
REMARK VINA RESULT:      -5.1      3.482      5.678
REMARK  7 active torsions:
REMARK  status: ('A' for Active; 'I' for Inactive)
REMARK    1  A    between atoms: C_2  and  C_3 
REMARK    2  A    between atoms: C_3  and  O_6 
REMARK    3  A    between atoms: C_3  and  C_4 
REMARK    4  A    between atoms: C_7  and  O_6 
REMARK    5  A    between atoms: C_9  and  C_10 
REMARK    6  A    between atoms: N_15  and  C_14 
REMARK    7  A    between atoms: N_20  and  C_19 
REMARK       I    between atoms: C_22  and  N_20 
ROOT
ATOM      1  C   LIG d   1       3.221  87.546 115.224  0.00  0.00     0.161 C 
ATOM      2  C   LIG d   1       2.307  87.199 114.216  0.00  0.00     0.016 C 
ATOM      3  C   LIG d   1       2.591  87.309 112.836  0.00  0.00     0.038 C 
ATOM      4  C   LIG d   1       3.873  87.634 112.366  0.00  0.00     0.028 C 
ATOM      5  C   LIG d   1       4.680  88.480 113.345  0.00  0.00    -0.047 C 
ATOM      6  C   LIG d   1       4.662  87.797 114.732  0.00  0.00     0.091 C 
ENDROOT
BRANCH   1   7
ATOM      7  O   LIG d   1       3.213  86.543 116.259  0.00  0.00    -0.368 OA
BRANCH   7   8
ATOM      8  C   LIG d   1       4.000  85.354 116.000  0.00  0.00     0.119 C 
BRANCH   8   9
ATOM      9  C   LIG d   1       3.034  84.154 115.983  0.00  0.00     0.028 C 
ATOM     10  C   LIG d   1       2.812  83.599 114.566  0.00  0.00     0.006 C 
ENDBRANCH   8   9
BRANCH   8  11
ATOM     11  C   LIG d   1       4.977  85.072 117.146  0.00  0.00     0.028 C 
ATOM     12  C   LIG d   1       5.840  83.825 116.899  0.00  0.00     0.006 C 
ENDBRANCH   8  11
ENDBRANCH   7   8
ENDBRANCH   1   7
BRANCH   6  13
ATOM     13  N   LIG d   1       5.358  88.602 115.769  0.00  0.00    -0.311 N 
ATOM     14  C   LIG d   1       4.982  89.831 116.119  0.00  0.00     0.210 C 
ATOM     15  C   LIG d   1       5.849  90.491 117.195  0.00  0.00     0.109 C 
ATOM     16  O   LIG d   1       3.993  90.424 115.663  0.00  0.00    -0.276 OA
ATOM     17  H   LIG d   1       6.153  88.185 116.213  0.00  0.00     0.149 HD
ENDBRANCH   6  13
BRANCH   5  18
ATOM     18  N   LIG d   1       6.039  88.628 112.791  0.00  0.00     0.381 N 
ATOM     19  H   LIG d   1       6.250  89.598 112.667  0.00  0.00    -0.090 HD
ATOM     20  H   LIG d   1       6.074  88.180 111.893  0.00  0.00    -0.090 HD
ATOM     21  H   LIG d   1       6.705  88.212 113.405  0.00  0.00    -0.090 HD
ENDBRANCH   5  18
BRANCH   3  22
ATOM     22  C   LIG d   1       1.576  87.132 111.908  0.00  0.00     0.382 C 
ATOM     23  O   LIG d   1       1.855  86.841 110.720  0.00  0.00    -0.241 OA
ATOM     24  O   LIG d   1       0.386  87.303 112.234  0.00  0.00    -0.241 OA
ENDBRANCH   3  22
TORSDOF 7
ENDMDL
MODEL 7
REMARK VINA RESULT:      -4.7      6.824      8.798
REMARK  7 active torsions:
REMARK  status: ('A' for Active; 'I' for Inactive)
REMARK    1  A    between atoms: C_2  and  C_3 
REMARK    2  A    between atoms: C_3  and  O_6 
REMARK    3  A    between atoms: C_3  and  C_4 
REMARK    4  A    between atoms: C_7  and  O_6 
REMARK    5  A    between atoms: C_9  and  C_10 
REMARK    6  A    between atoms: N_15  and  C_14 
REMARK    7  A    between atoms: N_20  and  C_19 
REMARK       I    between atoms: C_22  and  N_20 
ROOT
ATOM      1  C   LIG d   1      -2.590  78.828 115.511  0.00  0.00     0.161 C 
ATOM      2  C   LIG d   1      -1.320  79.336 115.831  0.00  0.00     0.016 C 
ATOM      3  C   LIG d   1      -0.321  78.578 116.484  0.00  0.00     0.038 C 
ATOM      4  C   LIG d   1      -0.472  77.205 116.727  0.00  0.00     0.028 C 
ATOM      5  C   LIG d   1      -1.927  76.773 116.876  0.00  0.00    -0.047 C 
ATOM      6  C   LIG d   1      -2.733  77.299 115.668  0.00  0.00     0.091 C 
ENDROOT
BRANCH   1   7
ATOM      7  O   LIG d   1      -2.955  79.231 114.176  0.00  0.00    -0.368 OA
BRANCH   7   8
ATOM      8  C   LIG d   1      -1.946  79.037 113.154  0.00  0.00     0.119 C 
BRANCH   8   9
ATOM      9  C   LIG d   1      -1.585  80.425 112.591  0.00  0.00     0.028 C 
ATOM     10  C   LIG d   1      -2.655  81.483 112.906  0.00  0.00     0.006 C 
ENDBRANCH   8   9
BRANCH   8  11
ATOM     11  C   LIG d   1      -2.503  78.249 111.964  0.00  0.00     0.028 C 
ATOM     12  C   LIG d   1      -1.574  78.283 110.740  0.00  0.00     0.006 C 
ENDBRANCH   8  11
ENDBRANCH   7   8
ENDBRANCH   1   7
BRANCH   6  13
ATOM     13  N   LIG d   1      -4.184  76.993 115.777  0.00  0.00    -0.311 N 
ATOM     14  C   LIG d   1      -4.806  76.107 115.001  0.00  0.00     0.210 C 
ATOM     15  C   LIG d   1      -6.307  75.957 115.266  0.00  0.00     0.109 C 
ATOM     16  O   LIG d   1      -4.251  75.407 114.140  0.00  0.00    -0.276 OA
ATOM     17  H   LIG d   1      -4.705  77.492 116.471  0.00  0.00     0.149 HD
ENDBRANCH   6  13
BRANCH   5  18
ATOM     18  N   LIG d   1      -1.945  75.302 116.987  0.00  0.00     0.381 N 
ATOM     19  H   LIG d   1      -1.352  75.011 117.738  0.00  0.00    -0.090 HD
ATOM     20  H   LIG d   1      -1.591  74.907 116.134  0.00  0.00    -0.090 HD
ATOM     21  H   LIG d   1      -2.876  74.984 117.147  0.00  0.00    -0.090 HD
ENDBRANCH   5  18
BRANCH   3  22
ATOM     22  C   LIG d   1       0.830  79.205 116.938  0.00  0.00     0.382 C 
ATOM     23  O   LIG d   1       0.883  80.457 116.991  0.00  0.00    -0.241 OA
ATOM     24  O   LIG d   1       1.832  78.535 117.253  0.00  0.00    -0.241 OA
ENDBRANCH   3  22
TORSDOF 7
ENDMDL
MODEL 8
REMARK VINA RESULT:      -4.7      6.065      9.079
REMARK  7 active torsions:
REMARK  status: ('A' for Active; 'I' for Inactive)
REMARK    1  A    between atoms: C_2  and  C_3 
REMARK    2  A    between atoms: C_3  and  O_6 
REMARK    3  A    between atoms: C_3  and  C_4 
REMARK    4  A    between atoms: C_7  and  O_6 
REMARK    5  A    between atoms: C_9  and  C_10 
REMARK    6  A    between atoms: N_15  and  C_14 
REMARK    7  A    between atoms: N_20  and  C_19 
REMARK       I    between atoms: C_22  and  N_20 
ROOT
ATOM      1  C   LIG d   1      -1.544  78.089 114.663  0.00  0.00     0.161 C 
ATOM      2  C   LIG d   1      -2.752  77.446 114.345  0.00  0.00     0.016 C 
ATOM      3  C   LIG d   1      -3.419  76.563 115.224  0.00  0.00     0.038 C 
ATOM      4  C   LIG d   1      -2.997  76.378 116.550  0.00  0.00     0.028 C 
ATOM      5  C   LIG d   1      -1.504  76.614 116.749  0.00  0.00    -0.047 C 
ATOM      6  C   LIG d   1      -1.127  77.986 116.145  0.00  0.00     0.091 C 
ENDROOT
BRANCH   1   7
ATOM      7  O   LIG d   1      -1.602  79.470 114.253  0.00  0.00    -0.368 OA
BRANCH   7   8
ATOM      8  C   LIG d   1      -2.253  79.731 112.986  0.00  0.00     0.119 C 
BRANCH   8   9
ATOM      9  C   LIG d   1      -1.232  79.432 111.870  0.00  0.00     0.028 C 
ATOM     10  C   LIG d   1      -1.713  78.326 110.917  0.00  0.00     0.006 C 
ENDBRANCH   8   9
BRANCH   8  11
ATOM     11  C   LIG d   1      -2.598  81.216 112.832  0.00  0.00     0.028 C 
ATOM     12  C   LIG d   1      -1.400  82.061 112.372  0.00  0.00     0.006 C 
ENDBRANCH   8  11
ENDBRANCH   7   8
ENDBRANCH   1   7
BRANCH   6  13
ATOM     13  N   LIG d   1       0.332  78.259 116.222  0.00  0.00    -0.311 N 
ATOM     14  C   LIG d   1       0.840  79.412 116.653  0.00  0.00     0.210 C 
ATOM     15  C   LIG d   1       2.370  79.491 116.634  0.00  0.00     0.109 C 
ATOM     16  O   LIG d   1       0.171  80.365 117.080  0.00  0.00    -0.276 OA
ATOM     17  H   LIG d   1       0.948  77.528 115.925  0.00  0.00     0.149 HD
ENDBRANCH   6  13
BRANCH   5  18
ATOM     18  N   LIG d   1      -1.228  76.523 118.195  0.00  0.00     0.381 N 
ATOM     19  H   LIG d   1      -1.423  77.401 118.633  0.00  0.00    -0.090 HD
ATOM     20  H   LIG d   1      -0.253  76.315 118.328  0.00  0.00    -0.090 HD
ATOM     21  H   LIG d   1      -1.786  75.808 118.605  0.00  0.00    -0.090 HD
ENDBRANCH   5  18
BRANCH   3  22
ATOM     22  C   LIG d   1      -4.498  75.822 114.767  0.00  0.00     0.382 C 
ATOM     23  O   LIG d   1      -5.171  76.232 113.790  0.00  0.00    -0.241 OA
ATOM     24  O   LIG d   1      -4.834  74.772 115.346  0.00  0.00    -0.241 OA
ENDBRANCH   3  22
TORSDOF 7
ENDMDL
MODEL 9
REMARK VINA RESULT:      -4.6      2.266      4.488
REMARK  7 active torsions:
REMARK  status: ('A' for Active; 'I' for Inactive)
REMARK    1  A    between atoms: C_2  and  C_3 
REMARK    2  A    between atoms: C_3  and  O_6 
REMARK    3  A    between atoms: C_3  and  C_4 
REMARK    4  A    between atoms: C_7  and  O_6 
REMARK    5  A    between atoms: C_9  and  C_10 
REMARK    6  A    between atoms: N_15  and  C_14 
REMARK    7  A    between atoms: N_20  and  C_19 
REMARK       I    between atoms: C_22  and  N_20 
ROOT
ATOM      1  C   LIG d   1       2.570  85.719 114.566  0.00  0.00     0.161 C 
ATOM      2  C   LIG d   1       3.328  86.900 114.504  0.00  0.00     0.016 C 
ATOM      3  C   LIG d   1       3.524  87.637 113.313  0.00  0.00     0.038 C 
ATOM      4  C   LIG d   1       2.845  87.322 112.126  0.00  0.00     0.028 C 
ATOM      5  C   LIG d   1       2.468  85.848 112.017  0.00  0.00    -0.047 C 
ATOM      6  C   LIG d   1       1.731  85.421 113.306  0.00  0.00     0.091 C 
ENDROOT
BRANCH   1   7
ATOM      7  O   LIG d   1       1.728  85.740 115.736  0.00  0.00    -0.368 OA
BRANCH   7   8
ATOM      8  C   LIG d   1       1.935  84.670 116.691  0.00  0.00     0.119 C 
BRANCH   8   9
ATOM      9  C   LIG d   1       1.808  85.278 118.101  0.00  0.00     0.028 C 
ATOM     10  C   LIG d   1       1.288  86.725 118.072  0.00  0.00     0.006 C 
ENDBRANCH   8   9
BRANCH   8  11
ATOM     11  C   LIG d   1       3.364  84.123 116.612  0.00  0.00     0.028 C 
ATOM     12  C   LIG d   1       3.417  82.588 116.665  0.00  0.00     0.006 C 
ENDBRANCH   8  11
ENDBRANCH   7   8
ENDBRANCH   1   7
BRANCH   6  13
ATOM     13  N   LIG d   1       1.402  83.972 113.317  0.00  0.00    -0.311 N 
ATOM     14  C   LIG d   1       2.313  83.012 113.168  0.00  0.00     0.210 C 
ATOM     15  C   LIG d   1       1.757  81.584 113.190  0.00  0.00     0.109 C 
ATOM     16  O   LIG d   1       3.532  83.206 113.052  0.00  0.00    -0.276 OA
ATOM     17  H   LIG d   1       0.439  83.724 113.437  0.00  0.00     0.149 HD
ENDBRANCH   6  13
BRANCH   5  18
ATOM     18  N   LIG d   1       1.648  85.687 110.801  0.00  0.00     0.381 N 
ATOM     19  H   LIG d   1       1.841  84.802 110.378  0.00  0.00    -0.090 HD
ATOM     20  H   LIG d   1       1.892  86.410 110.146  0.00  0.00    -0.090 HD
ATOM     21  H   LIG d   1       0.681  85.750 111.032  0.00  0.00    -0.090 HD
ENDBRANCH   5  18
BRANCH   3  22
ATOM     22  C   LIG d   1       4.438  88.679 113.292  0.00  0.00     0.382 C 
ATOM     23  O   LIG d   1       5.534  88.539 112.698  0.00  0.00    -0.241 OA
ATOM     24  O   LIG d   1       4.199  89.741 113.898  0.00  0.00    -0.241 OA
ENDBRANCH   3  22
TORSDOF 7
ENDMDL
