MODEL 1
REMARK VINA RESULT:      -5.9      0.000      0.000
REMARK  7 active torsions:
REMARK  status: ('A' for Active; 'I' for Inactive)
REMARK    1  A    between atoms: C_2  and  C_3 
REMARK    2  A    between atoms: C_3  and  O_6 
REMARK    3  A    between atoms: C_3  and  C_4 
REMARK    4  A    between atoms: C_7  and  O_6 
REMARK    5  A    between atoms: C_9  and  C_10 
REMARK    6  A    between atoms: N_15  and  C_14 
REMARK    7  A    between atoms: N_20  and  C_19 
REMARK       I    between atoms: C_22  and  N_20 
ROOT
ATOM      1  C   LIG d   1      -3.026  77.076 115.909  0.00  0.00     0.161 C 
ATOM      2  C   LIG d   1      -3.306  78.044 114.930  0.00  0.00     0.016 C 
ATOM      3  C   LIG d   1      -2.478  78.276 113.807  0.00  0.00     0.038 C 
ATOM      4  C   LIG d   1      -1.386  77.448 113.507  0.00  0.00     0.028 C 
ATOM      5  C   LIG d   1      -0.776  76.780 114.735  0.00  0.00    -0.047 C 
ATOM      6  C   LIG d   1      -1.900  76.088 115.540  0.00  0.00     0.091 C 
ENDROOT
BRANCH   1   7
ATOM      7  O   LIG d   1      -4.231  76.360 116.246  0.00  0.00    -0.368 OA
BRANCH   7   8
ATOM      8  C   LIG d   1      -5.276  76.363 115.242  0.00  0.00     0.119 C 
BRANCH   8   9
ATOM      9  C   LIG d   1      -6.621  76.528 115.976  0.00  0.00     0.028 C 
ATOM     10  C   LIG d   1      -6.565  77.606 117.071  0.00  0.00     0.006 C 
ENDBRANCH   8   9
BRANCH   8  11
ATOM     11  C   LIG d   1      -5.366  75.012 114.527  0.00  0.00     0.028 C 
ATOM     12  C   LIG d   1      -6.040  73.928 115.384  0.00  0.00     0.006 C 
ENDBRANCH   8  11
ENDBRANCH   7   8
ENDBRANCH   1   7
BRANCH   6  13
ATOM     13  N   LIG d   1      -1.402  75.482 116.802  0.00  0.00    -0.311 N 
ATOM     14  C   LIG d   1      -0.985  74.220 116.895  0.00  0.00     0.210 C 
ATOM     15  C   LIG d   1      -0.531  73.790 118.293  0.00  0.00     0.109 C 
ATOM     16  O   LIG d   1      -0.918  73.426 115.945  0.00  0.00    -0.276 OA
ATOM     17  H   LIG d   1      -1.392  76.065 117.616  0.00  0.00     0.149 HD
ENDBRANCH   6  13
BRANCH   5  18
ATOM     18  N   LIG d   1       0.260  75.842 114.264  0.00  0.00     0.381 N 
ATOM     19  H   LIG d   1      -0.053  75.383 113.432  0.00  0.00    -0.090 HD
ATOM     20  H   LIG d   1       0.412  75.144 114.971  0.00  0.00    -0.090 HD
ATOM     21  H   LIG d   1       1.108  76.332 114.083  0.00  0.00    -0.090 HD
ENDBRANCH   5  18
BRANCH   3  22
ATOM     22  C   LIG d   1      -2.716  79.373 112.993  0.00  0.00     0.382 C 
ATOM     23  O   LIG d   1      -3.252  80.402 113.469  0.00  0.00    -0.241 OA
ATOM     24  O   LIG d   1      -2.443  79.329 111.778  0.00  0.00    -0.241 OA
ENDBRANCH   3  22
TORSDOF 7
ENDMDL
MODEL 2
REMARK VINA RESULT:      -5.4      8.810     11.267
REMARK  7 active torsions:
REMARK  status: ('A' for Active; 'I' for Inactive)
REMARK    1  A    between atoms: C_2  and  C_3 
REMARK    2  A    between atoms: C_3  and  O_6 
REMARK    3  A    between atoms: C_3  and  C_4 
REMARK    4  A    between atoms: C_7  and  O_6 
REMARK    5  A    between atoms: C_9  and  C_10 
REMARK    6  A    between atoms: N_15  and  C_14 
REMARK    7  A    between atoms: N_20  and  C_19 
REMARK       I    between atoms: C_22  and  N_20 
ROOT
ATOM      1  C   LIG d   1       3.112  85.587 112.721  0.00  0.00     0.161 C 
ATOM      2  C   LIG d   1       3.565  86.896 112.957  0.00  0.00     0.016 C 
ATOM      3  C   LIG d   1       3.857  87.398 114.246  0.00  0.00     0.038 C 
ATOM      4  C   LIG d   1       3.861  86.572 115.380  0.00  0.00     0.028 C 
ATOM      5  C   LIG d   1       2.924  85.375 115.261  0.00  0.00    -0.047 C 
ATOM      6  C   LIG d   1       3.217  84.639 113.934  0.00  0.00     0.091 C 
ENDROOT
BRANCH   1   7
ATOM      7  O   LIG d   1       3.803  85.029 111.587  0.00  0.00    -0.368 OA
BRANCH   7   8
ATOM      8  C   LIG d   1       3.013  84.846 110.386  0.00  0.00     0.119 C 
BRANCH   8   9
ATOM      9  C   LIG d   1       1.599  85.384 110.676  0.00  0.00     0.028 C 
ATOM     10  C   LIG d   1       0.498  84.492 110.077  0.00  0.00     0.006 C 
ENDBRANCH   8   9
BRANCH   8  11
ATOM     11  C   LIG d   1       2.824  83.360 110.064  0.00  0.00     0.028 C 
ATOM     12  C   LIG d   1       4.006  82.495 110.529  0.00  0.00     0.006 C 
ENDBRANCH   8  11
ENDBRANCH   7   8
ENDBRANCH   1   7
BRANCH   6  13
ATOM     13  N   LIG d   1       2.287  83.504 113.698  0.00  0.00    -0.311 N 
ATOM     14  C   LIG d   1       2.589  82.238 113.982  0.00  0.00     0.210 C 
ATOM     15  C   LIG d   1       1.495  81.220 113.642  0.00  0.00     0.109 C 
ATOM     16  O   LIG d   1       3.645  81.865 114.514  0.00  0.00    -0.276 OA
ATOM     17  H   LIG d   1       1.395  83.720 113.298  0.00  0.00     0.149 HD
ENDBRANCH   6  13
BRANCH   5  18
ATOM     18  N   LIG d   1       3.130  84.528 116.450  0.00  0.00     0.381 N 
ATOM     19  H   LIG d   1       2.926  83.574 116.226  0.00  0.00    -0.090 HD
ATOM     20  H   LIG d   1       2.498  84.823 117.173  0.00  0.00    -0.090 HD
ATOM     21  H   LIG d   1       4.071  84.608 116.768  0.00  0.00    -0.090 HD
ENDBRANCH   5  18
BRANCH   3  22
ATOM     22  C   LIG d   1       4.111  88.751 114.416  0.00  0.00     0.382 C 
ATOM     23  O   LIG d   1       3.953  89.282 115.541  0.00  0.00    -0.241 OA
ATOM     24  O   LIG d   1       4.454  89.455 113.448  0.00  0.00    -0.241 OA
ENDBRANCH   3  22
TORSDOF 7
ENDMDL
MODEL 3
REMARK VINA RESULT:      -5.4      3.221      6.688
REMARK  7 active torsions:
REMARK  status: ('A' for Active; 'I' for Inactive)
REMARK    1  A    between atoms: C_2  and  C_3 
REMARK    2  A    between atoms: C_3  and  O_6 
REMARK    3  A    between atoms: C_3  and  C_4 
REMARK    4  A    between atoms: C_7  and  O_6 
REMARK    5  A    between atoms: C_9  and  C_10 
REMARK    6  A    between atoms: N_15  and  C_14 
REMARK    7  A    between atoms: N_20  and  C_19 
REMARK       I    between atoms: C_22  and  N_20 
ROOT
ATOM      1  C   LIG d   1      -5.609  75.918 115.943  0.00  0.00     0.161 C 
ATOM      2  C   LIG d   1      -6.210  74.680 115.661  0.00  0.00     0.016 C 
ATOM      3  C   LIG d   1      -7.476  74.297 116.161  0.00  0.00     0.038 C 
ATOM      4  C   LIG d   1      -8.300  75.193 116.857  0.00  0.00     0.028 C 
ATOM      5  C   LIG d   1      -7.525  76.280 117.595  0.00  0.00    -0.047 C 
ATOM      6  C   LIG d   1      -6.541  76.952 116.610  0.00  0.00     0.091 C 
ENDROOT
BRANCH   1   7
ATOM      7  O   LIG d   1      -5.032  76.466 114.742  0.00  0.00    -0.368 OA
BRANCH   7   8
ATOM      8  C   LIG d   1      -3.609  76.256 114.565  0.00  0.00     0.119 C 
BRANCH   8   9
ATOM      9  C   LIG d   1      -3.019  75.902 115.944  0.00  0.00     0.028 C 
ATOM     10  C   LIG d   1      -1.971  74.780 115.863  0.00  0.00     0.006 C 
ENDBRANCH   8   9
BRANCH   8  11
ATOM     11  C   LIG d   1      -2.904  77.548 114.142  0.00  0.00     0.028 C 
ATOM     12  C   LIG d   1      -2.727  77.660 112.620  0.00  0.00     0.006 C 
ENDBRANCH   8  11
ENDBRANCH   7   8
ENDBRANCH   1   7
BRANCH   6  13
ATOM     13  N   LIG d   1      -5.684  77.970 117.270  0.00  0.00    -0.311 N 
ATOM     14  C   LIG d   1      -6.106  79.195 117.578  0.00  0.00     0.210 C 
ATOM     15  C   LIG d   1      -5.055  80.094 118.237  0.00  0.00     0.109 C 
ATOM     16  O   LIG d   1      -7.259  79.612 117.398  0.00  0.00    -0.276 OA
ATOM     17  H   LIG d   1      -4.742  77.705 117.482  0.00  0.00     0.149 HD
ENDBRANCH   6  13
BRANCH   5  18
ATOM     18  N   LIG d   1      -8.508  77.222 118.162  0.00  0.00     0.381 N 
ATOM     19  H   LIG d   1      -9.409  76.787 118.204  0.00  0.00    -0.090 HD
ATOM     20  H   LIG d   1      -8.573  78.025 117.562  0.00  0.00    -0.090 HD
ATOM     21  H   LIG d   1      -8.225  77.503 119.075  0.00  0.00    -0.090 HD
ENDBRANCH   5  18
BRANCH   3  22
ATOM     22  C   LIG d   1      -7.913  72.991 115.998  0.00  0.00     0.382 C 
ATOM     23  O   LIG d   1      -7.080  72.068 115.829  0.00  0.00    -0.241 OA
ATOM     24  O   LIG d   1      -9.131  72.731 115.974  0.00  0.00    -0.241 OA
ENDBRANCH   3  22
TORSDOF 7
ENDMDL
MODEL 4
REMARK VINA RESULT:      -5.1      7.808     10.187
REMARK  7 active torsions:
REMARK  status: ('A' for Active; 'I' for Inactive)
REMARK    1  A    between atoms: C_2  and  C_3 
REMARK    2  A    between atoms: C_3  and  O_6 
REMARK    3  A    between atoms: C_3  and  C_4 
REMARK    4  A    between atoms: C_7  and  O_6 
REMARK    5  A    between atoms: C_9  and  C_10 
REMARK    6  A    between atoms: N_15  and  C_14 
REMARK    7  A    between atoms: N_20  and  C_19 
REMARK       I    between atoms: C_22  and  N_20 
ROOT
ATOM      1  C   LIG d   1       2.254  84.108 113.428  0.00  0.00     0.161 C 
ATOM      2  C   LIG d   1       2.838  85.215 114.066  0.00  0.00     0.016 C 
ATOM      3  C   LIG d   1       2.911  86.501 113.483  0.00  0.00     0.038 C 
ATOM      4  C   LIG d   1       2.265  86.805 112.275  0.00  0.00     0.028 C 
ATOM      5  C   LIG d   1       2.097  85.598 111.358  0.00  0.00    -0.047 C 
ATOM      6  C   LIG d   1       1.446  84.447 112.157  0.00  0.00     0.091 C 
ENDROOT
BRANCH   1   7
ATOM      7  O   LIG d   1       1.434  83.381 114.364  0.00  0.00    -0.368 OA
BRANCH   7   8
ATOM      8  C   LIG d   1       1.796  81.995 114.586  0.00  0.00     0.119 C 
BRANCH   8   9
ATOM      9  C   LIG d   1       1.859  81.772 116.109  0.00  0.00     0.028 C 
ATOM     10  C   LIG d   1       1.419  83.014 116.903  0.00  0.00     0.006 C 
ENDBRANCH   8   9
BRANCH   8  11
ATOM     11  C   LIG d   1       3.208  81.700 114.074  0.00  0.00     0.028 C 
ATOM     12  C   LIG d   1       4.013  80.804 115.029  0.00  0.00     0.006 C 
ENDBRANCH   8  11
ENDBRANCH   7   8
ENDBRANCH   1   7
BRANCH   6  13
ATOM     13  N   LIG d   1       1.323  83.200 111.357  0.00  0.00    -0.311 N 
ATOM     14  C   LIG d   1       0.203  82.482 111.287  0.00  0.00     0.210 C 
ATOM     15  C   LIG d   1       0.297  81.221 110.422  0.00  0.00     0.109 C 
ATOM     16  O   LIG d   1      -0.868  82.787 111.832  0.00  0.00    -0.276 OA
ATOM     17  H   LIG d   1       2.136  82.897 110.857  0.00  0.00     0.149 HD
ENDBRANCH   6  13
BRANCH   5  18
ATOM     18  N   LIG d   1       1.290  86.027 110.200  0.00  0.00     0.381 N 
ATOM     19  H   LIG d   1       1.877  86.476 109.526  0.00  0.00    -0.090 HD
ATOM     20  H   LIG d   1       0.603  86.691 110.511  0.00  0.00    -0.090 HD
ATOM     21  H   LIG d   1       0.839  85.240 109.788  0.00  0.00    -0.090 HD
ENDBRANCH   5  18
BRANCH   3  22
ATOM     22  C   LIG d   1       3.670  87.489 114.091  0.00  0.00     0.382 C 
ATOM     23  O   LIG d   1       4.045  88.487 113.430  0.00  0.00    -0.241 OA
ATOM     24  O   LIG d   1       4.021  87.374 115.281  0.00  0.00    -0.241 OA
ENDBRANCH   3  22
TORSDOF 7
ENDMDL
MODEL 5
REMARK VINA RESULT:      -5.0      2.462      5.719
REMARK  7 active torsions:
REMARK  status: ('A' for Active; 'I' for Inactive)
REMARK    1  A    between atoms: C_2  and  C_3 
REMARK    2  A    between atoms: C_3  and  O_6 
REMARK    3  A    between atoms: C_3  and  C_4 
REMARK    4  A    between atoms: C_7  and  O_6 
REMARK    5  A    between atoms: C_9  and  C_10 
REMARK    6  A    between atoms: N_15  and  C_14 
REMARK    7  A    between atoms: N_20  and  C_19 
REMARK       I    between atoms: C_22  and  N_20 
ROOT
ATOM      1  C   LIG d   1      -3.863  75.892 115.925  0.00  0.00     0.161 C 
ATOM      2  C   LIG d   1      -4.803  74.881 115.665  0.00  0.00     0.016 C 
ATOM      3  C   LIG d   1      -6.191  75.034 115.887  0.00  0.00     0.038 C 
ATOM      4  C   LIG d   1      -6.753  76.269 116.243  0.00  0.00     0.028 C 
ATOM      5  C   LIG d   1      -5.791  77.176 117.003  0.00  0.00    -0.047 C 
ATOM      6  C   LIG d   1      -4.469  77.282 116.209  0.00  0.00     0.091 C 
ENDROOT
BRANCH   1   7
ATOM      7  O   LIG d   1      -2.917  75.970 114.840  0.00  0.00    -0.368 OA
BRANCH   7   8
ATOM      8  C   LIG d   1      -1.517  75.934 115.211  0.00  0.00     0.119 C 
BRANCH   8   9
ATOM      9  C   LIG d   1      -0.718  76.587 114.067  0.00  0.00     0.028 C 
ATOM     10  C   LIG d   1      -1.623  77.318 113.061  0.00  0.00     0.006 C 
ENDBRANCH   8   9
BRANCH   8  11
ATOM     11  C   LIG d   1      -1.000  74.495 115.296  0.00  0.00     0.028 C 
ATOM     12  C   LIG d   1      -0.876  73.990 116.743  0.00  0.00     0.006 C 
ENDBRANCH   8  11
ENDBRANCH   7   8
ENDBRANCH   1   7
BRANCH   6  13
ATOM     13  N   LIG d   1      -3.441  78.083 116.924  0.00  0.00    -0.311 N 
ATOM     14  C   LIG d   1      -2.817  79.127 116.380  0.00  0.00     0.210 C 
ATOM     15  C   LIG d   1      -1.778  79.800 117.282  0.00  0.00     0.109 C 
ATOM     16  O   LIG d   1      -3.047  79.578 115.248  0.00  0.00    -0.276 OA
ATOM     17  H   LIG d   1      -3.215  77.806 117.859  0.00  0.00     0.149 HD
ENDBRANCH   6  13
BRANCH   5  18
ATOM     18  N   LIG d   1      -6.459  78.478 117.191  0.00  0.00     0.381 N 
ATOM     19  H   LIG d   1      -6.833  78.795 116.319  0.00  0.00    -0.090 HD
ATOM     20  H   LIG d   1      -5.781  79.149 117.506  0.00  0.00    -0.090 HD
ATOM     21  H   LIG d   1      -7.190  78.392 117.863  0.00  0.00    -0.090 HD
ENDBRANCH   5  18
BRANCH   3  22
ATOM     22  C   LIG d   1      -7.028  73.933 115.790  0.00  0.00     0.382 C 
ATOM     23  O   LIG d   1      -6.549  72.802 115.535  0.00  0.00    -0.241 OA
ATOM     24  O   LIG d   1      -8.261  74.064 115.910  0.00  0.00    -0.241 OA
ENDBRANCH   3  22
TORSDOF 7
ENDMDL
MODEL 6
REMARK VINA RESULT:      -5.0     21.921     24.417
REMARK  7 active torsions:
REMARK  status: ('A' for Active; 'I' for Inactive)
REMARK    1  A    between atoms: C_2  and  C_3 
REMARK    2  A    between atoms: C_3  and  O_6 
REMARK    3  A    between atoms: C_3  and  C_4 
REMARK    4  A    between atoms: C_7  and  O_6 
REMARK    5  A    between atoms: C_9  and  C_10 
REMARK    6  A    between atoms: N_15  and  C_14 
REMARK    7  A    between atoms: N_20  and  C_19 
REMARK       I    between atoms: C_22  and  N_20 
ROOT
ATOM      1  C   LIG d   1     -25.763  85.883 113.574  0.00  0.00     0.161 C 
ATOM      2  C   LIG d   1     -24.676  86.772 113.617  0.00  0.00     0.016 C 
ATOM      3  C   LIG d   1     -23.359  86.375 113.947  0.00  0.00     0.038 C 
ATOM      4  C   LIG d   1     -23.010  85.026 114.108  0.00  0.00     0.028 C 
ATOM      5  C   LIG d   1     -24.171  84.151 114.570  0.00  0.00    -0.047 C 
ATOM      6  C   LIG d   1     -25.381  84.390 113.638  0.00  0.00     0.091 C 
ENDROOT
BRANCH   1   7
ATOM      7  O   LIG d   1     -26.562  86.146 112.403  0.00  0.00    -0.368 OA
BRANCH   7   8
ATOM      8  C   LIG d   1     -26.058  87.163 111.503  0.00  0.00     0.119 C 
BRANCH   8   9
ATOM      9  C   LIG d   1     -27.135  88.261 111.395  0.00  0.00     0.028 C 
ATOM     10  C   LIG d   1     -26.728  89.390 110.434  0.00  0.00     0.006 C 
ENDBRANCH   8   9
BRANCH   8  11
ATOM     11  C   LIG d   1     -25.893  86.617 110.082  0.00  0.00     0.028 C 
ATOM     12  C   LIG d   1     -25.337  85.184 110.055  0.00  0.00     0.006 C 
ENDBRANCH   8  11
ENDBRANCH   7   8
ENDBRANCH   1   7
BRANCH   6  13
ATOM     13  N   LIG d   1     -26.586  83.635 114.070  0.00  0.00    -0.311 N 
ATOM     14  C   LIG d   1     -27.346  82.928 113.236  0.00  0.00     0.210 C 
ATOM     15  C   LIG d   1     -28.553  82.243 113.884  0.00  0.00     0.109 C 
ATOM     16  O   LIG d   1     -27.117  82.776 112.027  0.00  0.00    -0.276 OA
ATOM     17  H   LIG d   1     -26.828  83.678 115.041  0.00  0.00     0.149 HD
ENDBRANCH   6  13
BRANCH   5  18
ATOM     18  N   LIG d   1     -23.704  82.752 114.564  0.00  0.00     0.381 N 
ATOM     19  H   LIG d   1     -24.452  82.144 114.832  0.00  0.00    -0.090 HD
ATOM     20  H   LIG d   1     -22.962  82.654 115.234  0.00  0.00    -0.090 HD
ATOM     21  H   LIG d   1     -23.376  82.506 113.656  0.00  0.00    -0.090 HD
ENDBRANCH   5  18
BRANCH   3  22
ATOM     22  C   LIG d   1     -22.383  87.337 114.156  0.00  0.00     0.382 C 
ATOM     23  O   LIG d   1     -22.524  88.184 115.072  0.00  0.00    -0.241 OA
ATOM     24  O   LIG d   1     -21.385  87.397 113.414  0.00  0.00    -0.241 OA
ENDBRANCH   3  22
TORSDOF 7
ENDMDL
MODEL 7
REMARK VINA RESULT:      -4.5      8.412     10.313
REMARK  7 active torsions:
REMARK  status: ('A' for Active; 'I' for Inactive)
REMARK    1  A    between atoms: C_2  and  C_3 
REMARK    2  A    between atoms: C_3  and  O_6 
REMARK    3  A    between atoms: C_3  and  C_4 
REMARK    4  A    between atoms: C_7  and  O_6 
REMARK    5  A    between atoms: C_9  and  C_10 
REMARK    6  A    between atoms: N_15  and  C_14 
REMARK    7  A    between atoms: N_20  and  C_19 
REMARK       I    between atoms: C_22  and  N_20 
ROOT
ATOM      1  C   LIG d   1       3.686  84.198 114.096  0.00  0.00     0.161 C 
ATOM      2  C   LIG d   1       3.180  85.347 113.465  0.00  0.00     0.016 C 
ATOM      3  C   LIG d   1       1.960  85.369 112.751  0.00  0.00     0.038 C 
ATOM      4  C   LIG d   1       1.083  84.275 112.748  0.00  0.00     0.028 C 
ATOM      5  C   LIG d   1       1.785  82.935 112.946  0.00  0.00    -0.047 C 
ATOM      6  C   LIG d   1       2.690  83.024 114.196  0.00  0.00     0.091 C 
ENDROOT
BRANCH   1   7
ATOM      7  O   LIG d   1       4.191  84.540 115.401  0.00  0.00    -0.368 OA
BRANCH   7   8
ATOM      8  C   LIG d   1       3.643  85.738 116.003  0.00  0.00     0.119 C 
BRANCH   8   9
ATOM      9  C   LIG d   1       4.777  86.420 116.793  0.00  0.00     0.028 C 
ATOM     10  C   LIG d   1       4.973  87.891 116.388  0.00  0.00     0.006 C 
ENDBRANCH   8   9
BRANCH   8  11
ATOM     11  C   LIG d   1       2.571  85.399 117.043  0.00  0.00     0.028 C 
ATOM     12  C   LIG d   1       1.160  85.821 116.604  0.00  0.00     0.006 C 
ENDBRANCH   8  11
ENDBRANCH   7   8
ENDBRANCH   1   7
BRANCH   6  13
ATOM     13  N   LIG d   1       3.478  81.783 114.415  0.00  0.00    -0.311 N 
ATOM     14  C   LIG d   1       3.566  81.169 115.593  0.00  0.00     0.210 C 
ATOM     15  C   LIG d   1       4.446  79.915 115.604  0.00  0.00     0.109 C 
ATOM     16  O   LIG d   1       2.973  81.524 116.623  0.00  0.00    -0.276 OA
ATOM     17  H   LIG d   1       3.966  81.408 113.625  0.00  0.00     0.149 HD
ENDBRANCH   6  13
BRANCH   5  18
ATOM     18  N   LIG d   1       0.742  81.898 113.060  0.00  0.00     0.381 N 
ATOM     19  H   LIG d   1       0.563  81.498 112.160  0.00  0.00    -0.090 HD
ATOM     20  H   LIG d   1      -0.106  82.324 113.390  0.00  0.00    -0.090 HD
ATOM     21  H   LIG d   1       1.035  81.189 113.695  0.00  0.00    -0.090 HD
ENDBRANCH   5  18
BRANCH   3  22
ATOM     22  C   LIG d   1       1.625  86.484 111.997  0.00  0.00     0.382 C 
ATOM     23  O   LIG d   1       1.804  87.634 112.465  0.00  0.00    -0.241 OA
ATOM     24  O   LIG d   1       1.105  86.353 110.873  0.00  0.00    -0.241 OA
ENDBRANCH   3  22
TORSDOF 7
ENDMDL
MODEL 8
REMARK VINA RESULT:      -4.5     21.589     23.553
REMARK  7 active torsions:
REMARK  status: ('A' for Active; 'I' for Inactive)
REMARK    1  A    between atoms: C_2  and  C_3 
REMARK    2  A    between atoms: C_3  and  O_6 
REMARK    3  A    between atoms: C_3  and  C_4 
REMARK    4  A    between atoms: C_7  and  O_6 
REMARK    5  A    between atoms: C_9  and  C_10 
REMARK    6  A    between atoms: N_15  and  C_14 
REMARK    7  A    between atoms: N_20  and  C_19 
REMARK       I    between atoms: C_22  and  N_20 
ROOT
ATOM      1  C   LIG d   1     -24.173  84.004 113.524  0.00  0.00     0.161 C 
ATOM      2  C   LIG d   1     -23.219  85.003 113.777  0.00  0.00     0.016 C 
ATOM      3  C   LIG d   1     -23.556  86.344 114.074  0.00  0.00     0.038 C 
ATOM      4  C   LIG d   1     -24.883  86.745 114.288  0.00  0.00     0.028 C 
ATOM      5  C   LIG d   1     -25.902  85.885 113.547  0.00  0.00    -0.047 C 
ATOM      6  C   LIG d   1     -25.627  84.397 113.862  0.00  0.00     0.091 C 
ENDROOT
BRANCH   1   7
ATOM      7  O   LIG d   1     -23.808  82.793 114.215  0.00  0.00    -0.368 OA
BRANCH   7   8
ATOM      8  C   LIG d   1     -24.179  82.722 115.614  0.00  0.00     0.119 C 
BRANCH   8   9
ATOM      9  C   LIG d   1     -22.892  82.461 116.421  0.00  0.00     0.028 C 
ATOM     10  C   LIG d   1     -22.518  83.646 117.328  0.00  0.00     0.006 C 
ENDBRANCH   8   9
BRANCH   8  11
ATOM     11  C   LIG d   1     -25.081  81.516 115.891  0.00  0.00     0.028 C 
ATOM     12  C   LIG d   1     -24.333  80.177 115.796  0.00  0.00     0.006 C 
ENDBRANCH   8  11
ENDBRANCH   7   8
ENDBRANCH   1   7
BRANCH   6  13
ATOM     13  N   LIG d   1     -26.526  83.483 113.111  0.00  0.00    -0.311 N 
ATOM     14  C   LIG d   1     -27.650  82.980 113.619  0.00  0.00     0.210 C 
ATOM     15  C   LIG d   1     -28.419  82.042 112.684  0.00  0.00     0.109 C 
ATOM     16  O   LIG d   1     -28.099  83.246 114.744  0.00  0.00    -0.276 OA
ATOM     17  H   LIG d   1     -26.254  83.239 112.179  0.00  0.00     0.149 HD
ENDBRANCH   6  13
BRANCH   5  18
ATOM     18  N   LIG d   1     -27.246  86.326 113.968  0.00  0.00     0.381 N 
ATOM     19  H   LIG d   1     -27.601  86.996 113.316  0.00  0.00    -0.090 HD
ATOM     20  H   LIG d   1     -27.176  86.767 114.868  0.00  0.00    -0.090 HD
ATOM     21  H   LIG d   1     -27.860  85.544 114.020  0.00  0.00    -0.090 HD
ENDBRANCH   5  18
BRANCH   3  22
ATOM     22  C   LIG d   1     -22.561  87.308 114.120  0.00  0.00     0.382 C 
ATOM     23  O   LIG d   1     -21.511  87.158 113.450  0.00  0.00    -0.241 OA
ATOM     24  O   LIG d   1     -22.680  88.304 114.858  0.00  0.00    -0.241 OA
ENDBRANCH   3  22
TORSDOF 7
ENDMDL
MODEL 9
REMARK VINA RESULT:      -4.4      2.446      4.175
REMARK  7 active torsions:
REMARK  status: ('A' for Active; 'I' for Inactive)
REMARK    1  A    between atoms: C_2  and  C_3 
REMARK    2  A    between atoms: C_3  and  O_6 
REMARK    3  A    between atoms: C_3  and  C_4 
REMARK    4  A    between atoms: C_7  and  O_6 
REMARK    5  A    between atoms: C_9  and  C_10 
REMARK    6  A    between atoms: N_15  and  C_14 
REMARK    7  A    between atoms: N_20  and  C_19 
REMARK       I    between atoms: C_22  and  N_20 
ROOT
ATOM      1  C   LIG d   1      -1.883  77.671 114.615  0.00  0.00     0.161 C 
ATOM      2  C   LIG d   1      -1.078  78.691 114.080  0.00  0.00     0.016 C 
ATOM      3  C   LIG d   1      -1.345  79.326 112.845  0.00  0.00     0.038 C 
ATOM      4  C   LIG d   1      -2.528  79.088 112.129  0.00  0.00     0.028 C 
ATOM      5  C   LIG d   1      -3.118  77.704 112.378  0.00  0.00    -0.047 C 
ATOM      6  C   LIG d   1      -3.238  77.476 113.902  0.00  0.00     0.091 C 
ENDROOT
BRANCH   1   7
ATOM      7  O   LIG d   1      -2.086  77.897 116.024  0.00  0.00    -0.368 OA
BRANCH   7   8
ATOM      8  C   LIG d   1      -1.830  76.768 116.894  0.00  0.00     0.119 C 
BRANCH   8   9
ATOM      9  C   LIG d   1      -1.198  77.315 118.188  0.00  0.00     0.028 C 
ATOM     10  C   LIG d   1      -0.552  78.696 117.988  0.00  0.00     0.006 C 
ENDBRANCH   8   9
BRANCH   8  11
ATOM     11  C   LIG d   1      -0.779  75.829 116.294  0.00  0.00     0.028 C 
ATOM     12  C   LIG d   1      -1.239  74.363 116.260  0.00  0.00     0.006 C 
ENDBRANCH   8  11
ENDBRANCH   7   8
ENDBRANCH   1   7
BRANCH   6  13
ATOM     13  N   LIG d   1      -3.728  76.113 114.234  0.00  0.00    -0.311 N 
ATOM     14  C   LIG d   1      -5.010  75.829 114.457  0.00  0.00     0.210 C 
ATOM     15  C   LIG d   1      -5.298  74.365 114.804  0.00  0.00     0.109 C 
ATOM     16  O   LIG d   1      -5.941  76.644 114.369  0.00  0.00    -0.276 OA
ATOM     17  H   LIG d   1      -3.044  75.384 114.296  0.00  0.00     0.149 HD
ENDBRANCH   6  13
BRANCH   5  18
ATOM     18  N   LIG d   1      -4.416  77.641 111.680  0.00  0.00     0.381 N 
ATOM     19  H   LIG d   1      -4.376  78.183 110.840  0.00  0.00    -0.090 HD
ATOM     20  H   LIG d   1      -5.124  78.034 112.275  0.00  0.00    -0.090 HD
ATOM     21  H   LIG d   1      -4.641  76.695 111.463  0.00  0.00    -0.090 HD
ENDBRANCH   5  18
BRANCH   3  22
ATOM     22  C   LIG d   1      -0.403  80.182 112.295  0.00  0.00     0.382 C 
ATOM     23  O   LIG d   1       0.321  80.881 113.044  0.00  0.00    -0.241 OA
ATOM     24  O   LIG d   1      -0.299  80.297 111.059  0.00  0.00    -0.241 OA
ENDBRANCH   3  22
TORSDOF 7
ENDMDL
