MODEL 1
REMARK VINA RESULT:      -5.7      0.000      0.000
REMARK  7 active torsions:
REMARK  status: ('A' for Active; 'I' for Inactive)
REMARK    1  A    between atoms: C_2  and  C_3 
REMARK    2  A    between atoms: C_3  and  O_6 
REMARK    3  A    between atoms: C_3  and  C_4 
REMARK    4  A    between atoms: C_7  and  O_6 
REMARK    5  A    between atoms: C_9  and  C_10 
REMARK    6  A    between atoms: N_15  and  C_14 
REMARK    7  A    between atoms: N_20  and  C_19 
REMARK       I    between atoms: C_22  and  N_20 
ROOT
ATOM      1  C   LIG d   1       0.276  83.237 112.199  0.00  0.00     0.161 C 
ATOM      2  C   LIG d   1      -0.972  82.803 112.676  0.00  0.00     0.016 C 
ATOM      3  C   LIG d   1      -1.502  81.518 112.414  0.00  0.00     0.038 C 
ATOM      4  C   LIG d   1      -0.747  80.521 111.779  0.00  0.00     0.028 C 
ATOM      5  C   LIG d   1       0.319  81.074 110.839  0.00  0.00    -0.047 C 
ATOM      6  C   LIG d   1       1.161  82.124 111.598  0.00  0.00     0.091 C 
ENDROOT
BRANCH   1   7
ATOM      7  O   LIG d   1       0.985  83.931 113.245  0.00  0.00    -0.368 OA
BRANCH   7   8
ATOM      8  C   LIG d   1       0.963  85.378 113.177  0.00  0.00     0.119 C 
BRANCH   8   9
ATOM      9  C   LIG d   1       2.423  85.866 113.258  0.00  0.00     0.028 C 
ATOM     10  C   LIG d   1       2.872  86.586 111.975  0.00  0.00     0.006 C 
ENDBRANCH   8   9
BRANCH   8  11
ATOM     11  C   LIG d   1       0.265  85.983 114.398  0.00  0.00     0.028 C 
ATOM     12  C   LIG d   1       1.230  86.749 115.318  0.00  0.00     0.006 C 
ENDBRANCH   8  11
ENDBRANCH   7   8
ENDBRANCH   1   7
BRANCH   6  13
ATOM     13  N   LIG d   1       2.174  82.776 110.728  0.00  0.00    -0.311 N 
ATOM     14  C   LIG d   1       3.437  82.979 111.097  0.00  0.00     0.210 C 
ATOM     15  C   LIG d   1       4.310  83.686 110.056  0.00  0.00     0.109 C 
ATOM     16  O   LIG d   1       3.926  82.611 112.176  0.00  0.00    -0.276 OA
ATOM     17  H   LIG d   1       1.870  83.078 109.822  0.00  0.00     0.149 HD
ENDBRANCH   6  13
BRANCH   5  18
ATOM     18  N   LIG d   1       1.119  79.934 110.352  0.00  0.00     0.381 N 
ATOM     19  H   LIG d   1       1.431  79.384 111.127  0.00  0.00    -0.090 HD
ATOM     20  H   LIG d   1       1.927  80.286 109.870  0.00  0.00    -0.090 HD
ATOM     21  H   LIG d   1       0.573  79.373 109.736  0.00  0.00    -0.090 HD
ENDBRANCH   5  18
BRANCH   3  22
ATOM     22  C   LIG d   1      -2.815  81.234 112.754  0.00  0.00     0.382 C 
ATOM     23  O   LIG d   1      -3.071  80.278 113.525  0.00  0.00    -0.241 OA
ATOM     24  O   LIG d   1      -3.751  81.894 112.265  0.00  0.00    -0.241 OA
ENDBRANCH   3  22
TORSDOF 7
ENDMDL
MODEL 2
REMARK VINA RESULT:      -5.7      2.469      4.399
REMARK  7 active torsions:
REMARK  status: ('A' for Active; 'I' for Inactive)
REMARK    1  A    between atoms: C_2  and  C_3 
REMARK    2  A    between atoms: C_3  and  O_6 
REMARK    3  A    between atoms: C_3  and  C_4 
REMARK    4  A    between atoms: C_7  and  O_6 
REMARK    5  A    between atoms: C_9  and  C_10 
REMARK    6  A    between atoms: N_15  and  C_14 
REMARK    7  A    between atoms: N_20  and  C_19 
REMARK       I    between atoms: C_22  and  N_20 
ROOT
ATOM      1  C   LIG d   1       2.068  83.741 113.068  0.00  0.00     0.161 C 
ATOM      2  C   LIG d   1       1.159  82.944 112.353  0.00  0.00     0.016 C 
ATOM      3  C   LIG d   1      -0.234  83.183 112.330  0.00  0.00     0.038 C 
ATOM      4  C   LIG d   1      -0.799  84.332 112.902  0.00  0.00     0.028 C 
ATOM      5  C   LIG d   1       0.016  84.895 114.062  0.00  0.00    -0.047 C 
ATOM      6  C   LIG d   1       1.484  85.063 113.607  0.00  0.00     0.091 C 
ENDROOT
BRANCH   1   7
ATOM      7  O   LIG d   1       3.232  84.000 112.259  0.00  0.00    -0.368 OA
BRANCH   7   8
ATOM      8  C   LIG d   1       2.989  84.243 110.852  0.00  0.00     0.119 C 
BRANCH   8   9
ATOM      9  C   LIG d   1       4.060  83.472 110.056  0.00  0.00     0.028 C 
ATOM     10  C   LIG d   1       3.868  81.948 110.139  0.00  0.00     0.006 C 
ENDBRANCH   8   9
BRANCH   8  11
ATOM     11  C   LIG d   1       3.203  85.718 110.496  0.00  0.00     0.028 C 
ATOM     12  C   LIG d   1       1.883  86.488 110.331  0.00  0.00     0.006 C 
ENDBRANCH   8  11
ENDBRANCH   7   8
ENDBRANCH   1   7
BRANCH   6  13
ATOM     13  N   LIG d   1       2.368  85.530 114.707  0.00  0.00    -0.311 N 
ATOM     14  C   LIG d   1       2.923  86.740 114.738  0.00  0.00     0.210 C 
ATOM     15  C   LIG d   1       3.816  87.011 115.953  0.00  0.00     0.109 C 
ATOM     16  O   LIG d   1       2.735  87.627 113.892  0.00  0.00    -0.276 OA
ATOM     17  H   LIG d   1       2.549  84.885 115.452  0.00  0.00     0.149 HD
ENDBRANCH   6  13
BRANCH   5  18
ATOM     18  N   LIG d   1      -0.611  86.165 114.473  0.00  0.00     0.381 N 
ATOM     19  H   LIG d   1      -0.618  86.232 115.471  0.00  0.00    -0.090 HD
ATOM     20  H   LIG d   1      -1.563  86.177 114.150  0.00  0.00    -0.090 HD
ATOM     21  H   LIG d   1      -0.111  86.934 114.084  0.00  0.00    -0.090 HD
ENDBRANCH   5  18
BRANCH   3  22
ATOM     22  C   LIG d   1      -1.083  82.244 111.763  0.00  0.00     0.382 C 
ATOM     23  O   LIG d   1      -2.326  82.365 111.890  0.00  0.00    -0.241 OA
ATOM     24  O   LIG d   1      -0.621  81.254 111.164  0.00  0.00    -0.241 OA
ENDBRANCH   3  22
TORSDOF 7
ENDMDL
MODEL 3
REMARK VINA RESULT:      -5.5      2.197      3.720
REMARK  7 active torsions:
REMARK  status: ('A' for Active; 'I' for Inactive)
REMARK    1  A    between atoms: C_2  and  C_3 
REMARK    2  A    between atoms: C_3  and  O_6 
REMARK    3  A    between atoms: C_3  and  C_4 
REMARK    4  A    between atoms: C_7  and  O_6 
REMARK    5  A    between atoms: C_9  and  C_10 
REMARK    6  A    between atoms: N_15  and  C_14 
REMARK    7  A    between atoms: N_20  and  C_19 
REMARK       I    between atoms: C_22  and  N_20 
ROOT
ATOM      1  C   LIG d   1       0.109  83.316 112.089  0.00  0.00     0.161 C 
ATOM      2  C   LIG d   1      -1.071  82.569 111.938  0.00  0.00     0.016 C 
ATOM      3  C   LIG d   1      -1.994  82.352 112.987  0.00  0.00     0.038 C 
ATOM      4  C   LIG d   1      -1.874  82.997 114.226  0.00  0.00     0.028 C 
ATOM      5  C   LIG d   1      -0.435  83.355 114.586  0.00  0.00    -0.047 C 
ATOM      6  C   LIG d   1       0.202  84.120 113.403  0.00  0.00     0.091 C 
ENDROOT
BRANCH   1   7
ATOM      7  O   LIG d   1       0.284  84.187 110.955  0.00  0.00    -0.368 OA
BRANCH   7   8
ATOM      8  C   LIG d   1       1.405  83.887 110.087  0.00  0.00     0.119 C 
BRANCH   8   9
ATOM      9  C   LIG d   1       2.162  82.695 110.705  0.00  0.00     0.028 C 
ATOM     10  C   LIG d   1       3.661  82.983 110.889  0.00  0.00     0.006 C 
ENDBRANCH   8   9
BRANCH   8  11
ATOM     11  C   LIG d   1       2.414  85.038 110.061  0.00  0.00     0.028 C 
ATOM     12  C   LIG d   1       1.745  86.419 110.144  0.00  0.00     0.006 C 
ENDBRANCH   8  11
ENDBRANCH   7   8
ENDBRANCH   1   7
BRANCH   6  13
ATOM     13  N   LIG d   1       1.635  84.434 113.638  0.00  0.00    -0.311 N 
ATOM     14  C   LIG d   1       2.105  85.676 113.746  0.00  0.00     0.210 C 
ATOM     15  C   LIG d   1       3.618  85.778 113.967  0.00  0.00     0.109 C 
ATOM     16  O   LIG d   1       1.408  86.701 113.714  0.00  0.00    -0.276 OA
ATOM     17  H   LIG d   1       2.266  83.660 113.708  0.00  0.00     0.149 HD
ENDBRANCH   6  13
BRANCH   5  18
ATOM     18  N   LIG d   1      -0.470  84.143 115.832  0.00  0.00     0.381 N 
ATOM     19  H   LIG d   1      -0.465  85.120 115.616  0.00  0.00    -0.090 HD
ATOM     20  H   LIG d   1       0.352  83.935 116.371  0.00  0.00    -0.090 HD
ATOM     21  H   LIG d   1      -1.286  83.916 116.357  0.00  0.00    -0.090 HD
ENDBRANCH   5  18
BRANCH   3  22
ATOM     22  C   LIG d   1      -3.032  81.448 112.813  0.00  0.00     0.382 C 
ATOM     23  O   LIG d   1      -3.922  81.673 111.958  0.00  0.00    -0.241 OA
ATOM     24  O   LIG d   1      -3.112  80.433 113.531  0.00  0.00    -0.241 OA
ENDBRANCH   3  22
TORSDOF 7
ENDMDL
MODEL 4
REMARK VINA RESULT:      -5.4      1.264      2.132
REMARK  7 active torsions:
REMARK  status: ('A' for Active; 'I' for Inactive)
REMARK    1  A    between atoms: C_2  and  C_3 
REMARK    2  A    between atoms: C_3  and  O_6 
REMARK    3  A    between atoms: C_3  and  C_4 
REMARK    4  A    between atoms: C_7  and  O_6 
REMARK    5  A    between atoms: C_9  and  C_10 
REMARK    6  A    between atoms: N_15  and  C_14 
REMARK    7  A    between atoms: N_20  and  C_19 
REMARK       I    between atoms: C_22  and  N_20 
ROOT
ATOM      1  C   LIG d   1      -0.117  83.470 112.209  0.00  0.00     0.161 C 
ATOM      2  C   LIG d   1      -1.334  82.892 112.607  0.00  0.00     0.016 C 
ATOM      3  C   LIG d   1      -1.665  81.537 112.376  0.00  0.00     0.038 C 
ATOM      4  C   LIG d   1      -0.733  80.624 111.860  0.00  0.00     0.028 C 
ATOM      5  C   LIG d   1       0.329  81.275 110.980  0.00  0.00    -0.047 C 
ATOM      6  C   LIG d   1       0.956  82.463 111.745  0.00  0.00     0.091 C 
ENDROOT
BRANCH   1   7
ATOM      7  O   LIG d   1       0.400  84.300 113.268  0.00  0.00    -0.368 OA
BRANCH   7   8
ATOM      8  C   LIG d   1       0.734  83.622 114.504  0.00  0.00     0.119 C 
BRANCH   8   9
ATOM      9  C   LIG d   1       0.045  84.385 115.651  0.00  0.00     0.028 C 
ATOM     10  C   LIG d   1      -1.046  83.549 116.340  0.00  0.00     0.006 C 
ENDBRANCH   8   9
BRANCH   8  11
ATOM     11  C   LIG d   1       2.234  83.712 114.800  0.00  0.00     0.028 C 
ATOM     12  C   LIG d   1       2.918  84.878 114.068  0.00  0.00     0.006 C 
ENDBRANCH   8  11
ENDBRANCH   7   8
ENDBRANCH   1   7
BRANCH   6  13
ATOM     13  N   LIG d   1       1.946  83.207 110.923  0.00  0.00    -0.311 N 
ATOM     14  C   LIG d   1       3.257  82.977 110.969  0.00  0.00     0.210 C 
ATOM     15  C   LIG d   1       4.102  83.870 110.055  0.00  0.00     0.109 C 
ATOM     16  O   LIG d   1       3.797  82.097 111.656  0.00  0.00    -0.276 OA
ATOM     17  H   LIG d   1       1.591  83.918 110.314  0.00  0.00     0.149 HD
ENDBRANCH   6  13
BRANCH   5  18
ATOM     18  N   LIG d   1       1.312  80.233 110.624  0.00  0.00     0.381 N 
ATOM     19  H   LIG d   1       2.008  80.618 110.017  0.00  0.00    -0.090 HD
ATOM     20  H   LIG d   1       0.839  79.494 110.134  0.00  0.00    -0.090 HD
ATOM     21  H   LIG d   1       1.741  79.874 111.448  0.00  0.00    -0.090 HD
ENDBRANCH   5  18
BRANCH   3  22
ATOM     22  C   LIG d   1      -2.954  81.093 112.624  0.00  0.00     0.382 C 
ATOM     23  O   LIG d   1      -3.936  81.804 112.301  0.00  0.00    -0.241 OA
ATOM     24  O   LIG d   1      -3.148  80.009 113.207  0.00  0.00    -0.241 OA
ENDBRANCH   3  22
TORSDOF 7
ENDMDL
MODEL 5
REMARK VINA RESULT:      -5.3      3.312      5.214
REMARK  7 active torsions:
REMARK  status: ('A' for Active; 'I' for Inactive)
REMARK    1  A    between atoms: C_2  and  C_3 
REMARK    2  A    between atoms: C_3  and  O_6 
REMARK    3  A    between atoms: C_3  and  C_4 
REMARK    4  A    between atoms: C_7  and  O_6 
REMARK    5  A    between atoms: C_9  and  C_10 
REMARK    6  A    between atoms: N_15  and  C_14 
REMARK    7  A    between atoms: N_20  and  C_19 
REMARK       I    between atoms: C_22  and  N_20 
ROOT
ATOM      1  C   LIG d   1       2.968  85.103 113.572  0.00  0.00     0.161 C 
ATOM      2  C   LIG d   1       1.815  84.303 113.511  0.00  0.00     0.016 C 
ATOM      3  C   LIG d   1       0.567  84.695 114.048  0.00  0.00     0.038 C 
ATOM      4  C   LIG d   1       0.348  85.986 114.551  0.00  0.00     0.028 C 
ATOM      5  C   LIG d   1       1.612  86.647 115.091  0.00  0.00    -0.047 C 
ATOM      6  C   LIG d   1       2.721  86.560 114.018  0.00  0.00     0.091 C 
ENDROOT
BRANCH   1   7
ATOM      7  O   LIG d   1       3.648  85.077 112.301  0.00  0.00    -0.368 OA
BRANCH   7   8
ATOM      8  C   LIG d   1       2.930  84.457 111.206  0.00  0.00     0.119 C 
BRANCH   8   9
ATOM      9  C   LIG d   1       3.835  83.355 110.623  0.00  0.00     0.028 C 
ATOM     10  C   LIG d   1       3.167  81.970 110.655  0.00  0.00     0.006 C 
ENDBRANCH   8   9
BRANCH   8  11
ATOM     11  C   LIG d   1       2.704  85.446 110.058  0.00  0.00     0.028 C 
ATOM     12  C   LIG d   1       1.627  86.495 110.378  0.00  0.00     0.006 C 
ENDBRANCH   8  11
ENDBRANCH   7   8
ENDBRANCH   1   7
BRANCH   6  13
ATOM     13  N   LIG d   1       4.017  87.109 114.496  0.00  0.00    -0.311 N 
ATOM     14  C   LIG d   1       4.766  87.948 113.783  0.00  0.00     0.210 C 
ATOM     15  C   LIG d   1       6.074  88.377 114.454  0.00  0.00     0.109 C 
ATOM     16  O   LIG d   1       4.455  88.403 112.672  0.00  0.00    -0.276 OA
ATOM     17  H   LIG d   1       4.330  86.816 115.401  0.00  0.00     0.149 HD
ENDBRANCH   6  13
BRANCH   5  18
ATOM     18  N   LIG d   1       1.268  88.034 115.455  0.00  0.00     0.381 N 
ATOM     19  H   LIG d   1       0.306  88.212 115.244  0.00  0.00    -0.090 HD
ATOM     20  H   LIG d   1       1.832  88.663 114.910  0.00  0.00    -0.090 HD
ATOM     21  H   LIG d   1       1.436  88.184 116.426  0.00  0.00    -0.090 HD
ENDBRANCH   5  18
BRANCH   3  22
ATOM     22  C   LIG d   1      -0.469  83.775 114.120  0.00  0.00     0.382 C 
ATOM     23  O   LIG d   1      -0.297  82.682 114.712  0.00  0.00    -0.241 OA
ATOM     24  O   LIG d   1      -1.559  84.007 113.563  0.00  0.00    -0.241 OA
ENDBRANCH   3  22
TORSDOF 7
ENDMDL
MODEL 6
REMARK VINA RESULT:      -5.2      2.340      5.034
REMARK  7 active torsions:
REMARK  status: ('A' for Active; 'I' for Inactive)
REMARK    1  A    between atoms: C_2  and  C_3 
REMARK    2  A    between atoms: C_3  and  O_6 
REMARK    3  A    between atoms: C_3  and  C_4 
REMARK    4  A    between atoms: C_7  and  O_6 
REMARK    5  A    between atoms: C_9  and  C_10 
REMARK    6  A    between atoms: N_15  and  C_14 
REMARK    7  A    between atoms: N_20  and  C_19 
REMARK       I    between atoms: C_22  and  N_20 
ROOT
ATOM      1  C   LIG d   1       1.542  83.351 112.762  0.00  0.00     0.161 C 
ATOM      2  C   LIG d   1       2.223  84.529 112.413  0.00  0.00     0.016 C 
ATOM      3  C   LIG d   1       1.812  85.385 111.366  0.00  0.00     0.038 C 
ATOM      4  C   LIG d   1       0.596  85.199 110.690  0.00  0.00     0.028 C 
ATOM      5  C   LIG d   1       0.132  83.746 110.667  0.00  0.00    -0.047 C 
ATOM      6  C   LIG d   1       0.153  83.190 112.109  0.00  0.00     0.091 C 
ENDROOT
BRANCH   1   7
ATOM      7  O   LIG d   1       1.436  83.254 114.196  0.00  0.00    -0.368 OA
BRANCH   7   8
ATOM      8  C   LIG d   1       0.389  84.043 114.813  0.00  0.00     0.119 C 
BRANCH   8   9
ATOM      9  C   LIG d   1       1.061  85.008 115.808  0.00  0.00     0.028 C 
ATOM     10  C   LIG d   1       1.070  86.460 115.303  0.00  0.00     0.006 C 
ENDBRANCH   8   9
BRANCH   8  11
ATOM     11  C   LIG d   1      -0.541  83.169 115.660  0.00  0.00     0.028 C 
ATOM     12  C   LIG d   1      -0.551  83.573 117.142  0.00  0.00     0.006 C 
ENDBRANCH   8  11
ENDBRANCH   7   8
ENDBRANCH   1   7
BRANCH   6  13
ATOM     13  N   LIG d   1      -0.207  81.749 112.167  0.00  0.00    -0.311 N 
ATOM     14  C   LIG d   1      -1.461  81.310 112.266  0.00  0.00     0.210 C 
ATOM     15  C   LIG d   1      -1.609  79.787 112.330  0.00  0.00     0.109 C 
ATOM     16  O   LIG d   1      -2.466  82.036 112.274  0.00  0.00    -0.276 OA
ATOM     17  H   LIG d   1       0.545  81.090 112.134  0.00  0.00     0.149 HD
ENDBRANCH   6  13
BRANCH   5  18
ATOM     18  N   LIG d   1      -1.209  83.717 110.055  0.00  0.00     0.381 N 
ATOM     19  H   LIG d   1      -1.907  83.658 110.770  0.00  0.00    -0.090 HD
ATOM     20  H   LIG d   1      -1.284  82.900 109.475  0.00  0.00    -0.090 HD
ATOM     21  H   LIG d   1      -1.352  84.537 109.507  0.00  0.00    -0.090 HD
ENDBRANCH   5  18
BRANCH   3  22
ATOM     22  C   LIG d   1       2.640  86.419 110.958  0.00  0.00     0.382 C 
ATOM     23  O   LIG d   1       3.865  86.210 110.785  0.00  0.00    -0.241 OA
ATOM     24  O   LIG d   1       2.186  87.569 110.804  0.00  0.00    -0.241 OA
ENDBRANCH   3  22
TORSDOF 7
ENDMDL
MODEL 7
REMARK VINA RESULT:      -5.0      2.660      6.188
REMARK  7 active torsions:
REMARK  status: ('A' for Active; 'I' for Inactive)
REMARK    1  A    between atoms: C_2  and  C_3 
REMARK    2  A    between atoms: C_3  and  O_6 
REMARK    3  A    between atoms: C_3  and  C_4 
REMARK    4  A    between atoms: C_7  and  O_6 
REMARK    5  A    between atoms: C_9  and  C_10 
REMARK    6  A    between atoms: N_15  and  C_14 
REMARK    7  A    between atoms: N_20  and  C_19 
REMARK       I    between atoms: C_22  and  N_20 
ROOT
ATOM      1  C   LIG d   1       0.336  84.552 112.032  0.00  0.00     0.161 C 
ATOM      2  C   LIG d   1       1.436  85.272 111.539  0.00  0.00     0.016 C 
ATOM      3  C   LIG d   1       2.258  86.090 112.349  0.00  0.00     0.038 C 
ATOM      4  C   LIG d   1       2.124  86.123 113.745  0.00  0.00     0.028 C 
ATOM      5  C   LIG d   1       0.712  85.808 114.226  0.00  0.00    -0.047 C 
ATOM      6  C   LIG d   1       0.242  84.489 113.571  0.00  0.00     0.091 C 
ENDROOT
BRANCH   1   7
ATOM      7  O   LIG d   1       0.332  83.223 111.475  0.00  0.00    -0.368 OA
BRANCH   7   8
ATOM      8  C   LIG d   1       1.321  82.307 112.005  0.00  0.00     0.119 C 
BRANCH   8   9
ATOM      9  C   LIG d   1       2.133  81.763 110.813  0.00  0.00     0.028 C 
ATOM     10  C   LIG d   1       3.615  82.170 110.878  0.00  0.00     0.006 C 
ENDBRANCH   8   9
BRANCH   8  11
ATOM     11  C   LIG d   1       0.661  81.079 112.639  0.00  0.00     0.028 C 
ATOM     12  C   LIG d   1      -0.765  80.836 112.122  0.00  0.00     0.006 C 
ENDBRANCH   8  11
ENDBRANCH   7   8
ENDBRANCH   1   7
BRANCH   6  13
ATOM     13  N   LIG d   1      -1.162  84.150 113.922  0.00  0.00    -0.311 N 
ATOM     14  C   LIG d   1      -1.491  83.317 114.908  0.00  0.00     0.210 C 
ATOM     15  C   LIG d   1      -2.995  83.091 115.089  0.00  0.00     0.109 C 
ATOM     16  O   LIG d   1      -0.681  82.768 115.670  0.00  0.00    -0.276 OA
ATOM     17  H   LIG d   1      -1.885  84.576 113.375  0.00  0.00     0.149 HD
ENDBRANCH   6  13
BRANCH   5  18
ATOM     18  N   LIG d   1       0.747  85.742 115.699  0.00  0.00     0.381 N 
ATOM     19  H   LIG d   1       1.261  86.520 116.061  0.00  0.00    -0.090 HD
ATOM     20  H   LIG d   1       1.216  84.898 115.975  0.00  0.00    -0.090 HD
ATOM     21  H   LIG d   1      -0.181  85.750 116.063  0.00  0.00    -0.090 HD
ENDBRANCH   5  18
BRANCH   3  22
ATOM     22  C   LIG d   1       3.201  86.916 111.757  0.00  0.00     0.382 C 
ATOM     23  O   LIG d   1       3.332  88.100 112.151  0.00  0.00    -0.241 OA
ATOM     24  O   LIG d   1       3.892  86.506 110.806  0.00  0.00    -0.241 OA
ENDBRANCH   3  22
TORSDOF 7
ENDMDL
MODEL 8
REMARK VINA RESULT:      -4.9      2.510      5.089
REMARK  7 active torsions:
REMARK  status: ('A' for Active; 'I' for Inactive)
REMARK    1  A    between atoms: C_2  and  C_3 
REMARK    2  A    between atoms: C_3  and  O_6 
REMARK    3  A    between atoms: C_3  and  C_4 
REMARK    4  A    between atoms: C_7  and  O_6 
REMARK    5  A    between atoms: C_9  and  C_10 
REMARK    6  A    between atoms: N_15  and  C_14 
REMARK    7  A    between atoms: N_20  and  C_19 
REMARK       I    between atoms: C_22  and  N_20 
ROOT
ATOM      1  C   LIG d   1      -0.843  83.269 113.015  0.00  0.00     0.161 C 
ATOM      2  C   LIG d   1      -0.389  84.449 112.403  0.00  0.00     0.016 C 
ATOM      3  C   LIG d   1       0.185  84.485 111.111  0.00  0.00     0.038 C 
ATOM      4  C   LIG d   1       0.206  83.357 110.278  0.00  0.00     0.028 C 
ATOM      5  C   LIG d   1       0.220  82.038 111.044  0.00  0.00    -0.047 C 
ATOM      6  C   LIG d   1      -0.929  82.047 112.077  0.00  0.00     0.091 C 
ENDROOT
BRANCH   1   7
ATOM      7  O   LIG d   1      -2.115  83.505 113.649  0.00  0.00    -0.368 OA
BRANCH   7   8
ATOM      8  C   LIG d   1      -2.090  83.668 115.088  0.00  0.00     0.119 C 
BRANCH   8   9
ATOM      9  C   LIG d   1      -0.694  83.236 115.578  0.00  0.00     0.028 C 
ATOM     10  C   LIG d   1       0.039  84.361 116.329  0.00  0.00     0.006 C 
ENDBRANCH   8   9
BRANCH   8  11
ATOM     11  C   LIG d   1      -3.073  82.715 115.775  0.00  0.00     0.028 C 
ATOM     12  C   LIG d   1      -2.370  81.623 116.596  0.00  0.00     0.006 C 
ENDBRANCH   8  11
ENDBRANCH   7   8
ENDBRANCH   1   7
BRANCH   6  13
ATOM     13  N   LIG d   1      -0.936  80.827 112.927  0.00  0.00    -0.311 N 
ATOM     14  C   LIG d   1      -2.040  80.141 113.216  0.00  0.00     0.210 C 
ATOM     15  C   LIG d   1      -1.827  78.927 114.125  0.00  0.00     0.109 C 
ATOM     16  O   LIG d   1      -3.170  80.403 112.779  0.00  0.00    -0.276 OA
ATOM     17  H   LIG d   1      -0.056  80.525 113.299  0.00  0.00     0.149 HD
ENDBRANCH   6  13
BRANCH   5  18
ATOM     18  N   LIG d   1       0.102  80.949 110.057  0.00  0.00     0.381 N 
ATOM     19  H   LIG d   1       0.872  80.985 109.418  0.00  0.00    -0.090 HD
ATOM     20  H   LIG d   1      -0.747  81.073 109.534  0.00  0.00    -0.090 HD
ATOM     21  H   LIG d   1       0.089  80.068 110.521  0.00  0.00    -0.090 HD
ENDBRANCH   5  18
BRANCH   3  22
ATOM     22  C   LIG d   1       0.782  85.651 110.657  0.00  0.00     0.382 C 
ATOM     23  O   LIG d   1       1.951  85.621 110.203  0.00  0.00    -0.241 OA
ATOM     24  O   LIG d   1       0.183  86.740 110.736  0.00  0.00    -0.241 OA
ENDBRANCH   3  22
TORSDOF 7
ENDMDL
MODEL 9
REMARK VINA RESULT:      -4.9      2.733      5.523
REMARK  7 active torsions:
REMARK  status: ('A' for Active; 'I' for Inactive)
REMARK    1  A    between atoms: C_2  and  C_3 
REMARK    2  A    between atoms: C_3  and  O_6 
REMARK    3  A    between atoms: C_3  and  C_4 
REMARK    4  A    between atoms: C_7  and  O_6 
REMARK    5  A    between atoms: C_9  and  C_10 
REMARK    6  A    between atoms: N_15  and  C_14 
REMARK    7  A    between atoms: N_20  and  C_19 
REMARK       I    between atoms: C_22  and  N_20 
ROOT
ATOM      1  C   LIG d   1      -0.031  83.516 113.844  0.00  0.00     0.161 C 
ATOM      2  C   LIG d   1       0.746  84.684 113.788  0.00  0.00     0.016 C 
ATOM      3  C   LIG d   1       0.986  85.403 112.594  0.00  0.00     0.038 C 
ATOM      4  C   LIG d   1       0.336  85.083 111.393  0.00  0.00     0.028 C 
ATOM      5  C   LIG d   1      -0.060  83.614 111.291  0.00  0.00    -0.047 C 
ATOM      6  C   LIG d   1      -0.839  83.214 112.565  0.00  0.00     0.091 C 
ENDROOT
BRANCH   1   7
ATOM      7  O   LIG d   1      -0.905  83.565 114.989  0.00  0.00    -0.368 OA
BRANCH   7   8
ATOM      8  C   LIG d   1      -0.414  82.929 116.195  0.00  0.00     0.119 C 
BRANCH   8   9
ATOM      9  C   LIG d   1       0.199  81.575 115.787  0.00  0.00     0.028 C 
ATOM     10  C   LIG d   1       1.642  81.409 116.292  0.00  0.00     0.006 C 
ENDBRANCH   8   9
BRANCH   8  11
ATOM     11  C   LIG d   1      -1.560  82.584 117.150  0.00  0.00     0.028 C 
ATOM     12  C   LIG d   1      -2.855  82.205 116.414  0.00  0.00     0.006 C 
ENDBRANCH   8  11
ENDBRANCH   7   8
ENDBRANCH   1   7
BRANCH   6  13
ATOM     13  N   LIG d   1      -1.192  81.771 112.585  0.00  0.00    -0.311 N 
ATOM     14  C   LIG d   1      -2.444  81.322 112.644  0.00  0.00     0.210 C 
ATOM     15  C   LIG d   1      -2.585  79.797 112.674  0.00  0.00     0.109 C 
ATOM     16  O   LIG d   1      -3.454  82.042 112.640  0.00  0.00    -0.276 OA
ATOM     17  H   LIG d   1      -0.434  81.116 112.559  0.00  0.00     0.149 HD
ENDBRANCH   6  13
BRANCH   5  18
ATOM     18  N   LIG d   1      -0.848  83.449 110.055  0.00  0.00     0.381 N 
ATOM     19  H   LIG d   1      -1.574  82.776 110.203  0.00  0.00    -0.090 HD
ATOM     20  H   LIG d   1      -0.245  83.108 109.328  0.00  0.00    -0.090 HD
ATOM     21  H   LIG d   1      -1.245  84.322 109.785  0.00  0.00    -0.090 HD
ENDBRANCH   5  18
BRANCH   3  22
ATOM     22  C   LIG d   1       1.917  86.430 112.586  0.00  0.00     0.382 C 
ATOM     23  O   LIG d   1       2.283  86.954 113.666  0.00  0.00    -0.241 OA
ATOM     24  O   LIG d   1       2.363  86.870 111.509  0.00  0.00    -0.241 OA
ENDBRANCH   3  22
TORSDOF 7
ENDMDL
