MODEL 1
REMARK VINA RESULT:      -6.2      0.000      0.000
REMARK  7 active torsions:
REMARK  status: ('A' for Active; 'I' for Inactive)
REMARK    1  A    between atoms: C_2  and  C_3 
REMARK    2  A    between atoms: C_3  and  O_6 
REMARK    3  A    between atoms: C_3  and  C_4 
REMARK    4  A    between atoms: C_7  and  O_6 
REMARK    5  A    between atoms: C_9  and  C_10 
REMARK    6  A    between atoms: N_15  and  C_14 
REMARK    7  A    between atoms: N_20  and  C_19 
REMARK       I    between atoms: C_22  and  N_20 
ROOT
ATOM      1  C   LIG d   1      -5.180  74.890 115.327  0.00  0.00     0.161 C 
ATOM      2  C   LIG d   1      -6.027  75.226 114.258  0.00  0.00     0.016 C 
ATOM      3  C   LIG d   1      -5.588  75.911 113.102  0.00  0.00     0.038 C 
ATOM      4  C   LIG d   1      -4.230  76.174 112.868  0.00  0.00     0.028 C 
ATOM      5  C   LIG d   1      -3.408  76.303 114.146  0.00  0.00    -0.047 C 
ATOM      6  C   LIG d   1      -3.675  75.070 115.040  0.00  0.00     0.091 C 
ENDROOT
BRANCH   1   7
ATOM      7  O   LIG d   1      -5.450  73.541 115.759  0.00  0.00    -0.368 OA
BRANCH   7   8
ATOM      8  C   LIG d   1      -6.844  73.204 115.963  0.00  0.00     0.119 C 
BRANCH   8   9
ATOM      9  C   LIG d   1      -7.254  73.748 117.345  0.00  0.00     0.028 C 
ATOM     10  C   LIG d   1      -8.361  74.812 117.252  0.00  0.00     0.006 C 
ENDBRANCH   8   9
BRANCH   8  11
ATOM     11  C   LIG d   1      -7.044  71.688 116.047  0.00  0.00     0.028 C 
ATOM     12  C   LIG d   1      -8.468  71.298 116.475  0.00  0.00     0.006 C 
ENDBRANCH   8  11
ENDBRANCH   7   8
ENDBRANCH   1   7
BRANCH   6  13
ATOM     13  N   LIG d   1      -2.975  75.157 116.348  0.00  0.00    -0.311 N 
ATOM     14  C   LIG d   1      -1.805  74.568 116.594  0.00  0.00     0.210 C 
ATOM     15  C   LIG d   1      -1.268  74.767 118.015  0.00  0.00     0.109 C 
ATOM     16  O   LIG d   1      -1.147  73.928 115.761  0.00  0.00    -0.276 OA
ATOM     17  H   LIG d   1      -3.423  75.684 117.071  0.00  0.00     0.149 HD
ENDBRANCH   6  13
BRANCH   5  18
ATOM     18  N   LIG d   1      -1.993  76.438 113.754  0.00  0.00     0.381 N 
ATOM     19  H   LIG d   1      -1.844  77.329 113.323  0.00  0.00    -0.090 HD
ATOM     20  H   LIG d   1      -1.771  75.723 113.084  0.00  0.00    -0.090 HD
ATOM     21  H   LIG d   1      -1.407  76.347 114.555  0.00  0.00    -0.090 HD
ENDBRANCH   5  18
BRANCH   3  22
ATOM     22  C   LIG d   1      -6.517  76.375 112.183  0.00  0.00     0.382 C 
ATOM     23  O   LIG d   1      -6.298  76.253 110.954  0.00  0.00    -0.241 OA
ATOM     24  O   LIG d   1      -7.550  76.955 112.568  0.00  0.00    -0.241 OA
ENDBRANCH   3  22
TORSDOF 7
ENDMDL
MODEL 2
REMARK VINA RESULT:      -5.6     11.666     14.050
REMARK  7 active torsions:
REMARK  status: ('A' for Active; 'I' for Inactive)
REMARK    1  A    between atoms: C_2  and  C_3 
REMARK    2  A    between atoms: C_3  and  O_6 
REMARK    3  A    between atoms: C_3  and  C_4 
REMARK    4  A    between atoms: C_7  and  O_6 
REMARK    5  A    between atoms: C_9  and  C_10 
REMARK    6  A    between atoms: N_15  and  C_14 
REMARK    7  A    between atoms: N_20  and  C_19 
REMARK       I    between atoms: C_22  and  N_20 
ROOT
ATOM      1  C   LIG d   1       3.292  84.910 112.621  0.00  0.00     0.161 C 
ATOM      2  C   LIG d   1       3.728  86.196 112.982  0.00  0.00     0.016 C 
ATOM      3  C   LIG d   1       3.197  87.383 112.427  0.00  0.00     0.038 C 
ATOM      4  C   LIG d   1       2.081  87.369 111.577  0.00  0.00     0.028 C 
ATOM      5  C   LIG d   1       1.932  86.069 110.794  0.00  0.00    -0.047 C 
ATOM      6  C   LIG d   1       1.999  84.879 111.779  0.00  0.00     0.091 C 
ENDROOT
BRANCH   1   7
ATOM      7  O   LIG d   1       3.140  84.096 113.801  0.00  0.00    -0.368 OA
BRANCH   7   8
ATOM      8  C   LIG d   1       3.162  84.799 115.067  0.00  0.00     0.119 C 
BRANCH   8   9
ATOM      9  C   LIG d   1       3.983  83.948 116.055  0.00  0.00     0.028 C 
ATOM     10  C   LIG d   1       5.005  84.785 116.843  0.00  0.00     0.006 C 
ENDBRANCH   8   9
BRANCH   8  11
ATOM     11  C   LIG d   1       1.761  84.891 115.678  0.00  0.00     0.028 C 
ATOM     12  C   LIG d   1       1.220  86.329 115.715  0.00  0.00     0.006 C 
ENDBRANCH   8  11
ENDBRANCH   7   8
ENDBRANCH   1   7
BRANCH   6  13
ATOM     13  N   LIG d   1       1.946  83.566 111.085  0.00  0.00    -0.311 N 
ATOM     14  C   LIG d   1       0.813  82.906 110.851  0.00  0.00     0.210 C 
ATOM     15  C   LIG d   1       0.983  81.560 110.141  0.00  0.00     0.109 C 
ATOM     16  O   LIG d   1      -0.320  83.323 111.136  0.00  0.00    -0.276 OA
ATOM     17  H   LIG d   1       2.817  83.169 110.792  0.00  0.00     0.149 HD
ENDBRANCH   6  13
BRANCH   5  18
ATOM     18  N   LIG d   1       0.657  86.137 110.056  0.00  0.00     0.381 N 
ATOM     19  H   LIG d   1       0.586  85.361 109.429  0.00  0.00    -0.090 HD
ATOM     20  H   LIG d   1       0.640  86.983 109.514  0.00  0.00    -0.090 HD
ATOM     21  H   LIG d   1      -0.108  86.128 110.694  0.00  0.00    -0.090 HD
ENDBRANCH   5  18
BRANCH   3  22
ATOM     22  C   LIG d   1       3.810  88.598 112.689  0.00  0.00     0.382 C 
ATOM     23  O   LIG d   1       3.115  89.601 112.980  0.00  0.00    -0.241 OA
ATOM     24  O   LIG d   1       5.047  88.716 112.595  0.00  0.00    -0.241 OA
ENDBRANCH   3  22
TORSDOF 7
ENDMDL
MODEL 3
REMARK VINA RESULT:      -5.6     11.682     13.784
REMARK  7 active torsions:
REMARK  status: ('A' for Active; 'I' for Inactive)
REMARK    1  A    between atoms: C_2  and  C_3 
REMARK    2  A    between atoms: C_3  and  O_6 
REMARK    3  A    between atoms: C_3  and  C_4 
REMARK    4  A    between atoms: C_7  and  O_6 
REMARK    5  A    between atoms: C_9  and  C_10 
REMARK    6  A    between atoms: N_15  and  C_14 
REMARK    7  A    between atoms: N_20  and  C_19 
REMARK       I    between atoms: C_22  and  N_20 
ROOT
ATOM      1  C   LIG d   1       3.713  85.545 113.194  0.00  0.00     0.161 C 
ATOM      2  C   LIG d   1       3.521  86.836 113.713  0.00  0.00     0.016 C 
ATOM      3  C   LIG d   1       2.712  87.813 113.089  0.00  0.00     0.038 C 
ATOM      4  C   LIG d   1       1.915  87.513 111.974  0.00  0.00     0.028 C 
ATOM      5  C   LIG d   1       2.466  86.374 111.124  0.00  0.00    -0.047 C 
ATOM      6  C   LIG d   1       2.764  85.164 112.039  0.00  0.00     0.091 C 
ENDROOT
BRANCH   1   7
ATOM      7  O   LIG d   1       3.626  84.573 114.255  0.00  0.00    -0.368 OA
BRANCH   7   8
ATOM      8  C   LIG d   1       2.291  84.145 114.619  0.00  0.00     0.119 C 
BRANCH   8   9
ATOM      9  C   LIG d   1       2.102  84.439 116.119  0.00  0.00     0.028 C 
ATOM     10  C   LIG d   1       1.300  85.727 116.369  0.00  0.00     0.006 C 
ENDBRANCH   8   9
BRANCH   8  11
ATOM     11  C   LIG d   1       2.136  82.627 114.480  0.00  0.00     0.028 C 
ATOM     12  C   LIG d   1       2.737  81.857 115.667  0.00  0.00     0.006 C 
ENDBRANCH   8  11
ENDBRANCH   7   8
ENDBRANCH   1   7
BRANCH   6  13
ATOM     13  N   LIG d   1       3.385  84.034 111.300  0.00  0.00    -0.311 N 
ATOM     14  C   LIG d   1       2.685  83.036 110.764  0.00  0.00     0.210 C 
ATOM     15  C   LIG d   1       3.524  81.962 110.062  0.00  0.00     0.109 C 
ATOM     16  O   LIG d   1       1.448  82.954 110.774  0.00  0.00    -0.276 OA
ATOM     17  H   LIG d   1       4.383  84.037 111.217  0.00  0.00     0.149 HD
ENDBRANCH   6  13
BRANCH   5  18
ATOM     18  N   LIG d   1       1.469  86.076 110.078  0.00  0.00     0.381 N 
ATOM     19  H   LIG d   1       1.761  85.278 109.549  0.00  0.00    -0.090 HD
ATOM     20  H   LIG d   1       1.407  86.862 109.455  0.00  0.00    -0.090 HD
ATOM     21  H   LIG d   1       0.581  85.901 110.493  0.00  0.00    -0.090 HD
ENDBRANCH   5  18
BRANCH   3  22
ATOM     22  C   LIG d   1       2.726  89.118 113.557  0.00  0.00     0.382 C 
ATOM     23  O   LIG d   1       3.480  89.967 113.023  0.00  0.00    -0.241 OA
ATOM     24  O   LIG d   1       2.028  89.446 114.535  0.00  0.00    -0.241 OA
ENDBRANCH   3  22
TORSDOF 7
ENDMDL
MODEL 4
REMARK VINA RESULT:      -5.5      2.203      5.125
REMARK  7 active torsions:
REMARK  status: ('A' for Active; 'I' for Inactive)
REMARK    1  A    between atoms: C_2  and  C_3 
REMARK    2  A    between atoms: C_3  and  O_6 
REMARK    3  A    between atoms: C_3  and  C_4 
REMARK    4  A    between atoms: C_7  and  O_6 
REMARK    5  A    between atoms: C_9  and  C_10 
REMARK    6  A    between atoms: N_15  and  C_14 
REMARK    7  A    between atoms: N_20  and  C_19 
REMARK       I    between atoms: C_22  and  N_20 
ROOT
ATOM      1  C   LIG d   1      -3.139  74.857 115.387  0.00  0.00     0.161 C 
ATOM      2  C   LIG d   1      -2.454  74.241 116.448  0.00  0.00     0.016 C 
ATOM      3  C   LIG d   1      -1.142  74.595 116.837  0.00  0.00     0.038 C 
ATOM      4  C   LIG d   1      -0.478  75.701 116.286  0.00  0.00     0.028 C 
ATOM      5  C   LIG d   1      -0.932  76.035 114.868  0.00  0.00    -0.047 C 
ATOM      6  C   LIG d   1      -2.474  76.140 114.846  0.00  0.00     0.091 C 
ENDROOT
BRANCH   1   7
ATOM      7  O   LIG d   1      -4.501  75.124 115.775  0.00  0.00    -0.368 OA
BRANCH   7   8
ATOM      8  C   LIG d   1      -5.521  74.347 115.101  0.00  0.00     0.119 C 
BRANCH   8   9
ATOM      9  C   LIG d   1      -6.448  75.335 114.367  0.00  0.00     0.028 C 
ATOM     10  C   LIG d   1      -7.783  75.543 115.102  0.00  0.00     0.006 C 
ENDBRANCH   8   9
BRANCH   8  11
ATOM     11  C   LIG d   1      -6.419  73.616 116.103  0.00  0.00     0.028 C 
ATOM     12  C   LIG d   1      -6.499  72.104 115.839  0.00  0.00     0.006 C 
ENDBRANCH   8  11
ENDBRANCH   7   8
ENDBRANCH   1   7
BRANCH   6  13
ATOM     13  N   LIG d   1      -3.006  76.380 113.480  0.00  0.00    -0.311 N 
ATOM     14  C   LIG d   1      -3.262  77.595 112.996  0.00  0.00     0.210 C 
ATOM     15  C   LIG d   1      -3.825  77.618 111.571  0.00  0.00     0.109 C 
ATOM     16  O   LIG d   1      -3.045  78.656 113.599  0.00  0.00    -0.276 OA
ATOM     17  H   LIG d   1      -3.181  75.576 112.910  0.00  0.00     0.149 HD
ENDBRANCH   6  13
BRANCH   5  18
ATOM     18  N   LIG d   1      -0.261  77.286 114.469  0.00  0.00     0.381 N 
ATOM     19  H   LIG d   1      -0.675  77.639 113.628  0.00  0.00    -0.090 HD
ATOM     20  H   LIG d   1       0.708  77.092 114.286  0.00  0.00    -0.090 HD
ATOM     21  H   LIG d   1      -0.340  77.963 115.196  0.00  0.00    -0.090 HD
ENDBRANCH   5  18
BRANCH   3  22
ATOM     22  C   LIG d   1      -0.465  73.815 117.762  0.00  0.00     0.382 C 
ATOM     23  O   LIG d   1      -0.930  72.700 118.101  0.00  0.00    -0.241 OA
ATOM     24  O   LIG d   1       0.582  74.231 118.294  0.00  0.00    -0.241 OA
ENDBRANCH   3  22
TORSDOF 7
ENDMDL
MODEL 5
REMARK VINA RESULT:      -5.5      2.183      2.977
REMARK  7 active torsions:
REMARK  status: ('A' for Active; 'I' for Inactive)
REMARK    1  A    between atoms: C_2  and  C_3 
REMARK    2  A    between atoms: C_3  and  O_6 
REMARK    3  A    between atoms: C_3  and  C_4 
REMARK    4  A    between atoms: C_7  and  O_6 
REMARK    5  A    between atoms: C_9  and  C_10 
REMARK    6  A    between atoms: N_15  and  C_14 
REMARK    7  A    between atoms: N_20  and  C_19 
REMARK       I    between atoms: C_22  and  N_20 
ROOT
ATOM      1  C   LIG d   1      -3.444  75.781 114.899  0.00  0.00     0.161 C 
ATOM      2  C   LIG d   1      -3.722  76.525 113.739  0.00  0.00     0.016 C 
ATOM      3  C   LIG d   1      -2.726  76.946 112.828  0.00  0.00     0.038 C 
ATOM      4  C   LIG d   1      -1.394  76.520 112.937  0.00  0.00     0.028 C 
ATOM      5  C   LIG d   1      -0.978  76.188 114.366  0.00  0.00    -0.047 C 
ATOM      6  C   LIG d   1      -2.012  75.213 114.975  0.00  0.00     0.091 C 
ENDROOT
BRANCH   1   7
ATOM      7  O   LIG d   1      -4.412  74.723 115.043  0.00  0.00    -0.368 OA
BRANCH   7   8
ATOM      8  C   LIG d   1      -5.256  74.787 116.219  0.00  0.00     0.119 C 
BRANCH   8   9
ATOM      9  C   LIG d   1      -6.712  74.587 115.754  0.00  0.00     0.028 C 
ATOM     10  C   LIG d   1      -7.090  75.519 114.590  0.00  0.00     0.006 C 
ENDBRANCH   8   9
BRANCH   8  11
ATOM     11  C   LIG d   1      -5.221  76.181 116.854  0.00  0.00     0.028 C 
ATOM     12  C   LIG d   1      -6.166  76.309 118.060  0.00  0.00     0.006 C 
ENDBRANCH   8  11
ENDBRANCH   7   8
ENDBRANCH   1   7
BRANCH   6  13
ATOM     13  N   LIG d   1      -1.727  74.902 116.400  0.00  0.00    -0.311 N 
ATOM     14  C   LIG d   1      -0.893  73.939 116.788  0.00  0.00     0.210 C 
ATOM     15  C   LIG d   1      -0.758  73.772 118.305  0.00  0.00     0.109 C 
ATOM     16  O   LIG d   1      -0.228  73.227 116.020  0.00  0.00    -0.276 OA
ATOM     17  H   LIG d   1      -2.200  75.452 117.091  0.00  0.00     0.149 HD
ENDBRANCH   6  13
BRANCH   5  18
ATOM     18  N   LIG d   1       0.385  75.628 114.316  0.00  0.00     0.381 N 
ATOM     19  H   LIG d   1       0.467  74.876 114.971  0.00  0.00    -0.090 HD
ATOM     20  H   LIG d   1       1.041  76.344 114.574  0.00  0.00    -0.090 HD
ATOM     21  H   LIG d   1       0.585  75.300 113.396  0.00  0.00    -0.090 HD
ENDBRANCH   5  18
BRANCH   3  22
ATOM     22  C   LIG d   1      -3.052  77.836 111.817  0.00  0.00     0.382 C 
ATOM     23  O   LIG d   1      -3.321  77.408 110.668  0.00  0.00    -0.241 OA
ATOM     24  O   LIG d   1      -3.039  79.064 112.026  0.00  0.00    -0.241 OA
ENDBRANCH   3  22
TORSDOF 7
ENDMDL
MODEL 6
REMARK VINA RESULT:      -5.4      2.485      5.170
REMARK  7 active torsions:
REMARK  status: ('A' for Active; 'I' for Inactive)
REMARK    1  A    between atoms: C_2  and  C_3 
REMARK    2  A    between atoms: C_3  and  O_6 
REMARK    3  A    between atoms: C_3  and  C_4 
REMARK    4  A    between atoms: C_7  and  O_6 
REMARK    5  A    between atoms: C_9  and  C_10 
REMARK    6  A    between atoms: N_15  and  C_14 
REMARK    7  A    between atoms: N_20  and  C_19 
REMARK       I    between atoms: C_22  and  N_20 
ROOT
ATOM      1  C   LIG d   1      -5.033  74.413 115.836  0.00  0.00     0.161 C 
ATOM      2  C   LIG d   1      -6.009  73.430 115.600  0.00  0.00     0.016 C 
ATOM      3  C   LIG d   1      -7.293  73.451 116.191  0.00  0.00     0.038 C 
ATOM      4  C   LIG d   1      -7.744  74.544 116.946  0.00  0.00     0.028 C 
ATOM      5  C   LIG d   1      -6.619  75.318 117.624  0.00  0.00    -0.047 C 
ATOM      6  C   LIG d   1      -5.546  75.671 116.569  0.00  0.00     0.091 C 
ENDROOT
BRANCH   1   7
ATOM      7  O   LIG d   1      -4.398  74.780 114.595  0.00  0.00    -0.368 OA
BRANCH   7   8
ATOM      8  C   LIG d   1      -4.866  76.004 113.978  0.00  0.00     0.119 C 
BRANCH   8   9
ATOM      9  C   LIG d   1      -5.990  75.627 112.994  0.00  0.00     0.028 C 
ATOM     10  C   LIG d   1      -6.082  76.600 111.806  0.00  0.00     0.006 C 
ENDBRANCH   8   9
BRANCH   8  11
ATOM     11  C   LIG d   1      -3.774  76.647 113.118  0.00  0.00     0.028 C 
ATOM     12  C   LIG d   1      -2.669  77.310 113.956  0.00  0.00     0.006 C 
ENDBRANCH   8  11
ENDBRANCH   7   8
ENDBRANCH   1   7
BRANCH   6  13
ATOM     13  N   LIG d   1      -4.369  76.356 117.164  0.00  0.00    -0.311 N 
ATOM     14  C   LIG d   1      -4.245  77.681 117.224  0.00  0.00     0.210 C 
ATOM     15  C   LIG d   1      -2.944  78.180 117.860  0.00  0.00     0.109 C 
ATOM     16  O   LIG d   1      -5.104  78.490 116.841  0.00  0.00    -0.276 OA
ATOM     17  H   LIG d   1      -3.639  75.775 117.527  0.00  0.00     0.149 HD
ENDBRANCH   6  13
BRANCH   5  18
ATOM     18  N   LIG d   1      -7.216  76.507 118.261  0.00  0.00     0.381 N 
ATOM     19  H   LIG d   1      -8.212  76.416 118.279  0.00  0.00    -0.090 HD
ATOM     20  H   LIG d   1      -6.983  77.319 117.717  0.00  0.00    -0.090 HD
ATOM     21  H   LIG d   1      -6.867  76.608 119.188  0.00  0.00    -0.090 HD
ENDBRANCH   5  18
BRANCH   3  22
ATOM     22  C   LIG d   1      -8.126  72.350 116.063  0.00  0.00     0.382 C 
ATOM     23  O   LIG d   1      -9.364  72.512 115.938  0.00  0.00    -0.241 OA
ATOM     24  O   LIG d   1      -7.661  71.196 116.114  0.00  0.00    -0.241 OA
ENDBRANCH   3  22
TORSDOF 7
ENDMDL
MODEL 7
REMARK VINA RESULT:      -5.4     11.745     13.938
REMARK  7 active torsions:
REMARK  status: ('A' for Active; 'I' for Inactive)
REMARK    1  A    between atoms: C_2  and  C_3 
REMARK    2  A    between atoms: C_3  and  O_6 
REMARK    3  A    between atoms: C_3  and  C_4 
REMARK    4  A    between atoms: C_7  and  O_6 
REMARK    5  A    between atoms: C_9  and  C_10 
REMARK    6  A    between atoms: N_15  and  C_14 
REMARK    7  A    between atoms: N_20  and  C_19 
REMARK       I    between atoms: C_22  and  N_20 
ROOT
ATOM      1  C   LIG d   1       2.872  85.333 112.983  0.00  0.00     0.161 C 
ATOM      2  C   LIG d   1       2.895  86.675 112.568  0.00  0.00     0.016 C 
ATOM      3  C   LIG d   1       2.993  87.765 113.463  0.00  0.00     0.038 C 
ATOM      4  C   LIG d   1       3.229  87.580 114.834  0.00  0.00     0.028 C 
ATOM      5  C   LIG d   1       2.708  86.248 115.363  0.00  0.00    -0.047 C 
ATOM      6  C   LIG d   1       3.240  85.108 114.465  0.00  0.00     0.091 C 
ENDROOT
BRANCH   1   7
ATOM      7  O   LIG d   1       3.724  84.543 112.130  0.00  0.00    -0.368 OA
BRANCH   7   8
ATOM      8  C   LIG d   1       3.214  84.264 110.803  0.00  0.00     0.119 C 
BRANCH   8   9
ATOM      9  C   LIG d   1       1.865  83.538 110.968  0.00  0.00     0.028 C 
ATOM     10  C   LIG d   1       0.746  84.181 110.132  0.00  0.00     0.006 C 
ENDBRANCH   8   9
BRANCH   8  11
ATOM     11  C   LIG d   1       4.117  83.278 110.055  0.00  0.00     0.028 C 
ATOM     12  C   LIG d   1       3.621  81.826 110.152  0.00  0.00     0.006 C 
ENDBRANCH   8  11
ENDBRANCH   7   8
ENDBRANCH   1   7
BRANCH   6  13
ATOM     13  N   LIG d   1       2.709  83.778 114.862  0.00  0.00    -0.311 N 
ATOM     14  C   LIG d   1       3.369  82.931 115.650  0.00  0.00     0.210 C 
ATOM     15  C   LIG d   1       2.651  81.605 115.920  0.00  0.00     0.109 C 
ATOM     16  O   LIG d   1       4.468  83.165 116.177  0.00  0.00    -0.276 OA
ATOM     17  H   LIG d   1       1.810  83.520 114.505  0.00  0.00     0.149 HD
ENDBRANCH   6  13
BRANCH   5  18
ATOM     18  N   LIG d   1       3.141  86.126 116.768  0.00  0.00     0.381 N 
ATOM     19  H   LIG d   1       2.736  86.862 117.312  0.00  0.00    -0.090 HD
ATOM     20  H   LIG d   1       4.141  86.218 116.809  0.00  0.00    -0.090 HD
ATOM     21  H   LIG d   1       2.866  85.242 117.135  0.00  0.00    -0.090 HD
ENDBRANCH   5  18
BRANCH   3  22
ATOM     22  C   LIG d   1       2.816  89.058 112.995  0.00  0.00     0.382 C 
ATOM     23  O   LIG d   1       3.764  89.878 113.042  0.00  0.00    -0.241 OA
ATOM     24  O   LIG d   1       1.706  89.427 112.566  0.00  0.00    -0.241 OA
ENDBRANCH   3  22
TORSDOF 7
ENDMDL
MODEL 8
REMARK VINA RESULT:      -5.4      2.377      4.953
REMARK  7 active torsions:
REMARK  status: ('A' for Active; 'I' for Inactive)
REMARK    1  A    between atoms: C_2  and  C_3 
REMARK    2  A    between atoms: C_3  and  O_6 
REMARK    3  A    between atoms: C_3  and  C_4 
REMARK    4  A    between atoms: C_7  and  O_6 
REMARK    5  A    between atoms: C_9  and  C_10 
REMARK    6  A    between atoms: N_15  and  C_14 
REMARK    7  A    between atoms: N_20  and  C_19 
REMARK       I    between atoms: C_22  and  N_20 
ROOT
ATOM      1  C   LIG d   1      -4.411  75.063 114.712  0.00  0.00     0.161 C 
ATOM      2  C   LIG d   1      -5.512  74.194 114.790  0.00  0.00     0.016 C 
ATOM      3  C   LIG d   1      -6.543  74.328 115.748  0.00  0.00     0.038 C 
ATOM      4  C   LIG d   1      -6.621  75.438 116.603  0.00  0.00     0.028 C 
ATOM      5  C   LIG d   1      -5.265  76.070 116.899  0.00  0.00    -0.047 C 
ATOM      6  C   LIG d   1      -4.536  76.343 115.564  0.00  0.00     0.091 C 
ENDROOT
BRANCH   1   7
ATOM      7  O   LIG d   1      -4.152  75.400 113.335  0.00  0.00    -0.368 OA
BRANCH   7   8
ATOM      8  C   LIG d   1      -4.819  76.584 112.833  0.00  0.00     0.119 C 
BRANCH   8   9
ATOM      9  C   LIG d   1      -5.895  76.120 111.832  0.00  0.00     0.028 C 
ATOM     10  C   LIG d   1      -7.227  76.867 112.014  0.00  0.00     0.006 C 
ENDBRANCH   8   9
BRANCH   8  11
ATOM     11  C   LIG d   1      -3.862  77.461 112.020  0.00  0.00     0.028 C 
ATOM     12  C   LIG d   1      -2.384  77.110 112.258  0.00  0.00     0.006 C 
ENDBRANCH   8  11
ENDBRANCH   7   8
ENDBRANCH   1   7
BRANCH   6  13
ATOM     13  N   LIG d   1      -3.167  76.884 115.766  0.00  0.00    -0.311 N 
ATOM     14  C   LIG d   1      -2.888  78.187 115.782  0.00  0.00     0.210 C 
ATOM     15  C   LIG d   1      -1.409  78.529 115.985  0.00  0.00     0.109 C 
ATOM     16  O   LIG d   1      -3.730  79.091 115.680  0.00  0.00    -0.276 OA
ATOM     17  H   LIG d   1      -2.427  76.221 115.888  0.00  0.00     0.149 HD
ENDBRANCH   6  13
BRANCH   5  18
ATOM     18  N   LIG d   1      -5.507  77.294 117.687  0.00  0.00     0.381 N 
ATOM     19  H   LIG d   1      -6.468  77.563 117.609  0.00  0.00    -0.090 HD
ATOM     20  H   LIG d   1      -4.941  78.036 117.316  0.00  0.00    -0.090 HD
ATOM     21  H   LIG d   1      -5.276  77.136 118.643  0.00  0.00    -0.090 HD
ENDBRANCH   5  18
BRANCH   3  22
ATOM     22  C   LIG d   1      -7.489  73.324 115.885  0.00  0.00     0.382 C 
ATOM     23  O   LIG d   1      -7.144  72.121 115.796  0.00  0.00    -0.241 OA
ATOM     24  O   LIG d   1      -8.691  73.606 116.051  0.00  0.00    -0.241 OA
ENDBRANCH   3  22
TORSDOF 7
ENDMDL
MODEL 9
REMARK VINA RESULT:      -5.3      2.287      5.365
REMARK  7 active torsions:
REMARK  status: ('A' for Active; 'I' for Inactive)
REMARK    1  A    between atoms: C_2  and  C_3 
REMARK    2  A    between atoms: C_3  and  O_6 
REMARK    3  A    between atoms: C_3  and  C_4 
REMARK    4  A    between atoms: C_7  and  O_6 
REMARK    5  A    between atoms: C_9  and  C_10 
REMARK    6  A    between atoms: N_15  and  C_14 
REMARK    7  A    between atoms: N_20  and  C_19 
REMARK       I    between atoms: C_22  and  N_20 
ROOT
ATOM      1  C   LIG d   1      -3.342  75.560 115.085  0.00  0.00     0.161 C 
ATOM      2  C   LIG d   1      -4.139  74.627 115.769  0.00  0.00     0.016 C 
ATOM      3  C   LIG d   1      -5.442  74.266 115.356  0.00  0.00     0.038 C 
ATOM      4  C   LIG d   1      -5.982  74.704 114.138  0.00  0.00     0.028 C 
ATOM      5  C   LIG d   1      -5.415  76.039 113.669  0.00  0.00    -0.047 C 
ATOM      6  C   LIG d   1      -3.871  75.965 113.693  0.00  0.00     0.091 C 
ENDROOT
BRANCH   1   7
ATOM      7  O   LIG d   1      -1.991  75.069 114.985  0.00  0.00    -0.368 OA
BRANCH   7   8
ATOM      8  C   LIG d   1      -1.126  75.348 116.113  0.00  0.00     0.119 C 
BRANCH   8   9
ATOM      9  C   LIG d   1      -0.015  76.296 115.621  0.00  0.00     0.028 C 
ATOM     10  C   LIG d   1      -0.444  77.772 115.662  0.00  0.00     0.006 C 
ENDBRANCH   8   9
BRANCH   8  11
ATOM     11  C   LIG d   1      -0.401  74.084 116.585  0.00  0.00     0.028 C 
ATOM     12  C   LIG d   1      -0.592  73.812 118.085  0.00  0.00     0.006 C 
ENDBRANCH   8  11
ENDBRANCH   7   8
ENDBRANCH   1   7
BRANCH   6  13
ATOM     13  N   LIG d   1      -3.235  77.258 113.329  0.00  0.00    -0.311 N 
ATOM     14  C   LIG d   1      -2.303  77.377 112.386  0.00  0.00     0.210 C 
ATOM     15  C   LIG d   1      -1.765  78.797 112.183  0.00  0.00     0.109 C 
ATOM     16  O   LIG d   1      -1.893  76.446 111.675  0.00  0.00    -0.276 OA
ATOM     17  H   LIG d   1      -3.532  78.070 113.834  0.00  0.00     0.149 HD
ENDBRANCH   6  13
BRANCH   5  18
ATOM     18  N   LIG d   1      -5.960  76.308 112.325  0.00  0.00     0.381 N 
ATOM     19  H   LIG d   1      -5.925  75.475 111.772  0.00  0.00    -0.090 HD
ATOM     20  H   LIG d   1      -5.393  77.007 111.878  0.00  0.00    -0.090 HD
ATOM     21  H   LIG d   1      -6.900  76.629 112.396  0.00  0.00    -0.090 HD
ENDBRANCH   5  18
BRANCH   3  22
ATOM     22  C   LIG d   1      -6.235  73.488 116.186  0.00  0.00     0.382 C 
ATOM     23  O   LIG d   1      -6.815  74.010 117.169  0.00  0.00    -0.241 OA
ATOM     24  O   LIG d   1      -6.343  72.263 115.991  0.00  0.00    -0.241 OA
ENDBRANCH   3  22
TORSDOF 7
ENDMDL
