MODEL 1
REMARK VINA RESULT:      -5.5      0.000      0.000
REMARK  7 active torsions:
REMARK  status: ('A' for Active; 'I' for Inactive)
REMARK    1  A    between atoms: C_2  and  C_3 
REMARK    2  A    between atoms: C_3  and  O_6 
REMARK    3  A    between atoms: C_3  and  C_4 
REMARK    4  A    between atoms: C_7  and  O_6 
REMARK    5  A    between atoms: C_9  and  C_10 
REMARK    6  A    between atoms: N_15  and  C_14 
REMARK    7  A    between atoms: N_20  and  C_19 
REMARK       I    between atoms: C_22  and  N_20 
ROOT
ATOM      1  C   LIG d   1       4.303  85.584 112.670  0.00  0.00     0.161 C 
ATOM      2  C   LIG d   1       4.481  86.845 113.262  0.00  0.00     0.016 C 
ATOM      3  C   LIG d   1       3.653  87.957 112.988  0.00  0.00     0.038 C 
ATOM      4  C   LIG d   1       2.490  87.843 112.212  0.00  0.00     0.028 C 
ATOM      5  C   LIG d   1       2.554  86.713 111.189  0.00  0.00    -0.047 C 
ATOM      6  C   LIG d   1       2.974  85.410 111.906  0.00  0.00     0.091 C 
ENDROOT
BRANCH   1   7
ATOM      7  O   LIG d   1       4.448  84.551 113.665  0.00  0.00    -0.368 OA
BRANCH   7   8
ATOM      8  C   LIG d   1       4.166  84.940 115.032  0.00  0.00     0.119 C 
BRANCH   8   9
ATOM      9  C   LIG d   1       5.096  84.120 115.947  0.00  0.00     0.028 C 
ATOM     10  C   LIG d   1       4.465  82.787 116.382  0.00  0.00     0.006 C 
ENDBRANCH   8   9
BRANCH   8  11
ATOM     11  C   LIG d   1       2.744  84.546 115.441  0.00  0.00     0.028 C 
ATOM     12  C   LIG d   1       1.804  85.756 115.570  0.00  0.00     0.006 C 
ENDBRANCH   8  11
ENDBRANCH   7   8
ENDBRANCH   1   7
BRANCH   6  13
ATOM     13  N   LIG d   1       3.142  84.273 110.963  0.00  0.00    -0.311 N 
ATOM     14  C   LIG d   1       2.561  83.087 111.134  0.00  0.00     0.210 C 
ATOM     15  C   LIG d   1       2.883  82.048 110.055  0.00  0.00     0.109 C 
ATOM     16  O   LIG d   1       1.784  82.807 112.059  0.00  0.00    -0.276 OA
ATOM     17  H   LIG d   1       3.731  84.424 110.168  0.00  0.00     0.149 HD
ENDBRANCH   6  13
BRANCH   5  18
ATOM     18  N   LIG d   1       1.229  86.619 110.546  0.00  0.00     0.381 N 
ATOM     19  H   LIG d   1       0.837  87.533 110.443  0.00  0.00    -0.090 HD
ATOM     20  H   LIG d   1       0.620  86.079 111.135  0.00  0.00    -0.090 HD
ATOM     21  H   LIG d   1       1.313  86.183 109.654  0.00  0.00    -0.090 HD
ENDBRANCH   5  18
BRANCH   3  22
ATOM     22  C   LIG d   1       4.008  89.212 113.461  0.00  0.00     0.382 C 
ATOM     23  O   LIG d   1       4.239  89.379 114.683  0.00  0.00    -0.241 OA
ATOM     24  O   LIG d   1       4.057  90.188 112.688  0.00  0.00    -0.241 OA
ENDBRANCH   3  22
TORSDOF 7
ENDMDL
MODEL 2
REMARK VINA RESULT:      -5.4      2.389      2.836
REMARK  7 active torsions:
REMARK  status: ('A' for Active; 'I' for Inactive)
REMARK    1  A    between atoms: C_2  and  C_3 
REMARK    2  A    between atoms: C_3  and  O_6 
REMARK    3  A    between atoms: C_3  and  C_4 
REMARK    4  A    between atoms: C_7  and  O_6 
REMARK    5  A    between atoms: C_9  and  C_10 
REMARK    6  A    between atoms: N_15  and  C_14 
REMARK    7  A    between atoms: N_20  and  C_19 
REMARK       I    between atoms: C_22  and  N_20 
ROOT
ATOM      1  C   LIG d   1       1.852  84.043 112.842  0.00  0.00     0.161 C 
ATOM      2  C   LIG d   1       2.318  85.367 112.793  0.00  0.00     0.016 C 
ATOM      3  C   LIG d   1       1.799  86.343 111.912  0.00  0.00     0.038 C 
ATOM      4  C   LIG d   1       0.667  86.099 111.119  0.00  0.00     0.028 C 
ATOM      5  C   LIG d   1       0.481  84.627 110.766  0.00  0.00    -0.047 C 
ATOM      6  C   LIG d   1       0.544  83.788 112.063  0.00  0.00     0.091 C 
ENDROOT
BRANCH   1   7
ATOM      7  O   LIG d   1       1.707  83.626 114.214  0.00  0.00    -0.368 OA
BRANCH   7   8
ATOM      8  C   LIG d   1       2.574  84.280 115.174  0.00  0.00     0.119 C 
BRANCH   8   9
ATOM      9  C   LIG d   1       3.646  83.258 115.601  0.00  0.00     0.028 C 
ATOM     10  C   LIG d   1       4.960  83.932 116.028  0.00  0.00     0.006 C 
ENDBRANCH   8   9
BRANCH   8  11
ATOM     11  C   LIG d   1       1.817  84.634 116.457  0.00  0.00     0.028 C 
ATOM     12  C   LIG d   1       1.720  86.149 116.693  0.00  0.00     0.006 C 
ENDBRANCH   8  11
ENDBRANCH   7   8
ENDBRANCH   1   7
BRANCH   6  13
ATOM     13  N   LIG d   1       0.454  82.329 111.799  0.00  0.00    -0.311 N 
ATOM     14  C   LIG d   1      -0.686  81.642 111.855  0.00  0.00     0.210 C 
ATOM     15  C   LIG d   1      -0.553  80.143 111.568  0.00  0.00     0.109 C 
ATOM     16  O   LIG d   1      -1.799  82.138 112.082  0.00  0.00    -0.276 OA
ATOM     17  H   LIG d   1       1.306  81.852 111.576  0.00  0.00     0.149 HD
ENDBRANCH   6  13
BRANCH   5  18
ATOM     18  N   LIG d   1      -0.806  84.498 110.057  0.00  0.00     0.381 N 
ATOM     19  H   LIG d   1      -1.459  84.000 110.628  0.00  0.00    -0.090 HD
ATOM     20  H   LIG d   1      -0.661  83.974 109.212  0.00  0.00    -0.090 HD
ATOM     21  H   LIG d   1      -1.167  85.401 109.838  0.00  0.00    -0.090 HD
ENDBRANCH   5  18
BRANCH   3  22
ATOM     22  C   LIG d   1       2.438  87.567 111.788  0.00  0.00     0.382 C 
ATOM     23  O   LIG d   1       3.685  87.613 111.660  0.00  0.00    -0.241 OA
ATOM     24  O   LIG d   1       1.788  88.628 111.847  0.00  0.00    -0.241 OA
ENDBRANCH   3  22
TORSDOF 7
ENDMDL
MODEL 3
REMARK VINA RESULT:      -5.2      2.447      4.555
REMARK  7 active torsions:
REMARK  status: ('A' for Active; 'I' for Inactive)
REMARK    1  A    between atoms: C_2  and  C_3 
REMARK    2  A    between atoms: C_3  and  O_6 
REMARK    3  A    between atoms: C_3  and  C_4 
REMARK    4  A    between atoms: C_7  and  O_6 
REMARK    5  A    between atoms: C_9  and  C_10 
REMARK    6  A    between atoms: N_15  and  C_14 
REMARK    7  A    between atoms: N_20  and  C_19 
REMARK       I    between atoms: C_22  and  N_20 
ROOT
ATOM      1  C   LIG d   1       2.616  86.109 113.990  0.00  0.00     0.161 C 
ATOM      2  C   LIG d   1       2.939  87.439 113.669  0.00  0.00     0.016 C 
ATOM      3  C   LIG d   1       3.992  88.154 114.285  0.00  0.00     0.038 C 
ATOM      4  C   LIG d   1       4.896  87.535 115.160  0.00  0.00     0.028 C 
ATOM      5  C   LIG d   1       4.305  86.336 115.894  0.00  0.00    -0.047 C 
ATOM      6  C   LIG d   1       3.662  85.383 114.862  0.00  0.00     0.091 C 
ENDROOT
BRANCH   1   7
ATOM      7  O   LIG d   1       2.365  85.363 112.783  0.00  0.00    -0.368 OA
BRANCH   7   8
ATOM      8  C   LIG d   1       1.554  86.026 111.781  0.00  0.00     0.119 C 
BRANCH   8   9
ATOM      9  C   LIG d   1       0.110  85.513 111.941  0.00  0.00     0.028 C 
ATOM     10  C   LIG d   1      -0.831  86.062 110.856  0.00  0.00     0.006 C 
ENDBRANCH   8   9
BRANCH   8  11
ATOM     11  C   LIG d   1       1.974  85.618 110.366  0.00  0.00     0.028 C 
ATOM     12  C   LIG d   1       3.310  84.859 110.336  0.00  0.00     0.006 C 
ENDBRANCH   8  11
ENDBRANCH   7   8
ENDBRANCH   1   7
BRANCH   6  13
ATOM     13  N   LIG d   1       2.985  84.225 115.503  0.00  0.00    -0.311 N 
ATOM     14  C   LIG d   1       3.595  83.069 115.758  0.00  0.00     0.210 C 
ATOM     15  C   LIG d   1       2.710  82.000 116.406  0.00  0.00     0.109 C 
ATOM     16  O   LIG d   1       4.794  82.837 115.537  0.00  0.00    -0.276 OA
ATOM     17  H   LIG d   1       2.020  84.337 115.744  0.00  0.00     0.149 HD
ENDBRANCH   6  13
BRANCH   5  18
ATOM     18  N   LIG d   1       5.392  85.705 116.666  0.00  0.00     0.381 N 
ATOM     19  H   LIG d   1       5.403  84.720 116.491  0.00  0.00    -0.090 HD
ATOM     20  H   LIG d   1       5.222  85.850 117.645  0.00  0.00    -0.090 HD
ATOM     21  H   LIG d   1       6.268  86.105 116.410  0.00  0.00    -0.090 HD
ENDBRANCH   5  18
BRANCH   3  22
ATOM     22  C   LIG d   1       4.124  89.515 114.056  0.00  0.00     0.382 C 
ATOM     23  O   LIG d   1       4.208  90.308 115.024  0.00  0.00    -0.241 OA
ATOM     24  O   LIG d   1       4.115  89.964 112.894  0.00  0.00    -0.241 OA
ENDBRANCH   3  22
TORSDOF 7
ENDMDL
MODEL 4
REMARK VINA RESULT:      -5.2      2.715      4.443
REMARK  7 active torsions:
REMARK  status: ('A' for Active; 'I' for Inactive)
REMARK    1  A    between atoms: C_2  and  C_3 
REMARK    2  A    between atoms: C_3  and  O_6 
REMARK    3  A    between atoms: C_3  and  C_4 
REMARK    4  A    between atoms: C_7  and  O_6 
REMARK    5  A    between atoms: C_9  and  C_10 
REMARK    6  A    between atoms: N_15  and  C_14 
REMARK    7  A    between atoms: N_20  and  C_19 
REMARK       I    between atoms: C_22  and  N_20 
ROOT
ATOM      1  C   LIG d   1       1.598  84.528 113.032  0.00  0.00     0.161 C 
ATOM      2  C   LIG d   1       1.782  85.861 112.626  0.00  0.00     0.016 C 
ATOM      3  C   LIG d   1       2.894  86.645 113.011  0.00  0.00     0.038 C 
ATOM      4  C   LIG d   1       3.980  86.099 113.710  0.00  0.00     0.028 C 
ATOM      5  C   LIG d   1       3.604  84.898 114.572  0.00  0.00    -0.047 C 
ATOM      6  C   LIG d   1       2.828  83.881 113.704  0.00  0.00     0.091 C 
ENDROOT
BRANCH   1   7
ATOM      7  O   LIG d   1       1.162  83.732 111.913  0.00  0.00    -0.368 OA
BRANCH   7   8
ATOM      8  C   LIG d   1      -0.262  83.737 111.644  0.00  0.00     0.119 C 
BRANCH   8   9
ATOM      9  C   LIG d   1      -0.760  82.283 111.757  0.00  0.00     0.028 C 
ATOM     10  C   LIG d   1       0.105  81.302 110.948  0.00  0.00     0.006 C 
ENDBRANCH   8   9
BRANCH   8  11
ATOM     11  C   LIG d   1      -0.554  84.155 110.199  0.00  0.00     0.028 C 
ATOM     12  C   LIG d   1      -0.921  85.642 110.072  0.00  0.00     0.006 C 
ENDBRANCH   8  11
ENDBRANCH   7   8
ENDBRANCH   1   7
BRANCH   6  13
ATOM     13  N   LIG d   1       2.349  82.714 114.489  0.00  0.00    -0.311 N 
ATOM     14  C   LIG d   1       2.455  81.455 114.070  0.00  0.00     0.210 C 
ATOM     15  C   LIG d   1       1.880  80.404 115.024  0.00  0.00     0.109 C 
ATOM     16  O   LIG d   1       3.001  81.105 113.012  0.00  0.00    -0.276 OA
ATOM     17  H   LIG d   1       1.921  82.905 115.374  0.00  0.00     0.149 HD
ENDBRANCH   6  13
BRANCH   5  18
ATOM     18  N   LIG d   1       4.850  84.345 115.134  0.00  0.00     0.381 N 
ATOM     19  H   LIG d   1       5.490  85.088 115.335  0.00  0.00    -0.090 HD
ATOM     20  H   LIG d   1       5.274  83.740 114.453  0.00  0.00    -0.090 HD
ATOM     21  H   LIG d   1       4.652  83.834 115.966  0.00  0.00    -0.090 HD
ENDBRANCH   5  18
BRANCH   3  22
ATOM     22  C   LIG d   1       2.907  88.003 112.730  0.00  0.00     0.382 C 
ATOM     23  O   LIG d   1       1.854  88.576 112.358  0.00  0.00    -0.241 OA
ATOM     24  O   LIG d   1       3.967  88.652 112.800  0.00  0.00    -0.241 OA
ENDBRANCH   3  22
TORSDOF 7
ENDMDL
MODEL 5
REMARK VINA RESULT:      -5.0      1.690      2.332
REMARK  7 active torsions:
REMARK  status: ('A' for Active; 'I' for Inactive)
REMARK    1  A    between atoms: C_2  and  C_3 
REMARK    2  A    between atoms: C_3  and  O_6 
REMARK    3  A    between atoms: C_3  and  C_4 
REMARK    4  A    between atoms: C_7  and  O_6 
REMARK    5  A    between atoms: C_9  and  C_10 
REMARK    6  A    between atoms: N_15  and  C_14 
REMARK    7  A    between atoms: N_20  and  C_19 
REMARK       I    between atoms: C_22  and  N_20 
ROOT
ATOM      1  C   LIG d   1       2.559  85.732 113.883  0.00  0.00     0.161 C 
ATOM      2  C   LIG d   1       3.221  86.940 114.161  0.00  0.00     0.016 C 
ATOM      3  C   LIG d   1       3.279  88.023 113.253  0.00  0.00     0.038 C 
ATOM      4  C   LIG d   1       2.546  88.027 112.057  0.00  0.00     0.028 C 
ATOM      5  C   LIG d   1       2.275  86.631 111.507  0.00  0.00    -0.047 C 
ATOM      6  C   LIG d   1       1.661  85.761 112.628  0.00  0.00     0.091 C 
ENDROOT
BRANCH   1   7
ATOM      7  O   LIG d   1       1.799  85.315 115.034  0.00  0.00    -0.368 OA
BRANCH   7   8
ATOM      8  C   LIG d   1       2.200  84.063 115.643  0.00  0.00     0.119 C 
BRANCH   8   9
ATOM      9  C   LIG d   1       1.887  84.160 117.149  0.00  0.00     0.028 C 
ATOM     10  C   LIG d   1       2.104  85.577 117.704  0.00  0.00     0.006 C 
ENDBRANCH   8   9
BRANCH   8  11
ATOM     11  C   LIG d   1       3.716  83.862 115.557  0.00  0.00     0.028 C 
ATOM     12  C   LIG d   1       4.173  82.518 116.146  0.00  0.00     0.006 C 
ENDBRANCH   8  11
ENDBRANCH   7   8
ENDBRANCH   1   7
BRANCH   6  13
ATOM     13  N   LIG d   1       1.442  84.355 112.199  0.00  0.00    -0.311 N 
ATOM     14  C   LIG d   1       0.236  83.799 112.099  0.00  0.00     0.210 C 
ATOM     15  C   LIG d   1       0.236  82.331 111.659  0.00  0.00     0.109 C 
ATOM     16  O   LIG d   1      -0.835  84.390 112.302  0.00  0.00    -0.276 OA
ATOM     17  H   LIG d   1       2.255  83.812 111.985  0.00  0.00     0.149 HD
ENDBRANCH   6  13
BRANCH   5  18
ATOM     18  N   LIG d   1       1.388  86.777 110.338  0.00  0.00     0.381 N 
ATOM     19  H   LIG d   1       1.292  87.745 110.104  0.00  0.00    -0.090 HD
ATOM     20  H   LIG d   1       0.479  86.418 110.572  0.00  0.00    -0.090 HD
ATOM     21  H   LIG d   1       1.761  86.276 109.562  0.00  0.00    -0.090 HD
ENDBRANCH   5  18
BRANCH   3  22
ATOM     22  C   LIG d   1       4.110  89.100 113.521  0.00  0.00     0.382 C 
ATOM     23  O   LIG d   1       4.057  90.126 112.801  0.00  0.00    -0.241 OA
ATOM     24  O   LIG d   1       4.942  89.041 114.446  0.00  0.00    -0.241 OA
ENDBRANCH   3  22
TORSDOF 7
ENDMDL
MODEL 6
REMARK VINA RESULT:      -4.8      2.359      4.587
REMARK  7 active torsions:
REMARK  status: ('A' for Active; 'I' for Inactive)
REMARK    1  A    between atoms: C_2  and  C_3 
REMARK    2  A    between atoms: C_3  and  O_6 
REMARK    3  A    between atoms: C_3  and  C_4 
REMARK    4  A    between atoms: C_7  and  O_6 
REMARK    5  A    between atoms: C_9  and  C_10 
REMARK    6  A    between atoms: N_15  and  C_14 
REMARK    7  A    between atoms: N_20  and  C_19 
REMARK       I    between atoms: C_22  and  N_20 
ROOT
ATOM      1  C   LIG d   1       1.624  84.570 113.442  0.00  0.00     0.161 C 
ATOM      2  C   LIG d   1       1.828  85.808 112.811  0.00  0.00     0.016 C 
ATOM      3  C   LIG d   1       2.915  86.662 113.105  0.00  0.00     0.038 C 
ATOM      4  C   LIG d   1       3.963  86.264 113.948  0.00  0.00     0.028 C 
ATOM      5  C   LIG d   1       3.544  85.235 114.992  0.00  0.00    -0.047 C 
ATOM      6  C   LIG d   1       2.817  84.069 114.283  0.00  0.00     0.091 C 
ENDROOT
BRANCH   1   7
ATOM      7  O   LIG d   1       1.250  83.579 112.464  0.00  0.00    -0.368 OA
BRANCH   7   8
ATOM      8  C   LIG d   1       1.873  83.701 111.162  0.00  0.00     0.119 C 
BRANCH   8   9
ATOM      9  C   LIG d   1       0.774  83.495 110.102  0.00  0.00     0.028 C 
ATOM     10  C   LIG d   1      -0.612  83.270 110.729  0.00  0.00     0.006 C 
ENDBRANCH   8   9
BRANCH   8  11
ATOM     11  C   LIG d   1       2.884  82.576 110.921  0.00  0.00     0.028 C 
ATOM     12  C   LIG d   1       2.424  81.227 111.498  0.00  0.00     0.006 C 
ENDBRANCH   8  11
ENDBRANCH   7   8
ENDBRANCH   1   7
BRANCH   6  13
ATOM     13  N   LIG d   1       2.299  83.058 115.241  0.00  0.00    -0.311 N 
ATOM     14  C   LIG d   1       2.979  81.970 115.598  0.00  0.00     0.210 C 
ATOM     15  C   LIG d   1       2.253  81.048 116.583  0.00  0.00     0.109 C 
ATOM     16  O   LIG d   1       4.127  81.697 115.217  0.00  0.00    -0.276 OA
ATOM     17  H   LIG d   1       1.387  83.217 115.623  0.00  0.00     0.149 HD
ENDBRANCH   6  13
BRANCH   5  18
ATOM     18  N   LIG d   1       4.759  84.807 115.710  0.00  0.00     0.381 N 
ATOM     19  H   LIG d   1       4.540  84.627 116.669  0.00  0.00    -0.090 HD
ATOM     20  H   LIG d   1       5.435  85.550 115.676  0.00  0.00    -0.090 HD
ATOM     21  H   LIG d   1       5.134  83.987 115.287  0.00  0.00    -0.090 HD
ENDBRANCH   5  18
BRANCH   3  22
ATOM     22  C   LIG d   1       2.941  87.947 112.583  0.00  0.00     0.382 C 
ATOM     23  O   LIG d   1       3.991  88.629 112.649  0.00  0.00    -0.241 OA
ATOM     24  O   LIG d   1       1.914  88.448 112.087  0.00  0.00    -0.241 OA
ENDBRANCH   3  22
TORSDOF 7
ENDMDL
MODEL 7
REMARK VINA RESULT:      -4.8      2.105      4.948
REMARK  7 active torsions:
REMARK  status: ('A' for Active; 'I' for Inactive)
REMARK    1  A    between atoms: C_2  and  C_3 
REMARK    2  A    between atoms: C_3  and  O_6 
REMARK    3  A    between atoms: C_3  and  C_4 
REMARK    4  A    between atoms: C_7  and  O_6 
REMARK    5  A    between atoms: C_9  and  C_10 
REMARK    6  A    between atoms: N_15  and  C_14 
REMARK    7  A    between atoms: N_20  and  C_19 
REMARK       I    between atoms: C_22  and  N_20 
ROOT
ATOM      1  C   LIG d   1       1.822  84.856 113.382  0.00  0.00     0.161 C 
ATOM      2  C   LIG d   1       1.013  83.768 113.012  0.00  0.00     0.016 C 
ATOM      3  C   LIG d   1       0.363  83.673 111.760  0.00  0.00     0.038 C 
ATOM      4  C   LIG d   1       0.601  84.594 110.729  0.00  0.00     0.028 C 
ATOM      5  C   LIG d   1       1.012  85.974 111.232  0.00  0.00    -0.047 C 
ATOM      6  C   LIG d   1       2.182  85.816 112.229  0.00  0.00     0.091 C 
ENDROOT
BRANCH   1   7
ATOM      7  O   LIG d   1       3.018  84.377 114.028  0.00  0.00    -0.368 OA
BRANCH   7   8
ATOM      8  C   LIG d   1       3.116  84.624 115.453  0.00  0.00     0.119 C 
BRANCH   8   9
ATOM      9  C   LIG d   1       4.486  85.278 115.716  0.00  0.00     0.028 C 
ATOM     10  C   LIG d   1       4.358  86.706 116.273  0.00  0.00     0.006 C 
ENDBRANCH   8   9
BRANCH   8  11
ATOM     11  C   LIG d   1       3.132  83.314 116.245  0.00  0.00     0.028 C 
ATOM     12  C   LIG d   1       2.094  83.290 117.379  0.00  0.00     0.006 C 
ENDBRANCH   8  11
ENDBRANCH   7   8
ENDBRANCH   1   7
BRANCH   6  13
ATOM     13  N   LIG d   1       2.591  87.111 112.834  0.00  0.00    -0.311 N 
ATOM     14  C   LIG d   1       3.784  87.668 112.636  0.00  0.00     0.210 C 
ATOM     15  C   LIG d   1       4.008  88.995 113.368  0.00  0.00     0.109 C 
ATOM     16  O   LIG d   1       4.667  87.206 111.897  0.00  0.00    -0.276 OA
ATOM     17  H   LIG d   1       1.924  87.570 113.423  0.00  0.00     0.149 HD
ENDBRANCH   6  13
BRANCH   5  18
ATOM     18  N   LIG d   1       1.362  86.792 110.055  0.00  0.00     0.381 N 
ATOM     19  H   LIG d   1       0.537  87.216 109.680  0.00  0.00    -0.090 HD
ATOM     20  H   LIG d   1       1.757  86.195 109.351  0.00  0.00    -0.090 HD
ATOM     21  H   LIG d   1       2.018  87.495 110.312  0.00  0.00    -0.090 HD
ENDBRANCH   5  18
BRANCH   3  22
ATOM     22  C   LIG d   1      -0.568  82.669 111.544  0.00  0.00     0.382 C 
ATOM     23  O   LIG d   1      -0.486  81.948 110.520  0.00  0.00    -0.241 OA
ATOM     24  O   LIG d   1      -1.514  82.503 112.337  0.00  0.00    -0.241 OA
ENDBRANCH   3  22
TORSDOF 7
ENDMDL
MODEL 8
REMARK VINA RESULT:      -4.8     26.942     29.762
REMARK  7 active torsions:
REMARK  status: ('A' for Active; 'I' for Inactive)
REMARK    1  A    between atoms: C_2  and  C_3 
REMARK    2  A    between atoms: C_3  and  O_6 
REMARK    3  A    between atoms: C_3  and  C_4 
REMARK    4  A    between atoms: C_7  and  O_6 
REMARK    5  A    between atoms: C_9  and  C_10 
REMARK    6  A    between atoms: N_15  and  C_14 
REMARK    7  A    between atoms: N_20  and  C_19 
REMARK       I    between atoms: C_22  and  N_20 
ROOT
ATOM      1  C   LIG d   1     -17.049  64.752 113.359  0.00  0.00     0.161 C 
ATOM      2  C   LIG d   1     -17.396  63.700 114.224  0.00  0.00     0.016 C 
ATOM      3  C   LIG d   1     -16.949  63.614 115.562  0.00  0.00     0.038 C 
ATOM      4  C   LIG d   1     -16.243  64.659 116.177  0.00  0.00     0.028 C 
ATOM      5  C   LIG d   1     -15.441  65.507 115.196  0.00  0.00    -0.047 C 
ATOM      6  C   LIG d   1     -16.370  65.956 114.045  0.00  0.00     0.091 C 
ENDROOT
BRANCH   1   7
ATOM      7  O   LIG d   1     -18.210  65.183 112.623  0.00  0.00    -0.368 OA
BRANCH   7   8
ATOM      8  C   LIG d   1     -19.470  64.579 113.009  0.00  0.00     0.119 C 
BRANCH   8   9
ATOM      9  C   LIG d   1     -20.219  64.205 111.715  0.00  0.00     0.028 C 
ATOM     10  C   LIG d   1     -21.615  64.846 111.639  0.00  0.00     0.006 C 
ENDBRANCH   8   9
BRANCH   8  11
ATOM     11  C   LIG d   1     -20.375  65.586 113.725  0.00  0.00     0.028 C 
ATOM     12  C   LIG d   1     -20.384  65.399 115.250  0.00  0.00     0.006 C 
ENDBRANCH   8  11
ENDBRANCH   7   8
ENDBRANCH   1   7
BRANCH   6  13
ATOM     13  N   LIG d   1     -15.646  66.721 112.997  0.00  0.00    -0.311 N 
ATOM     14  C   LIG d   1     -15.534  68.048 113.003  0.00  0.00     0.210 C 
ATOM     15  C   LIG d   1     -14.762  68.638 111.818  0.00  0.00     0.109 C 
ATOM     16  O   LIG d   1     -15.972  68.790 113.895  0.00  0.00    -0.276 OA
ATOM     17  H   LIG d   1     -15.232  66.195 112.252  0.00  0.00     0.149 HD
ENDBRANCH   6  13
BRANCH   5  18
ATOM     18  N   LIG d   1     -14.867  66.638 115.950  0.00  0.00     0.381 N 
ATOM     19  H   LIG d   1     -13.910  66.448 116.169  0.00  0.00    -0.090 HD
ATOM     20  H   LIG d   1     -15.373  66.744 116.812  0.00  0.00    -0.090 HD
ATOM     21  H   LIG d   1     -14.933  67.474 115.413  0.00  0.00    -0.090 HD
ENDBRANCH   5  18
BRANCH   3  22
ATOM     22  C   LIG d   1     -17.175  62.455 116.289  0.00  0.00     0.382 C 
ATOM     23  O   LIG d   1     -18.293  61.888 116.234  0.00  0.00    -0.241 OA
ATOM     24  O   LIG d   1     -16.289  61.993 117.032  0.00  0.00    -0.241 OA
ENDBRANCH   3  22
TORSDOF 7
ENDMDL
MODEL 9
REMARK VINA RESULT:      -4.8      3.431      5.666
REMARK  7 active torsions:
REMARK  status: ('A' for Active; 'I' for Inactive)
REMARK    1  A    between atoms: C_2  and  C_3 
REMARK    2  A    between atoms: C_3  and  O_6 
REMARK    3  A    between atoms: C_3  and  C_4 
REMARK    4  A    between atoms: C_7  and  O_6 
REMARK    5  A    between atoms: C_9  and  C_10 
REMARK    6  A    between atoms: N_15  and  C_14 
REMARK    7  A    between atoms: N_20  and  C_19 
REMARK       I    between atoms: C_22  and  N_20 
ROOT
ATOM      1  C   LIG d   1       3.234  88.659 115.418  0.00  0.00     0.161 C 
ATOM      2  C   LIG d   1       2.521  88.188 114.304  0.00  0.00     0.016 C 
ATOM      3  C   LIG d   1       3.068  88.121 113.001  0.00  0.00     0.038 C 
ATOM      4  C   LIG d   1       4.423  88.382 112.752  0.00  0.00     0.028 C 
ATOM      5  C   LIG d   1       5.049  89.345 113.755  0.00  0.00    -0.047 C 
ATOM      6  C   LIG d   1       4.749  88.843 115.186  0.00  0.00     0.091 C 
ENDROOT
BRANCH   1   7
ATOM      7  O   LIG d   1       3.002  87.795 116.548  0.00  0.00    -0.368 OA
BRANCH   7   8
ATOM      8  C   LIG d   1       2.547  86.454 116.242  0.00  0.00     0.119 C 
BRANCH   8   9
ATOM      9  C   LIG d   1       1.471  86.082 117.280  0.00  0.00     0.028 C 
ATOM     10  C   LIG d   1       0.345  87.127 117.358  0.00  0.00     0.006 C 
ENDBRANCH   8   9
BRANCH   8  11
ATOM     11  C   LIG d   1       3.668  85.428 116.435  0.00  0.00     0.028 C 
ATOM     12  C   LIG d   1       4.352  85.039 115.115  0.00  0.00     0.006 C 
ENDBRANCH   8  11
ENDBRANCH   7   8
ENDBRANCH   1   7
BRANCH   6  13
ATOM     13  N   LIG d   1       5.254  89.773 116.230  0.00  0.00    -0.311 N 
ATOM     14  C   LIG d   1       6.428  89.622 116.841  0.00  0.00     0.210 C 
ATOM     15  C   LIG d   1       6.747  90.681 117.900  0.00  0.00     0.109 C 
ATOM     16  O   LIG d   1       7.249  88.729 116.582  0.00  0.00    -0.276 OA
ATOM     17  H   LIG d   1       4.664  90.543 116.479  0.00  0.00     0.149 HD
ENDBRANCH   6  13
BRANCH   5  18
ATOM     18  N   LIG d   1       6.493  89.420 113.460  0.00  0.00     0.381 N 
ATOM     19  H   LIG d   1       6.701  88.875 112.648  0.00  0.00    -0.090 HD
ATOM     20  H   LIG d   1       7.003  89.037 114.237  0.00  0.00    -0.090 HD
ATOM     21  H   LIG d   1       6.762  90.367 113.312  0.00  0.00    -0.090 HD
ENDBRANCH   5  18
BRANCH   3  22
ATOM     22  C   LIG d   1       2.244  87.829 111.925  0.00  0.00     0.382 C 
ATOM     23  O   LIG d   1       2.633  87.032 111.037  0.00  0.00    -0.241 OA
ATOM     24  O   LIG d   1       1.137  88.386 111.807  0.00  0.00    -0.241 OA
ENDBRANCH   3  22
TORSDOF 7
ENDMDL
