MODEL 1
REMARK VINA RESULT:      -5.6      0.000      0.000
REMARK  7 active torsions:
REMARK  status: ('A' for Active; 'I' for Inactive)
REMARK    1  A    between atoms: C_2  and  C_3 
REMARK    2  A    between atoms: C_3  and  O_6 
REMARK    3  A    between atoms: C_3  and  C_4 
REMARK    4  A    between atoms: C_7  and  O_6 
REMARK    5  A    between atoms: C_9  and  C_10 
REMARK    6  A    between atoms: N_15  and  C_14 
REMARK    7  A    between atoms: N_20  and  C_19 
REMARK       I    between atoms: C_22  and  N_20 
ROOT
ATOM      1  C   LIG d   1       3.046  85.736 111.702  0.00  0.00     0.161 C 
ATOM      2  C   LIG d   1       1.863  85.444 111.002  0.00  0.00     0.016 C 
ATOM      3  C   LIG d   1       0.791  86.356 110.872  0.00  0.00     0.038 C 
ATOM      4  C   LIG d   1       0.891  87.686 111.306  0.00  0.00     0.028 C 
ATOM      5  C   LIG d   1       1.869  87.874 112.461  0.00  0.00    -0.047 C 
ATOM      6  C   LIG d   1       3.219  87.220 112.087  0.00  0.00     0.091 C 
ENDROOT
BRANCH   1   7
ATOM      7  O   LIG d   1       4.185  85.278 110.947  0.00  0.00    -0.368 OA
BRANCH   7   8
ATOM      8  C   LIG d   1       4.909  84.154 111.506  0.00  0.00     0.119 C 
BRANCH   8   9
ATOM      9  C   LIG d   1       4.897  83.028 110.454  0.00  0.00     0.028 C 
ATOM     10  C   LIG d   1       4.016  81.840 110.877  0.00  0.00     0.006 C 
ENDBRANCH   8   9
BRANCH   8  11
ATOM     11  C   LIG d   1       4.187  83.577 112.727  0.00  0.00     0.028 C 
ATOM     12  C   LIG d   1       4.963  83.794 114.035  0.00  0.00     0.006 C 
ENDBRANCH   8  11
ENDBRANCH   7   8
ENDBRANCH   1   7
BRANCH   6  13
ATOM     13  N   LIG d   1       4.207  87.285 113.196  0.00  0.00    -0.311 N 
ATOM     14  C   LIG d   1       5.089  88.272 113.335  0.00  0.00     0.210 C 
ATOM     15  C   LIG d   1       6.030  88.134 114.537  0.00  0.00     0.109 C 
ATOM     16  O   LIG d   1       5.162  89.266 112.596  0.00  0.00    -0.276 OA
ATOM     17  H   LIG d   1       4.197  86.535 113.859  0.00  0.00     0.149 HD
ENDBRANCH   6  13
BRANCH   5  18
ATOM     18  N   LIG d   1       1.980  89.321 112.721  0.00  0.00     0.381 N 
ATOM     19  H   LIG d   1       2.413  89.474 113.610  0.00  0.00    -0.090 HD
ATOM     20  H   LIG d   1       1.057  89.718 112.749  0.00  0.00    -0.090 HD
ATOM     21  H   LIG d   1       2.515  89.757 112.003  0.00  0.00    -0.090 HD
ENDBRANCH   5  18
BRANCH   3  22
ATOM     22  C   LIG d   1      -0.414  85.928 110.336  0.00  0.00     0.382 C 
ATOM     23  O   LIG d   1      -1.338  86.752 110.132  0.00  0.00    -0.241 OA
ATOM     24  O   LIG d   1      -0.605  84.721 110.095  0.00  0.00    -0.241 OA
ENDBRANCH   3  22
TORSDOF 7
ENDMDL
MODEL 2
REMARK VINA RESULT:      -5.5      4.709      6.785
REMARK  7 active torsions:
REMARK  status: ('A' for Active; 'I' for Inactive)
REMARK    1  A    between atoms: C_2  and  C_3 
REMARK    2  A    between atoms: C_3  and  O_6 
REMARK    3  A    between atoms: C_3  and  C_4 
REMARK    4  A    between atoms: C_7  and  O_6 
REMARK    5  A    between atoms: C_9  and  C_10 
REMARK    6  A    between atoms: N_15  and  C_14 
REMARK    7  A    between atoms: N_20  and  C_19 
REMARK       I    between atoms: C_22  and  N_20 
ROOT
ATOM      1  C   LIG d   1      -0.234  84.244 112.979  0.00  0.00     0.161 C 
ATOM      2  C   LIG d   1       0.595  85.137 112.281  0.00  0.00     0.016 C 
ATOM      3  C   LIG d   1       1.063  84.901 110.968  0.00  0.00     0.038 C 
ATOM      4  C   LIG d   1       0.606  83.818 110.202  0.00  0.00     0.028 C 
ATOM      5  C   LIG d   1       0.165  82.625 111.043  0.00  0.00    -0.047 C 
ATOM      6  C   LIG d   1      -0.833  83.111 112.119  0.00  0.00     0.091 C 
ENDROOT
BRANCH   1   7
ATOM      7  O   LIG d   1      -1.283  84.972 113.649  0.00  0.00    -0.368 OA
BRANCH   7   8
ATOM      8  C   LIG d   1      -1.222  84.991 115.096  0.00  0.00     0.119 C 
BRANCH   8   9
ATOM      9  C   LIG d   1       0.113  84.342 115.512  0.00  0.00     0.028 C 
ATOM     10  C   LIG d   1       1.057  85.337 116.208  0.00  0.00     0.006 C 
ENDBRANCH   8   9
BRANCH   8  11
ATOM     11  C   LIG d   1      -2.311  84.106 115.711  0.00  0.00     0.028 C 
ATOM     12  C   LIG d   1      -1.749  83.065 116.692  0.00  0.00     0.006 C 
ENDBRANCH   8  11
ENDBRANCH   7   8
ENDBRANCH   1   7
BRANCH   6  13
ATOM     13  N   LIG d   1      -1.250  82.021 113.039  0.00  0.00    -0.311 N 
ATOM     14  C   LIG d   1      -2.488  81.531 113.082  0.00  0.00     0.210 C 
ATOM     15  C   LIG d   1      -2.710  80.423 114.117  0.00  0.00     0.109 C 
ATOM     16  O   LIG d   1      -3.415  81.886 112.338  0.00  0.00    -0.276 OA
ATOM     17  H   LIG d   1      -0.552  81.652 113.656  0.00  0.00     0.149 HD
ENDBRANCH   6  13
BRANCH   5  18
ATOM     18  N   LIG d   1      -0.415  81.624 110.127  0.00  0.00     0.381 N 
ATOM     19  H   LIG d   1      -1.383  81.490 110.341  0.00  0.00    -0.090 HD
ATOM     20  H   LIG d   1       0.061  80.749 110.259  0.00  0.00    -0.090 HD
ATOM     21  H   LIG d   1      -0.314  81.927 109.184  0.00  0.00    -0.090 HD
ENDBRANCH   5  18
BRANCH   3  22
ATOM     22  C   LIG d   1       2.029  85.732 110.422  0.00  0.00     0.382 C 
ATOM     23  O   LIG d   1       1.734  86.908 110.099  0.00  0.00    -0.241 OA
ATOM     24  O   LIG d   1       3.180  85.308 110.208  0.00  0.00    -0.241 OA
ENDBRANCH   3  22
TORSDOF 7
ENDMDL
MODEL 3
REMARK VINA RESULT:      -5.3     25.179     28.627
REMARK  7 active torsions:
REMARK  status: ('A' for Active; 'I' for Inactive)
REMARK    1  A    between atoms: C_2  and  C_3 
REMARK    2  A    between atoms: C_3  and  O_6 
REMARK    3  A    between atoms: C_3  and  C_4 
REMARK    4  A    between atoms: C_7  and  O_6 
REMARK    5  A    between atoms: C_9  and  C_10 
REMARK    6  A    between atoms: N_15  and  C_14 
REMARK    7  A    between atoms: N_20  and  C_19 
REMARK       I    between atoms: C_22  and  N_20 
ROOT
ATOM      1  C   LIG d   1     -25.428  85.992 114.002  0.00  0.00     0.161 C 
ATOM      2  C   LIG d   1     -24.293  86.819 113.966  0.00  0.00     0.016 C 
ATOM      3  C   LIG d   1     -22.974  86.325 113.842  0.00  0.00     0.038 C 
ATOM      4  C   LIG d   1     -22.710  84.970 113.591  0.00  0.00     0.028 C 
ATOM      5  C   LIG d   1     -23.790  84.034 114.123  0.00  0.00    -0.047 C 
ATOM      6  C   LIG d   1     -25.168  84.520 113.619  0.00  0.00     0.091 C 
ENDROOT
BRANCH   1   7
ATOM      7  O   LIG d   1     -26.465  86.550 113.172  0.00  0.00    -0.368 OA
BRANCH   7   8
ATOM      8  C   LIG d   1     -26.117  86.780 111.784  0.00  0.00     0.119 C 
BRANCH   8   9
ATOM      9  C   LIG d   1     -26.540  88.220 111.434  0.00  0.00     0.028 C 
ATOM     10  C   LIG d   1     -27.847  88.634 112.130  0.00  0.00     0.006 C 
ENDBRANCH   8   9
BRANCH   8  11
ATOM     11  C   LIG d   1     -26.929  85.880 110.849  0.00  0.00     0.028 C 
ATOM     12  C   LIG d   1     -26.052  84.897 110.057  0.00  0.00     0.006 C 
ENDBRANCH   8  11
ENDBRANCH   7   8
ENDBRANCH   1   7
BRANCH   6  13
ATOM     13  N   LIG d   1     -26.289  83.709 114.162  0.00  0.00    -0.311 N 
ATOM     14  C   LIG d   1     -26.867  82.714 113.491  0.00  0.00     0.210 C 
ATOM     15  C   LIG d   1     -28.018  82.021 114.226  0.00  0.00     0.109 C 
ATOM     16  O   LIG d   1     -26.515  82.320 112.369  0.00  0.00    -0.276 OA
ATOM     17  H   LIG d   1     -26.617  83.941 115.079  0.00  0.00     0.149 HD
ENDBRANCH   6  13
BRANCH   5  18
ATOM     18  N   LIG d   1     -23.458  82.669 113.674  0.00  0.00     0.381 N 
ATOM     19  H   LIG d   1     -22.953  82.710 112.811  0.00  0.00    -0.090 HD
ATOM     20  H   LIG d   1     -24.311  82.162 113.517  0.00  0.00    -0.090 HD
ATOM     21  H   LIG d   1     -22.910  82.206 114.366  0.00  0.00    -0.090 HD
ENDBRANCH   5  18
BRANCH   3  22
ATOM     22  C   LIG d   1     -21.899  87.185 114.008  0.00  0.00     0.382 C 
ATOM     23  O   LIG d   1     -20.831  86.983 113.381  0.00  0.00    -0.241 OA
ATOM     24  O   LIG d   1     -21.969  88.135 114.810  0.00  0.00    -0.241 OA
ENDBRANCH   3  22
TORSDOF 7
ENDMDL
MODEL 4
REMARK VINA RESULT:      -5.2      3.126      5.931
REMARK  7 active torsions:
REMARK  status: ('A' for Active; 'I' for Inactive)
REMARK    1  A    between atoms: C_2  and  C_3 
REMARK    2  A    between atoms: C_3  and  O_6 
REMARK    3  A    between atoms: C_3  and  C_4 
REMARK    4  A    between atoms: C_7  and  O_6 
REMARK    5  A    between atoms: C_9  and  C_10 
REMARK    6  A    between atoms: N_15  and  C_14 
REMARK    7  A    between atoms: N_20  and  C_19 
REMARK       I    between atoms: C_22  and  N_20 
ROOT
ATOM      1  C   LIG d   1       2.653  86.116 113.911  0.00  0.00     0.161 C 
ATOM      2  C   LIG d   1       3.363  87.297 114.184  0.00  0.00     0.016 C 
ATOM      3  C   LIG d   1       3.278  88.459 113.383  0.00  0.00     0.038 C 
ATOM      4  C   LIG d   1       2.356  88.569 112.333  0.00  0.00     0.028 C 
ATOM      5  C   LIG d   1       1.983  87.228 111.710  0.00  0.00    -0.047 C 
ATOM      6  C   LIG d   1       1.557  86.255 112.834  0.00  0.00     0.091 C 
ENDROOT
BRANCH   1   7
ATOM      7  O   LIG d   1       2.093  85.589 115.130  0.00  0.00    -0.368 OA
BRANCH   7   8
ATOM      8  C   LIG d   1       0.792  86.102 115.508  0.00  0.00     0.119 C 
BRANCH   8   9
ATOM      9  C   LIG d   1       0.979  86.941 116.787  0.00  0.00     0.028 C 
ATOM     10  C   LIG d   1       0.664  88.430 116.563  0.00  0.00     0.006 C 
ENDBRANCH   8   9
BRANCH   8  11
ATOM     11  C   LIG d   1      -0.161  84.970 115.901  0.00  0.00     0.028 C 
ATOM     12  C   LIG d   1      -1.609  85.228 115.456  0.00  0.00     0.006 C 
ENDBRANCH   8  11
ENDBRANCH   7   8
ENDBRANCH   1   7
BRANCH   6  13
ATOM     13  N   LIG d   1       1.257  84.893 112.320  0.00  0.00    -0.311 N 
ATOM     14  C   LIG d   1       0.035  84.495 111.970  0.00  0.00     0.210 C 
ATOM     15  C   LIG d   1      -0.058  83.045 111.484  0.00  0.00     0.109 C 
ATOM     16  O   LIG d   1      -0.975  85.215 111.984  0.00  0.00    -0.276 OA
ATOM     17  H   LIG d   1       2.024  84.254 112.246  0.00  0.00     0.149 HD
ENDBRANCH   6  13
BRANCH   5  18
ATOM     18  N   LIG d   1       0.914  87.476 110.725  0.00  0.00     0.381 N 
ATOM     19  H   LIG d   1       0.697  86.628 110.240  0.00  0.00    -0.090 HD
ATOM     20  H   LIG d   1       1.240  88.148 110.053  0.00  0.00    -0.090 HD
ATOM     21  H   LIG d   1       0.100  87.822 111.184  0.00  0.00    -0.090 HD
ENDBRANCH   5  18
BRANCH   3  22
ATOM     22  C   LIG d   1       4.152  89.512 113.606  0.00  0.00     0.382 C 
ATOM     23  O   LIG d   1       3.948  90.306 114.556  0.00  0.00    -0.241 OA
ATOM     24  O   LIG d   1       5.117  89.705 112.842  0.00  0.00    -0.241 OA
ENDBRANCH   3  22
TORSDOF 7
ENDMDL
MODEL 5
REMARK VINA RESULT:      -5.2      6.156      7.649
REMARK  7 active torsions:
REMARK  status: ('A' for Active; 'I' for Inactive)
REMARK    1  A    between atoms: C_2  and  C_3 
REMARK    2  A    between atoms: C_3  and  O_6 
REMARK    3  A    between atoms: C_3  and  C_4 
REMARK    4  A    between atoms: C_7  and  O_6 
REMARK    5  A    between atoms: C_9  and  C_10 
REMARK    6  A    between atoms: N_15  and  C_14 
REMARK    7  A    between atoms: N_20  and  C_19 
REMARK       I    between atoms: C_22  and  N_20 
ROOT
ATOM      1  C   LIG d   1      -1.310  81.203 112.642  0.00  0.00     0.161 C 
ATOM      2  C   LIG d   1      -1.665  79.925 112.177  0.00  0.00     0.016 C 
ATOM      3  C   LIG d   1      -2.475  79.028 112.911  0.00  0.00     0.038 C 
ATOM      4  C   LIG d   1      -3.114  79.409 114.100  0.00  0.00     0.028 C 
ATOM      5  C   LIG d   1      -2.379  80.510 114.857  0.00  0.00    -0.047 C 
ATOM      6  C   LIG d   1      -2.089  81.678 113.886  0.00  0.00     0.091 C 
ENDROOT
BRANCH   1   7
ATOM      7  O   LIG d   1      -1.437  82.163 111.574  0.00  0.00    -0.368 OA
BRANCH   7   8
ATOM      8  C   LIG d   1      -0.221  82.481 110.854  0.00  0.00     0.119 C 
BRANCH   8   9
ATOM      9  C   LIG d   1       0.964  82.187 111.795  0.00  0.00     0.028 C 
ATOM     10  C   LIG d   1       2.105  81.439 111.085  0.00  0.00     0.006 C 
ENDBRANCH   8   9
BRANCH   8  11
ATOM     11  C   LIG d   1      -0.131  83.978 110.545  0.00  0.00     0.028 C 
ATOM     12  C   LIG d   1      -0.161  84.851 111.810  0.00  0.00     0.006 C 
ENDBRANCH   8  11
ENDBRANCH   7   8
ENDBRANCH   1   7
BRANCH   6  13
ATOM     13  N   LIG d   1      -1.298  82.762 114.525  0.00  0.00    -0.311 N 
ATOM     14  C   LIG d   1      -1.846  83.848 115.067  0.00  0.00     0.210 C 
ATOM     15  C   LIG d   1      -0.849  84.852 115.654  0.00  0.00     0.109 C 
ATOM     16  O   LIG d   1      -3.066  84.060 115.145  0.00  0.00    -0.276 OA
ATOM     17  H   LIG d   1      -0.302  82.656 114.533  0.00  0.00     0.149 HD
ENDBRANCH   6  13
BRANCH   5  18
ATOM     18  N   LIG d   1      -3.223  80.905 116.000  0.00  0.00     0.381 N 
ATOM     19  H   LIG d   1      -3.413  81.886 115.958  0.00  0.00    -0.090 HD
ATOM     20  H   LIG d   1      -2.725  80.716 116.852  0.00  0.00    -0.090 HD
ATOM     21  H   LIG d   1      -4.078  80.393 115.986  0.00  0.00    -0.090 HD
ENDBRANCH   5  18
BRANCH   3  22
ATOM     22  C   LIG d   1      -2.620  77.720 112.475  0.00  0.00     0.382 C 
ATOM     23  O   LIG d   1      -3.150  77.485 111.362  0.00  0.00    -0.241 OA
ATOM     24  O   LIG d   1      -2.269  76.770 113.199  0.00  0.00    -0.241 OA
ENDBRANCH   3  22
TORSDOF 7
ENDMDL
MODEL 6
REMARK VINA RESULT:      -5.1      2.033      2.712
REMARK  7 active torsions:
REMARK  status: ('A' for Active; 'I' for Inactive)
REMARK    1  A    between atoms: C_2  and  C_3 
REMARK    2  A    between atoms: C_3  and  O_6 
REMARK    3  A    between atoms: C_3  and  C_4 
REMARK    4  A    between atoms: C_7  and  O_6 
REMARK    5  A    between atoms: C_9  and  C_10 
REMARK    6  A    between atoms: N_15  and  C_14 
REMARK    7  A    between atoms: N_20  and  C_19 
REMARK       I    between atoms: C_22  and  N_20 
ROOT
ATOM      1  C   LIG d   1       2.477  84.662 113.311  0.00  0.00     0.161 C 
ATOM      2  C   LIG d   1       1.360  83.834 113.111  0.00  0.00     0.016 C 
ATOM      3  C   LIG d   1       0.339  84.117 112.176  0.00  0.00     0.038 C 
ATOM      4  C   LIG d   1       0.443  85.178 111.263  0.00  0.00     0.028 C 
ATOM      5  C   LIG d   1       1.307  86.328 111.768  0.00  0.00    -0.047 C 
ATOM      6  C   LIG d   1       2.664  85.764 112.247  0.00  0.00     0.091 C 
ENDROOT
BRANCH   1   7
ATOM      7  O   LIG d   1       3.669  83.858 113.413  0.00  0.00    -0.368 OA
BRANCH   7   8
ATOM      8  C   LIG d   1       3.855  82.859 112.380  0.00  0.00     0.119 C 
BRANCH   8   9
ATOM      9  C   LIG d   1       4.131  81.514 113.080  0.00  0.00     0.028 C 
ATOM     10  C   LIG d   1       4.445  81.685 114.576  0.00  0.00     0.006 C 
ENDBRANCH   8   9
BRANCH   8  11
ATOM     11  C   LIG d   1       5.107  83.147 111.546  0.00  0.00     0.028 C 
ATOM     12  C   LIG d   1       4.797  83.351 110.055  0.00  0.00     0.006 C 
ENDBRANCH   8  11
ENDBRANCH   7   8
ENDBRANCH   1   7
BRANCH   6  13
ATOM     13  N   LIG d   1       3.538  86.812 112.835  0.00  0.00    -0.311 N 
ATOM     14  C   LIG d   1       4.673  87.222 112.270  0.00  0.00     0.210 C 
ATOM     15  C   LIG d   1       5.433  88.298 113.051  0.00  0.00     0.109 C 
ATOM     16  O   LIG d   1       5.105  86.819 111.179  0.00  0.00    -0.276 OA
ATOM     17  H   LIG d   1       3.246  87.216 113.703  0.00  0.00     0.149 HD
ENDBRANCH   6  13
BRANCH   5  18
ATOM     18  N   LIG d   1       1.442  87.300 110.667  0.00  0.00     0.381 N 
ATOM     19  H   LIG d   1       2.403  87.556 110.556  0.00  0.00    -0.090 HD
ATOM     20  H   LIG d   1       0.920  88.128 110.897  0.00  0.00    -0.090 HD
ATOM     21  H   LIG d   1       1.096  86.906 109.819  0.00  0.00    -0.090 HD
ENDBRANCH   5  18
BRANCH   3  22
ATOM     22  C   LIG d   1      -0.822  83.358 112.174  0.00  0.00     0.382 C 
ATOM     23  O   LIG d   1      -1.099  82.640 111.184  0.00  0.00    -0.241 OA
ATOM     24  O   LIG d   1      -1.616  83.416 113.131  0.00  0.00    -0.241 OA
ENDBRANCH   3  22
TORSDOF 7
ENDMDL
MODEL 7
REMARK VINA RESULT:      -4.9      2.795      3.771
REMARK  7 active torsions:
REMARK  status: ('A' for Active; 'I' for Inactive)
REMARK    1  A    between atoms: C_2  and  C_3 
REMARK    2  A    between atoms: C_3  and  O_6 
REMARK    3  A    between atoms: C_3  and  C_4 
REMARK    4  A    between atoms: C_7  and  O_6 
REMARK    5  A    between atoms: C_9  and  C_10 
REMARK    6  A    between atoms: N_15  and  C_14 
REMARK    7  A    between atoms: N_20  and  C_19 
REMARK       I    between atoms: C_22  and  N_20 
ROOT
ATOM      1  C   LIG d   1       1.597  84.146 112.954  0.00  0.00     0.161 C 
ATOM      2  C   LIG d   1       1.165  82.846 112.646  0.00  0.00     0.016 C 
ATOM      3  C   LIG d   1       0.260  82.553 111.600  0.00  0.00     0.038 C 
ATOM      4  C   LIG d   1      -0.161  83.533 110.689  0.00  0.00     0.028 C 
ATOM      5  C   LIG d   1      -0.149  84.944 111.268  0.00  0.00    -0.047 C 
ATOM      6  C   LIG d   1       1.234  85.215 111.901  0.00  0.00     0.091 C 
ENDROOT
BRANCH   1   7
ATOM      7  O   LIG d   1       3.017  84.145 113.198  0.00  0.00    -0.368 OA
BRANCH   7   8
ATOM      8  C   LIG d   1       3.791  83.171 112.455  0.00  0.00     0.119 C 
BRANCH   8   9
ATOM      9  C   LIG d   1       4.654  82.395 113.469  0.00  0.00     0.028 C 
ATOM     10  C   LIG d   1       4.419  80.877 113.398  0.00  0.00     0.006 C 
ENDBRANCH   8   9
BRANCH   8  11
ATOM     11  C   LIG d   1       4.787  83.853 111.512  0.00  0.00     0.028 C 
ATOM     12  C   LIG d   1       4.297  83.893 110.056  0.00  0.00     0.006 C 
ENDBRANCH   8  11
ENDBRANCH   7   8
ENDBRANCH   1   7
BRANCH   6  13
ATOM     13  N   LIG d   1       1.304  86.542 112.565  0.00  0.00    -0.311 N 
ATOM     14  C   LIG d   1       1.741  87.644 111.957  0.00  0.00     0.210 C 
ATOM     15  C   LIG d   1       1.749  88.904 112.829  0.00  0.00     0.109 C 
ATOM     16  O   LIG d   1       2.091  87.704 110.769  0.00  0.00    -0.276 OA
ATOM     17  H   LIG d   1       1.009  86.591 113.521  0.00  0.00     0.149 HD
ENDBRANCH   6  13
BRANCH   5  18
ATOM     18  N   LIG d   1      -0.477  85.878 110.173  0.00  0.00     0.381 N 
ATOM     19  H   LIG d   1      -0.776  85.364 109.368  0.00  0.00    -0.090 HD
ATOM     20  H   LIG d   1       0.349  86.394 109.929  0.00  0.00    -0.090 HD
ATOM     21  H   LIG d   1      -1.196  86.504 110.463  0.00  0.00    -0.090 HD
ENDBRANCH   5  18
BRANCH   3  22
ATOM     22  C   LIG d   1      -0.265  81.275 111.482  0.00  0.00     0.382 C 
ATOM     23  O   LIG d   1      -0.527  80.807 110.348  0.00  0.00    -0.241 OA
ATOM     24  O   LIG d   1      -0.521  80.602 112.498  0.00  0.00    -0.241 OA
ENDBRANCH   3  22
TORSDOF 7
ENDMDL
MODEL 8
REMARK VINA RESULT:      -4.9      4.549      5.877
REMARK  7 active torsions:
REMARK  status: ('A' for Active; 'I' for Inactive)
REMARK    1  A    between atoms: C_2  and  C_3 
REMARK    2  A    between atoms: C_3  and  O_6 
REMARK    3  A    between atoms: C_3  and  C_4 
REMARK    4  A    between atoms: C_7  and  O_6 
REMARK    5  A    between atoms: C_9  and  C_10 
REMARK    6  A    between atoms: N_15  and  C_14 
REMARK    7  A    between atoms: N_20  and  C_19 
REMARK       I    between atoms: C_22  and  N_20 
ROOT
ATOM      1  C   LIG d   1      -0.576  83.653 112.877  0.00  0.00     0.161 C 
ATOM      2  C   LIG d   1      -1.211  82.534 112.314  0.00  0.00     0.016 C 
ATOM      3  C   LIG d   1      -1.965  81.606 113.068  0.00  0.00     0.038 C 
ATOM      4  C   LIG d   1      -2.264  81.819 114.422  0.00  0.00     0.028 C 
ATOM      5  C   LIG d   1      -1.224  82.669 115.144  0.00  0.00    -0.047 C 
ATOM      6  C   LIG d   1      -0.982  83.963 114.333  0.00  0.00     0.091 C 
ENDROOT
BRANCH   1   7
ATOM      7  O   LIG d   1      -0.789  84.808 112.041  0.00  0.00    -0.368 OA
BRANCH   7   8
ATOM      8  C   LIG d   1       0.034  84.895 110.852  0.00  0.00     0.119 C 
BRANCH   8   9
ATOM      9  C   LIG d   1       1.499  84.695 111.287  0.00  0.00     0.028 C 
ATOM     10  C   LIG d   1       2.266  83.748 110.349  0.00  0.00     0.006 C 
ENDBRANCH   8   9
BRANCH   8  11
ATOM     11  C   LIG d   1      -0.019  86.297 110.239  0.00  0.00     0.028 C 
ATOM     12  C   LIG d   1       1.035  87.246 110.830  0.00  0.00     0.006 C 
ENDBRANCH   8  11
ENDBRANCH   7   8
ENDBRANCH   1   7
BRANCH   6  13
ATOM     13  N   LIG d   1       0.083  84.813 114.926  0.00  0.00    -0.311 N 
ATOM     14  C   LIG d   1      -0.147  86.015 115.453  0.00  0.00     0.210 C 
ATOM     15  C   LIG d   1       1.094  86.732 115.992  0.00  0.00     0.109 C 
ATOM     16  O   LIG d   1      -1.265  86.541 115.553  0.00  0.00    -0.276 OA
ATOM     17  H   LIG d   1       1.016  84.450 114.915  0.00  0.00     0.149 HD
ENDBRANCH   6  13
BRANCH   5  18
ATOM     18  N   LIG d   1      -1.728  82.927 116.506  0.00  0.00     0.381 N 
ATOM     19  H   LIG d   1      -2.416  83.654 116.481  0.00  0.00    -0.090 HD
ATOM     20  H   LIG d   1      -0.965  83.235 117.083  0.00  0.00    -0.090 HD
ATOM     21  H   LIG d   1      -2.126  82.096 116.886  0.00  0.00    -0.090 HD
ENDBRANCH   5  18
BRANCH   3  22
ATOM     22  C   LIG d   1      -2.397  80.429 112.475  0.00  0.00     0.382 C 
ATOM     23  O   LIG d   1      -1.763  79.945 111.507  0.00  0.00    -0.241 OA
ATOM     24  O   LIG d   1      -3.438  79.868 112.869  0.00  0.00    -0.241 OA
ENDBRANCH   3  22
TORSDOF 7
ENDMDL
MODEL 9
REMARK VINA RESULT:      -4.8      3.373      5.133
REMARK  7 active torsions:
REMARK  status: ('A' for Active; 'I' for Inactive)
REMARK    1  A    between atoms: C_2  and  C_3 
REMARK    2  A    between atoms: C_3  and  O_6 
REMARK    3  A    between atoms: C_3  and  C_4 
REMARK    4  A    between atoms: C_7  and  O_6 
REMARK    5  A    between atoms: C_9  and  C_10 
REMARK    6  A    between atoms: N_15  and  C_14 
REMARK    7  A    between atoms: N_20  and  C_19 
REMARK       I    between atoms: C_22  and  N_20 
ROOT
ATOM      1  C   LIG d   1       1.740  86.166 113.334  0.00  0.00     0.161 C 
ATOM      2  C   LIG d   1       1.713  87.382 114.038  0.00  0.00     0.016 C 
ATOM      3  C   LIG d   1       0.945  87.587 115.207  0.00  0.00     0.038 C 
ATOM      4  C   LIG d   1       0.265  86.536 115.841  0.00  0.00     0.028 C 
ATOM      5  C   LIG d   1      -0.144  85.417 114.889  0.00  0.00    -0.047 C 
ATOM      6  C   LIG d   1       1.092  84.976 114.072  0.00  0.00     0.091 C 
ENDROOT
BRANCH   1   7
ATOM      7  O   LIG d   1       3.096  85.847 112.962  0.00  0.00    -0.368 OA
BRANCH   7   8
ATOM      8  C   LIG d   1       3.496  86.227 111.622  0.00  0.00     0.119 C 
BRANCH   8   9
ATOM      9  C   LIG d   1       3.486  84.952 110.757  0.00  0.00     0.028 C 
ATOM     10  C   LIG d   1       4.164  83.762 111.458  0.00  0.00     0.006 C 
ENDBRANCH   8   9
BRANCH   8  11
ATOM     11  C   LIG d   1       4.943  86.726 111.593  0.00  0.00     0.028 C 
ATOM     12  C   LIG d   1       5.225  87.798 112.658  0.00  0.00     0.006 C 
ENDBRANCH   8  11
ENDBRANCH   7   8
ENDBRANCH   1   7
BRANCH   6  13
ATOM     13  N   LIG d   1       0.762  83.943 113.057  0.00  0.00    -0.311 N 
ATOM     14  C   LIG d   1      -0.142  84.123 112.095  0.00  0.00     0.210 C 
ATOM     15  C   LIG d   1      -0.344  82.922 111.165  0.00  0.00     0.109 C 
ATOM     16  O   LIG d   1      -0.771  85.174 111.903  0.00  0.00    -0.276 OA
ATOM     17  H   LIG d   1       1.249  83.070 113.119  0.00  0.00     0.149 HD
ENDBRANCH   6  13
BRANCH   5  18
ATOM     18  N   LIG d   1      -0.719  84.329 115.701  0.00  0.00     0.381 N 
ATOM     19  H   LIG d   1      -1.405  84.699 116.328  0.00  0.00    -0.090 HD
ATOM     20  H   LIG d   1       0.013  83.909 116.247  0.00  0.00    -0.090 HD
ATOM     21  H   LIG d   1      -1.135  83.644 115.108  0.00  0.00    -0.090 HD
ENDBRANCH   5  18
BRANCH   3  22
ATOM     22  C   LIG d   1       0.820  88.864 115.732  0.00  0.00     0.382 C 
ATOM     23  O   LIG d   1      -0.200  89.549 115.477  0.00  0.00    -0.241 OA
ATOM     24  O   LIG d   1       1.734  89.357 116.420  0.00  0.00    -0.241 OA
ENDBRANCH   3  22
TORSDOF 7
ENDMDL
