MODEL 1
REMARK VINA RESULT:      -5.6      0.000      0.000
REMARK  7 active torsions:
REMARK  status: ('A' for Active; 'I' for Inactive)
REMARK    1  A    between atoms: C_2  and  C_3 
REMARK    2  A    between atoms: C_3  and  O_6 
REMARK    3  A    between atoms: C_3  and  C_4 
REMARK    4  A    between atoms: C_7  and  O_6 
REMARK    5  A    between atoms: C_9  and  C_10 
REMARK    6  A    between atoms: N_15  and  C_14 
REMARK    7  A    between atoms: N_20  and  C_19 
REMARK       I    between atoms: C_22  and  N_20 
ROOT
ATOM      1  C   LIG d   1      -2.820  75.878 114.927  0.00  0.00     0.161 C 
ATOM      2  C   LIG d   1      -3.162  76.652 113.805  0.00  0.00     0.016 C 
ATOM      3  C   LIG d   1      -2.206  77.255 112.955  0.00  0.00     0.038 C 
ATOM      4  C   LIG d   1      -0.833  76.998 113.083  0.00  0.00     0.028 C 
ATOM      5  C   LIG d   1      -0.415  76.631 114.504  0.00  0.00    -0.047 C 
ATOM      6  C   LIG d   1      -1.328  75.495 115.018  0.00  0.00     0.091 C 
ENDROOT
BRANCH   1   7
ATOM      7  O   LIG d   1      -3.644  74.697 114.975  0.00  0.00    -0.368 OA
BRANCH   7   8
ATOM      8  C   LIG d   1      -4.618  74.642 116.047  0.00  0.00     0.119 C 
BRANCH   8   9
ATOM      9  C   LIG d   1      -6.010  74.501 115.401  0.00  0.00     0.028 C 
ATOM     10  C   LIG d   1      -6.843  73.378 116.043  0.00  0.00     0.006 C 
ENDBRANCH   8   9
BRANCH   8  11
ATOM     11  C   LIG d   1      -4.664  75.960 116.825  0.00  0.00     0.028 C 
ATOM     12  C   LIG d   1      -4.018  75.854 118.216  0.00  0.00     0.006 C 
ENDBRANCH   8  11
ENDBRANCH   7   8
ENDBRANCH   1   7
BRANCH   6  13
ATOM     13  N   LIG d   1      -1.042  75.133 116.431  0.00  0.00    -0.311 N 
ATOM     14  C   LIG d   1      -0.503  73.971 116.795  0.00  0.00     0.210 C 
ATOM     15  C   LIG d   1      -0.310  73.793 118.304  0.00  0.00     0.109 C 
ATOM     16  O   LIG d   1      -0.136  73.084 116.010  0.00  0.00    -0.276 OA
ATOM     17  H   LIG d   1      -1.279  75.808 117.131  0.00  0.00     0.149 HD
ENDBRANCH   6  13
BRANCH   5  18
ATOM     18  N   LIG d   1       1.011  76.256 114.466  0.00  0.00     0.381 N 
ATOM     19  H   LIG d   1       1.255  75.769 115.305  0.00  0.00    -0.090 HD
ATOM     20  H   LIG d   1       1.566  77.091 114.413  0.00  0.00    -0.090 HD
ATOM     21  H   LIG d   1       1.190  75.678 113.674  0.00  0.00    -0.090 HD
ENDBRANCH   5  18
BRANCH   3  22
ATOM     22  C   LIG d   1      -2.620  78.158 111.988  0.00  0.00     0.382 C 
ATOM     23  O   LIG d   1      -3.015  79.300 112.325  0.00  0.00    -0.241 OA
ATOM     24  O   LIG d   1      -2.644  77.830 110.787  0.00  0.00    -0.241 OA
ENDBRANCH   3  22
TORSDOF 7
ENDMDL
MODEL 2
REMARK VINA RESULT:      -5.5      2.802      5.192
REMARK  7 active torsions:
REMARK  status: ('A' for Active; 'I' for Inactive)
REMARK    1  A    between atoms: C_2  and  C_3 
REMARK    2  A    between atoms: C_3  and  O_6 
REMARK    3  A    between atoms: C_3  and  C_4 
REMARK    4  A    between atoms: C_7  and  O_6 
REMARK    5  A    between atoms: C_9  and  C_10 
REMARK    6  A    between atoms: N_15  and  C_14 
REMARK    7  A    between atoms: N_20  and  C_19 
REMARK       I    between atoms: C_22  and  N_20 
ROOT
ATOM      1  C   LIG d   1      -0.451  76.044 113.443  0.00  0.00     0.161 C 
ATOM      2  C   LIG d   1       0.427  75.565 112.456  0.00  0.00     0.016 C 
ATOM      3  C   LIG d   1       1.124  74.340 112.563  0.00  0.00     0.038 C 
ATOM      4  C   LIG d   1       0.873  73.432 113.602  0.00  0.00     0.028 C 
ATOM      5  C   LIG d   1       0.371  74.097 114.879  0.00  0.00    -0.047 C 
ATOM      6  C   LIG d   1      -0.822  75.016 114.531  0.00  0.00     0.091 C 
ENDROOT
BRANCH   1   7
ATOM      7  O   LIG d   1      -1.641  76.570 112.824  0.00  0.00    -0.368 OA
BRANCH   7   8
ATOM      8  C   LIG d   1      -1.561  77.936 112.347  0.00  0.00     0.119 C 
BRANCH   8   9
ATOM      9  C   LIG d   1      -2.738  78.713 112.967  0.00  0.00     0.028 C 
ATOM     10  C   LIG d   1      -2.436  80.214 113.118  0.00  0.00     0.006 C 
ENDBRANCH   8   9
BRANCH   8  11
ATOM     11  C   LIG d   1      -1.778  78.011 110.832  0.00  0.00     0.028 C 
ATOM     12  C   LIG d   1      -0.596  78.656 110.092  0.00  0.00     0.006 C 
ENDBRANCH   8  11
ENDBRANCH   7   8
ENDBRANCH   1   7
BRANCH   6  13
ATOM     13  N   LIG d   1      -1.320  75.770 115.711  0.00  0.00    -0.311 N 
ATOM     14  C   LIG d   1      -2.245  75.299 116.546  0.00  0.00     0.210 C 
ATOM     15  C   LIG d   1      -2.630  76.246 117.686  0.00  0.00     0.109 C 
ATOM     16  O   LIG d   1      -2.760  74.173 116.469  0.00  0.00    -0.276 OA
ATOM     17  H   LIG d   1      -0.933  76.680 115.867  0.00  0.00     0.149 HD
ENDBRANCH   6  13
BRANCH   5  18
ATOM     18  N   LIG d   1       0.019  73.027 115.831  0.00  0.00     0.381 N 
ATOM     19  H   LIG d   1      -0.924  72.731 115.674  0.00  0.00    -0.090 HD
ATOM     20  H   LIG d   1       0.085  73.389 116.766  0.00  0.00    -0.090 HD
ATOM     21  H   LIG d   1       0.640  72.255 115.721  0.00  0.00    -0.090 HD
ENDBRANCH   5  18
BRANCH   3  22
ATOM     22  C   LIG d   1       2.114  74.030 111.643  0.00  0.00     0.382 C 
ATOM     23  O   LIG d   1       2.700  74.948 111.019  0.00  0.00    -0.241 OA
ATOM     24  O   LIG d   1       2.399  72.843 111.396  0.00  0.00    -0.241 OA
ENDBRANCH   3  22
TORSDOF 7
ENDMDL
MODEL 3
REMARK VINA RESULT:      -5.4      8.808     11.430
REMARK  7 active torsions:
REMARK  status: ('A' for Active; 'I' for Inactive)
REMARK    1  A    between atoms: C_2  and  C_3 
REMARK    2  A    between atoms: C_3  and  O_6 
REMARK    3  A    between atoms: C_3  and  C_4 
REMARK    4  A    between atoms: C_7  and  O_6 
REMARK    5  A    between atoms: C_9  and  C_10 
REMARK    6  A    between atoms: N_15  and  C_14 
REMARK    7  A    between atoms: N_20  and  C_19 
REMARK       I    between atoms: C_22  and  N_20 
ROOT
ATOM      1  C   LIG d   1       2.255  84.622 113.172  0.00  0.00     0.161 C 
ATOM      2  C   LIG d   1       1.456  83.518 112.832  0.00  0.00     0.016 C 
ATOM      3  C   LIG d   1       0.638  83.474 111.679  0.00  0.00     0.038 C 
ATOM      4  C   LIG d   1       0.680  84.480 110.702  0.00  0.00     0.028 C 
ATOM      5  C   LIG d   1       1.091  85.842 111.252  0.00  0.00    -0.047 C 
ATOM      6  C   LIG d   1       2.398  85.683 112.061  0.00  0.00     0.091 C 
ENDROOT
BRANCH   1   7
ATOM      7  O   LIG d   1       3.553  84.171 113.605  0.00  0.00    -0.368 OA
BRANCH   7   8
ATOM      8  C   LIG d   1       3.936  82.837 113.189  0.00  0.00     0.119 C 
BRANCH   8   9
ATOM      9  C   LIG d   1       4.708  82.192 114.357  0.00  0.00     0.028 C 
ATOM     10  C   LIG d   1       4.296  82.769 115.722  0.00  0.00     0.006 C 
ENDBRANCH   8   9
BRANCH   8  11
ATOM     11  C   LIG d   1       4.927  82.880 112.023  0.00  0.00     0.028 C 
ATOM     12  C   LIG d   1       4.375  82.224 110.747  0.00  0.00     0.006 C 
ENDBRANCH   8  11
ENDBRANCH   7   8
ENDBRANCH   1   7
BRANCH   6  13
ATOM     13  N   LIG d   1       2.825  86.953 112.704  0.00  0.00    -0.311 N 
ATOM     14  C   LIG d   1       3.990  87.547 112.452  0.00  0.00     0.210 C 
ATOM     15  C   LIG d   1       4.241  88.838 113.238  0.00  0.00     0.109 C 
ATOM     16  O   LIG d   1       4.826  87.144 111.630  0.00  0.00    -0.276 OA
ATOM     17  H   LIG d   1       2.193  87.366 113.362  0.00  0.00     0.149 HD
ENDBRANCH   6  13
BRANCH   5  18
ATOM     18  N   LIG d   1       1.227  86.762 110.107  0.00  0.00     0.381 N 
ATOM     19  H   LIG d   1       2.196  86.932 109.923  0.00  0.00    -0.090 HD
ATOM     20  H   LIG d   1       0.791  87.636 110.339  0.00  0.00    -0.090 HD
ATOM     21  H   LIG d   1       0.793  86.369 109.300  0.00  0.00    -0.090 HD
ENDBRANCH   5  18
BRANCH   3  22
ATOM     22  C   LIG d   1      -0.263  82.434 111.515  0.00  0.00     0.382 C 
ATOM     23  O   LIG d   1      -1.348  82.439 112.145  0.00  0.00    -0.241 OA
ATOM     24  O   LIG d   1       0.014  81.467 110.780  0.00  0.00    -0.241 OA
ENDBRANCH   3  22
TORSDOF 7
ENDMDL
MODEL 4
REMARK VINA RESULT:      -5.4     14.805     17.368
REMARK  7 active torsions:
REMARK  status: ('A' for Active; 'I' for Inactive)
REMARK    1  A    between atoms: C_2  and  C_3 
REMARK    2  A    between atoms: C_3  and  O_6 
REMARK    3  A    between atoms: C_3  and  C_4 
REMARK    4  A    between atoms: C_7  and  O_6 
REMARK    5  A    between atoms: C_9  and  C_10 
REMARK    6  A    between atoms: N_15  and  C_14 
REMARK    7  A    between atoms: N_20  and  C_19 
REMARK       I    between atoms: C_22  and  N_20 
ROOT
ATOM      1  C   LIG d   1     -16.205  65.232 114.110  0.00  0.00     0.161 C 
ATOM      2  C   LIG d   1     -15.854  66.132 113.091  0.00  0.00     0.016 C 
ATOM      3  C   LIG d   1     -15.147  67.335 113.324  0.00  0.00     0.038 C 
ATOM      4  C   LIG d   1     -14.608  67.646 114.581  0.00  0.00     0.028 C 
ATOM      5  C   LIG d   1     -15.371  67.013 115.741  0.00  0.00    -0.047 C 
ATOM      6  C   LIG d   1     -15.529  65.499 115.471  0.00  0.00     0.091 C 
ENDROOT
BRANCH   1   7
ATOM      7  O   LIG d   1     -15.946  63.881 113.679  0.00  0.00    -0.368 OA
BRANCH   7   8
ATOM      8  C   LIG d   1     -17.111  63.051 113.446  0.00  0.00     0.119 C 
BRANCH   8   9
ATOM      9  C   LIG d   1     -18.356  63.943 113.618  0.00  0.00     0.028 C 
ATOM     10  C   LIG d   1     -19.144  64.109 112.308  0.00  0.00     0.006 C 
ENDBRANCH   8   9
BRANCH   8  11
ATOM     11  C   LIG d   1     -17.241  61.962 114.515  0.00  0.00     0.028 C 
ATOM     12  C   LIG d   1     -18.601  61.989 115.230  0.00  0.00     0.006 C 
ENDBRANCH   8  11
ENDBRANCH   7   8
ENDBRANCH   1   7
BRANCH   6  13
ATOM     13  N   LIG d   1     -16.337  64.818 116.516  0.00  0.00    -0.311 N 
ATOM     14  C   LIG d   1     -15.865  63.839 117.285  0.00  0.00     0.210 C 
ATOM     15  C   LIG d   1     -16.871  63.261 118.286  0.00  0.00     0.109 C 
ATOM     16  O   LIG d   1     -14.700  63.416 117.256  0.00  0.00    -0.276 OA
ATOM     17  H   LIG d   1     -17.285  65.121 116.629  0.00  0.00     0.149 HD
ENDBRANCH   6  13
BRANCH   5  18
ATOM     18  N   LIG d   1     -14.623  67.305 116.978  0.00  0.00     0.381 N 
ATOM     19  H   LIG d   1     -15.198  67.114 117.774  0.00  0.00    -0.090 HD
ATOM     20  H   LIG d   1     -14.382  68.280 116.990  0.00  0.00    -0.090 HD
ATOM     21  H   LIG d   1     -13.796  66.750 117.016  0.00  0.00    -0.090 HD
ENDBRANCH   5  18
BRANCH   3  22
ATOM     22  C   LIG d   1     -15.008  68.260 112.301  0.00  0.00     0.382 C 
ATOM     23  O   LIG d   1     -14.853  69.475 112.571  0.00  0.00    -0.241 OA
ATOM     24  O   LIG d   1     -15.081  67.901 111.110  0.00  0.00    -0.241 OA
ENDBRANCH   3  22
TORSDOF 7
ENDMDL
MODEL 5
REMARK VINA RESULT:      -5.3      8.456     10.905
REMARK  7 active torsions:
REMARK  status: ('A' for Active; 'I' for Inactive)
REMARK    1  A    between atoms: C_2  and  C_3 
REMARK    2  A    between atoms: C_3  and  O_6 
REMARK    3  A    between atoms: C_3  and  C_4 
REMARK    4  A    between atoms: C_7  and  O_6 
REMARK    5  A    between atoms: C_9  and  C_10 
REMARK    6  A    between atoms: N_15  and  C_14 
REMARK    7  A    between atoms: N_20  and  C_19 
REMARK       I    between atoms: C_22  and  N_20 
ROOT
ATOM      1  C   LIG d   1       2.038  84.593 113.273  0.00  0.00     0.161 C 
ATOM      2  C   LIG d   1       2.531  85.908 113.262  0.00  0.00     0.016 C 
ATOM      3  C   LIG d   1       2.152  86.874 112.301  0.00  0.00     0.038 C 
ATOM      4  C   LIG d   1       1.132  86.632 111.370  0.00  0.00     0.028 C 
ATOM      5  C   LIG d   1       0.966  85.156 111.023  0.00  0.00    -0.047 C 
ATOM      6  C   LIG d   1       0.841  84.344 112.332  0.00  0.00     0.091 C 
ENDROOT
BRANCH   1   7
ATOM      7  O   LIG d   1       1.705  84.207 114.621  0.00  0.00    -0.368 OA
BRANCH   7   8
ATOM      8  C   LIG d   1       2.806  84.164 115.562  0.00  0.00     0.119 C 
BRANCH   8   9
ATOM      9  C   LIG d   1       3.146  82.681 115.807  0.00  0.00     0.028 C 
ATOM     10  C   LIG d   1       4.629  82.368 115.543  0.00  0.00     0.006 C 
ENDBRANCH   8   9
BRANCH   8  11
ATOM     11  C   LIG d   1       2.392  84.716 116.929  0.00  0.00     0.028 C 
ATOM     12  C   LIG d   1       1.408  85.892 116.824  0.00  0.00     0.006 C 
ENDBRANCH   8  11
ENDBRANCH   7   8
ENDBRANCH   1   7
BRANCH   6  13
ATOM     13  N   LIG d   1       0.760  82.880 112.085  0.00  0.00    -0.311 N 
ATOM     14  C   LIG d   1      -0.390  82.214 111.999  0.00  0.00     0.210 C 
ATOM     15  C   LIG d   1      -0.249  80.707 111.761  0.00  0.00     0.109 C 
ATOM     16  O   LIG d   1      -1.515  82.733 112.065  0.00  0.00    -0.276 OA
ATOM     17  H   LIG d   1       1.625  82.385 111.988  0.00  0.00     0.149 HD
ENDBRANCH   6  13
BRANCH   5  18
ATOM     18  N   LIG d   1      -0.218  85.033 110.151  0.00  0.00     0.381 N 
ATOM     19  H   LIG d   1       0.056  84.677 109.257  0.00  0.00    -0.090 HD
ATOM     20  H   LIG d   1      -0.619  85.945 110.018  0.00  0.00    -0.090 HD
ATOM     21  H   LIG d   1      -0.887  84.425 110.568  0.00  0.00    -0.090 HD
ENDBRANCH   5  18
BRANCH   3  22
ATOM     22  C   LIG d   1       2.825  88.085 112.241  0.00  0.00     0.382 C 
ATOM     23  O   LIG d   1       4.061  88.105 112.024  0.00  0.00    -0.241 OA
ATOM     24  O   LIG d   1       2.220  89.154 112.445  0.00  0.00    -0.241 OA
ENDBRANCH   3  22
TORSDOF 7
ENDMDL
MODEL 6
REMARK VINA RESULT:      -5.3      8.182     11.229
REMARK  7 active torsions:
REMARK  status: ('A' for Active; 'I' for Inactive)
REMARK    1  A    between atoms: C_2  and  C_3 
REMARK    2  A    between atoms: C_3  and  O_6 
REMARK    3  A    between atoms: C_3  and  C_4 
REMARK    4  A    between atoms: C_7  and  O_6 
REMARK    5  A    between atoms: C_9  and  C_10 
REMARK    6  A    between atoms: N_15  and  C_14 
REMARK    7  A    between atoms: N_20  and  C_19 
REMARK       I    between atoms: C_22  and  N_20 
ROOT
ATOM      1  C   LIG d   1       2.101  84.144 111.450  0.00  0.00     0.161 C 
ATOM      2  C   LIG d   1       1.307  82.995 111.598  0.00  0.00     0.016 C 
ATOM      3  C   LIG d   1      -0.103  83.005 111.493  0.00  0.00     0.038 C 
ATOM      4  C   LIG d   1      -0.808  84.145 111.080  0.00  0.00     0.028 C 
ATOM      5  C   LIG d   1      -0.094  85.452 111.411  0.00  0.00    -0.047 C 
ATOM      6  C   LIG d   1       1.359  85.375 110.889  0.00  0.00     0.091 C 
ENDROOT
BRANCH   1   7
ATOM      7  O   LIG d   1       3.253  83.840 110.638  0.00  0.00    -0.368 OA
BRANCH   7   8
ATOM      8  C   LIG d   1       4.520  83.756 111.335  0.00  0.00     0.119 C 
BRANCH   8   9
ATOM      9  C   LIG d   1       4.990  82.290 111.268  0.00  0.00     0.028 C 
ATOM     10  C   LIG d   1       4.410  81.543 110.055  0.00  0.00     0.006 C 
ENDBRANCH   8   9
BRANCH   8  11
ATOM     11  C   LIG d   1       4.357  84.062 112.827  0.00  0.00     0.028 C 
ATOM     12  C   LIG d   1       4.454  82.806 113.707  0.00  0.00     0.006 C 
ENDBRANCH   8  11
ENDBRANCH   7   8
ENDBRANCH   1   7
BRANCH   6  13
ATOM     13  N   LIG d   1       2.154  86.579 111.246  0.00  0.00    -0.311 N 
ATOM     14  C   LIG d   1       2.292  87.024 112.493  0.00  0.00     0.210 C 
ATOM     15  C   LIG d   1       3.136  88.294 112.638  0.00  0.00     0.109 C 
ATOM     16  O   LIG d   1       1.821  86.469 113.498  0.00  0.00    -0.276 OA
ATOM     17  H   LIG d   1       2.596  87.073 110.495  0.00  0.00     0.149 HD
ENDBRANCH   6  13
BRANCH   5  18
ATOM     18  N   LIG d   1      -0.869  86.550 110.804  0.00  0.00     0.381 N 
ATOM     19  H   LIG d   1      -0.250  87.187 110.343  0.00  0.00    -0.090 HD
ATOM     20  H   LIG d   1      -1.350  87.049 111.531  0.00  0.00    -0.090 HD
ATOM     21  H   LIG d   1      -1.526  86.183 110.152  0.00  0.00    -0.090 HD
ENDBRANCH   5  18
BRANCH   3  22
ATOM     22  C   LIG d   1      -0.827  81.875 111.842  0.00  0.00     0.382 C 
ATOM     23  O   LIG d   1      -0.375  80.735 111.577  0.00  0.00    -0.241 OA
ATOM     24  O   LIG d   1      -1.946  81.981 112.379  0.00  0.00    -0.241 OA
ENDBRANCH   3  22
TORSDOF 7
ENDMDL
MODEL 7
REMARK VINA RESULT:      -5.0      2.694      5.927
REMARK  7 active torsions:
REMARK  status: ('A' for Active; 'I' for Inactive)
REMARK    1  A    between atoms: C_2  and  C_3 
REMARK    2  A    between atoms: C_3  and  O_6 
REMARK    3  A    between atoms: C_3  and  C_4 
REMARK    4  A    between atoms: C_7  and  O_6 
REMARK    5  A    between atoms: C_9  and  C_10 
REMARK    6  A    between atoms: N_15  and  C_14 
REMARK    7  A    between atoms: N_20  and  C_19 
REMARK       I    between atoms: C_22  and  N_20 
ROOT
ATOM      1  C   LIG d   1      -3.035  77.385 115.585  0.00  0.00     0.161 C 
ATOM      2  C   LIG d   1      -1.958  76.528 115.301  0.00  0.00     0.016 C 
ATOM      3  C   LIG d   1      -2.016  75.125 115.463  0.00  0.00     0.038 C 
ATOM      4  C   LIG d   1      -3.213  74.464 115.777  0.00  0.00     0.028 C 
ATOM      5  C   LIG d   1      -4.194  75.328 116.562  0.00  0.00    -0.047 C 
ATOM      6  C   LIG d   1      -4.382  76.672 115.822  0.00  0.00     0.091 C 
ENDROOT
BRANCH   1   7
ATOM      7  O   LIG d   1      -3.165  78.368 114.539  0.00  0.00    -0.368 OA
BRANCH   7   8
ATOM      8  C   LIG d   1      -2.347  78.159 113.362  0.00  0.00     0.119 C 
BRANCH   8   9
ATOM      9  C   LIG d   1      -1.691  79.508 113.009  0.00  0.00     0.028 C 
ATOM     10  C   LIG d   1      -2.692  80.675 113.048  0.00  0.00     0.006 C 
ENDBRANCH   8   9
BRANCH   8  11
ATOM     11  C   LIG d   1      -3.203  77.793 112.146  0.00  0.00     0.028 C 
ATOM     12  C   LIG d   1      -2.376  77.638 110.860  0.00  0.00     0.006 C 
ENDBRANCH   8  11
ENDBRANCH   7   8
ENDBRANCH   1   7
BRANCH   6  13
ATOM     13  N   LIG d   1      -5.263  77.610 116.567  0.00  0.00    -0.311 N 
ATOM     14  C   LIG d   1      -6.588  77.630 116.437  0.00  0.00     0.210 C 
ATOM     15  C   LIG d   1      -7.304  78.690 117.281  0.00  0.00     0.109 C 
ATOM     16  O   LIG d   1      -7.242  76.850 115.729  0.00  0.00    -0.276 OA
ATOM     17  H   LIG d   1      -4.818  78.257 117.188  0.00  0.00     0.149 HD
ENDBRANCH   6  13
BRANCH   5  18
ATOM     18  N   LIG d   1      -5.448  74.564 116.702  0.00  0.00     0.381 N 
ATOM     19  H   LIG d   1      -5.263  73.688 117.148  0.00  0.00    -0.090 HD
ATOM     20  H   LIG d   1      -5.820  74.379 115.787  0.00  0.00    -0.090 HD
ATOM     21  H   LIG d   1      -6.107  75.085 117.237  0.00  0.00    -0.090 HD
ENDBRANCH   5  18
BRANCH   3  22
ATOM     22  C   LIG d   1      -0.858  74.371 115.348  0.00  0.00     0.382 C 
ATOM     23  O   LIG d   1      -0.145  74.470 114.321  0.00  0.00    -0.241 OA
ATOM     24  O   LIG d   1      -0.540  73.561 116.240  0.00  0.00    -0.241 OA
ENDBRANCH   3  22
TORSDOF 7
ENDMDL
MODEL 8
REMARK VINA RESULT:      -4.9      9.542     11.748
REMARK  7 active torsions:
REMARK  status: ('A' for Active; 'I' for Inactive)
REMARK    1  A    between atoms: C_2  and  C_3 
REMARK    2  A    between atoms: C_3  and  O_6 
REMARK    3  A    between atoms: C_3  and  C_4 
REMARK    4  A    between atoms: C_7  and  O_6 
REMARK    5  A    between atoms: C_9  and  C_10 
REMARK    6  A    between atoms: N_15  and  C_14 
REMARK    7  A    between atoms: N_20  and  C_19 
REMARK       I    between atoms: C_22  and  N_20 
ROOT
ATOM      1  C   LIG d   1       2.264  85.465 113.733  0.00  0.00     0.161 C 
ATOM      2  C   LIG d   1       2.299  86.739 113.143  0.00  0.00     0.016 C 
ATOM      3  C   LIG d   1       3.269  87.717 113.461  0.00  0.00     0.038 C 
ATOM      4  C   LIG d   1       4.367  87.432 114.286  0.00  0.00     0.028 C 
ATOM      5  C   LIG d   1       4.093  86.324 115.297  0.00  0.00    -0.047 C 
ATOM      6  C   LIG d   1       3.519  85.097 114.553  0.00  0.00     0.091 C 
ENDROOT
BRANCH   1   7
ATOM      7  O   LIG d   1       2.014  84.466 112.725  0.00  0.00    -0.368 OA
BRANCH   7   8
ATOM      8  C   LIG d   1       3.114  84.174 111.829  0.00  0.00     0.119 C 
BRANCH   8   9
ATOM      9  C   LIG d   1       2.597  84.346 110.388  0.00  0.00     0.028 C 
ATOM     10  C   LIG d   1       1.445  83.382 110.059  0.00  0.00     0.006 C 
ENDBRANCH   8   9
BRANCH   8  11
ATOM     11  C   LIG d   1       3.544  82.707 111.933  0.00  0.00     0.028 C 
ATOM     12  C   LIG d   1       5.049  82.509 111.694  0.00  0.00     0.006 C 
ENDBRANCH   8  11
ENDBRANCH   7   8
ENDBRANCH   1   7
BRANCH   6  13
ATOM     13  N   LIG d   1       3.144  83.996 115.479  0.00  0.00    -0.311 N 
ATOM     14  C   LIG d   1       3.947  82.972 115.763  0.00  0.00     0.210 C 
ATOM     15  C   LIG d   1       3.358  81.937 116.726  0.00  0.00     0.109 C 
ATOM     16  O   LIG d   1       5.104  82.840 115.335  0.00  0.00    -0.276 OA
ATOM     17  H   LIG d   1       2.235  84.040 115.896  0.00  0.00     0.149 HD
ENDBRANCH   6  13
BRANCH   5  18
ATOM     18  N   LIG d   1       5.360  86.035 115.996  0.00  0.00     0.381 N 
ATOM     19  H   LIG d   1       5.302  86.346 116.945  0.00  0.00    -0.090 HD
ATOM     20  H   LIG d   1       6.103  86.539 115.544  0.00  0.00    -0.090 HD
ATOM     21  H   LIG d   1       5.549  85.057 115.969  0.00  0.00    -0.090 HD
ENDBRANCH   5  18
BRANCH   3  22
ATOM     22  C   LIG d   1       3.123  89.011 112.982  0.00  0.00     0.382 C 
ATOM     23  O   LIG d   1       2.072  89.342 112.382  0.00  0.00    -0.241 OA
ATOM     24  O   LIG d   1       4.047  89.837 113.104  0.00  0.00    -0.241 OA
ENDBRANCH   3  22
TORSDOF 7
ENDMDL
MODEL 9
REMARK VINA RESULT:      -4.8     10.308     12.727
REMARK  7 active torsions:
REMARK  status: ('A' for Active; 'I' for Inactive)
REMARK    1  A    between atoms: C_2  and  C_3 
REMARK    2  A    between atoms: C_3  and  O_6 
REMARK    3  A    between atoms: C_3  and  C_4 
REMARK    4  A    between atoms: C_7  and  O_6 
REMARK    5  A    between atoms: C_9  and  C_10 
REMARK    6  A    between atoms: N_15  and  C_14 
REMARK    7  A    between atoms: N_20  and  C_19 
REMARK       I    between atoms: C_22  and  N_20 
ROOT
ATOM      1  C   LIG d   1       2.245  85.485 113.807  0.00  0.00     0.161 C 
ATOM      2  C   LIG d   1       3.209  85.060 114.737  0.00  0.00     0.016 C 
ATOM      3  C   LIG d   1       4.095  83.984 114.502  0.00  0.00     0.038 C 
ATOM      4  C   LIG d   1       4.180  83.353 113.252  0.00  0.00     0.028 C 
ATOM      5  C   LIG d   1       2.882  83.414 112.453  0.00  0.00    -0.047 C 
ATOM      6  C   LIG d   1       2.397  84.880 112.396  0.00  0.00     0.091 C 
ENDROOT
BRANCH   1   7
ATOM      7  O   LIG d   1       2.235  86.925 113.737  0.00  0.00    -0.368 OA
BRANCH   7   8
ATOM      8  C   LIG d   1       3.462  87.590 114.126  0.00  0.00     0.119 C 
BRANCH   8   9
ATOM      9  C   LIG d   1       3.073  88.824 114.965  0.00  0.00     0.028 C 
ATOM     10  C   LIG d   1       3.103  88.539 116.476  0.00  0.00     0.006 C 
ENDBRANCH   8   9
BRANCH   8  11
ATOM     11  C   LIG d   1       4.205  88.146 112.908  0.00  0.00     0.028 C 
ATOM     12  C   LIG d   1       5.121  89.330 113.258  0.00  0.00     0.006 C 
ENDBRANCH   8  11
ENDBRANCH   7   8
ENDBRANCH   1   7
BRANCH   6  13
ATOM     13  N   LIG d   1       1.089  85.018 111.704  0.00  0.00    -0.311 N 
ATOM     14  C   LIG d   1       0.878  85.862 110.696  0.00  0.00     0.210 C 
ATOM     15  C   LIG d   1      -0.549  85.860 110.138  0.00  0.00     0.109 C 
ATOM     16  O   LIG d   1       1.745  86.589 110.189  0.00  0.00    -0.276 OA
ATOM     17  H   LIG d   1       0.337  84.443 112.031  0.00  0.00     0.149 HD
ENDBRANCH   6  13
BRANCH   5  18
ATOM     18  N   LIG d   1       3.152  82.841 111.121  0.00  0.00     0.381 N 
ATOM     19  H   LIG d   1       3.996  82.305 111.147  0.00  0.00    -0.090 HD
ATOM     20  H   LIG d   1       3.274  83.591 110.463  0.00  0.00    -0.090 HD
ATOM     21  H   LIG d   1       2.391  82.263 110.838  0.00  0.00    -0.090 HD
ENDBRANCH   5  18
BRANCH   3  22
ATOM     22  C   LIG d   1       4.882  83.503 115.537  0.00  0.00     0.382 C 
ATOM     23  O   LIG d   1       4.504  82.510 116.203  0.00  0.00    -0.241 OA
ATOM     24  O   LIG d   1       5.945  84.078 115.842  0.00  0.00    -0.241 OA
ENDBRANCH   3  22
TORSDOF 7
ENDMDL
