MODEL 1
REMARK VINA RESULT:      -5.9      0.000      0.000
REMARK  7 active torsions:
REMARK  status: ('A' for Active; 'I' for Inactive)
REMARK    1  A    between atoms: C_2  and  C_3 
REMARK    2  A    between atoms: C_3  and  O_6 
REMARK    3  A    between atoms: C_3  and  C_4 
REMARK    4  A    between atoms: C_7  and  O_6 
REMARK    5  A    between atoms: C_9  and  C_10 
REMARK    6  A    between atoms: N_15  and  C_14 
REMARK    7  A    between atoms: N_20  and  C_19 
REMARK       I    between atoms: C_22  and  N_20 
ROOT
ATOM      1  C   LIG d   1       2.733  84.709 112.056  0.00  0.00     0.161 C 
ATOM      2  C   LIG d   1       1.526  84.274 111.483  0.00  0.00     0.016 C 
ATOM      3  C   LIG d   1       0.506  85.155 111.056  0.00  0.00     0.038 C 
ATOM      4  C   LIG d   1       0.688  86.546 111.036  0.00  0.00     0.028 C 
ATOM      5  C   LIG d   1       1.690  87.041 112.073  0.00  0.00    -0.047 C 
ATOM      6  C   LIG d   1       2.996  86.225 111.939  0.00  0.00     0.091 C 
ENDROOT
BRANCH   1   7
ATOM      7  O   LIG d   1       3.834  83.965 111.498  0.00  0.00    -0.368 OA
BRANCH   7   8
ATOM      8  C   LIG d   1       3.922  82.571 111.882  0.00  0.00     0.119 C 
BRANCH   8   9
ATOM      9  C   LIG d   1       5.210  82.398 112.710  0.00  0.00     0.028 C 
ATOM     10  C   LIG d   1       4.927  81.907 114.140  0.00  0.00     0.006 C 
ENDBRANCH   8   9
BRANCH   8  11
ATOM     11  C   LIG d   1       4.102  81.666 110.660  0.00  0.00     0.028 C 
ATOM     12  C   LIG d   1       5.542  81.668 110.124  0.00  0.00     0.006 C 
ENDBRANCH   8  11
ENDBRANCH   7   8
ENDBRANCH   1   7
BRANCH   6  13
ATOM     13  N   LIG d   1       4.000  86.588 112.973  0.00  0.00    -0.311 N 
ATOM     14  C   LIG d   1       4.875  87.582 112.827  0.00  0.00     0.210 C 
ATOM     15  C   LIG d   1       5.836  87.775 114.005  0.00  0.00     0.109 C 
ATOM     16  O   LIG d   1       4.926  88.342 111.849  0.00  0.00    -0.276 OA
ATOM     17  H   LIG d   1       4.009  86.042 113.812  0.00  0.00     0.149 HD
ENDBRANCH   6  13
BRANCH   5  18
ATOM     18  N   LIG d   1       1.886  88.486 111.849  0.00  0.00     0.381 N 
ATOM     19  H   LIG d   1       2.863  88.701 111.863  0.00  0.00    -0.090 HD
ATOM     20  H   LIG d   1       1.441  88.994 112.593  0.00  0.00    -0.090 HD
ATOM     21  H   LIG d   1       1.492  88.752 110.973  0.00  0.00    -0.090 HD
ENDBRANCH   5  18
BRANCH   3  22
ATOM     22  C   LIG d   1      -0.729  84.647 110.682  0.00  0.00     0.382 C 
ATOM     23  O   LIG d   1      -1.580  85.398 110.148  0.00  0.00    -0.241 OA
ATOM     24  O   LIG d   1      -1.018  83.457 110.911  0.00  0.00    -0.241 OA
ENDBRANCH   3  22
TORSDOF 7
ENDMDL
MODEL 2
REMARK VINA RESULT:      -5.7      3.334      5.360
REMARK  7 active torsions:
REMARK  status: ('A' for Active; 'I' for Inactive)
REMARK    1  A    between atoms: C_2  and  C_3 
REMARK    2  A    between atoms: C_3  and  O_6 
REMARK    3  A    between atoms: C_3  and  C_4 
REMARK    4  A    between atoms: C_7  and  O_6 
REMARK    5  A    between atoms: C_9  and  C_10 
REMARK    6  A    between atoms: N_15  and  C_14 
REMARK    7  A    between atoms: N_20  and  C_19 
REMARK       I    between atoms: C_22  and  N_20 
ROOT
ATOM      1  C   LIG d   1       1.442  82.710 110.206  0.00  0.00     0.161 C 
ATOM      2  C   LIG d   1       1.679  84.093 110.281  0.00  0.00     0.016 C 
ATOM      3  C   LIG d   1       0.922  84.970 111.091  0.00  0.00     0.038 C 
ATOM      4  C   LIG d   1      -0.034  84.497 112.003  0.00  0.00     0.028 C 
ATOM      5  C   LIG d   1      -0.655  83.165 111.595  0.00  0.00    -0.047 C 
ATOM      6  C   LIG d   1       0.477  82.161 111.277  0.00  0.00     0.091 C 
ENDROOT
BRANCH   1   7
ATOM      7  O   LIG d   1       2.693  81.997 110.246  0.00  0.00    -0.368 OA
BRANCH   7   8
ATOM      8  C   LIG d   1       3.780  82.654 110.944  0.00  0.00     0.119 C 
BRANCH   8   9
ATOM      9  C   LIG d   1       5.074  82.371 110.157  0.00  0.00     0.028 C 
ATOM     10  C   LIG d   1       5.382  80.867 110.055  0.00  0.00     0.006 C 
ENDBRANCH   8   9
BRANCH   8  11
ATOM     11  C   LIG d   1       4.005  82.040 112.329  0.00  0.00     0.028 C 
ATOM     12  C   LIG d   1       3.817  83.055 113.468  0.00  0.00     0.006 C 
ENDBRANCH   8  11
ENDBRANCH   7   8
ENDBRANCH   1   7
BRANCH   6  13
ATOM     13  N   LIG d   1      -0.044  80.857 110.788  0.00  0.00    -0.311 N 
ATOM     14  C   LIG d   1      -0.387  79.855 111.595  0.00  0.00     0.210 C 
ATOM     15  C   LIG d   1      -0.881  78.592 110.884  0.00  0.00     0.109 C 
ATOM     16  O   LIG d   1      -0.359  79.904 112.834  0.00  0.00    -0.276 OA
ATOM     17  H   LIG d   1      -0.128  80.743 109.797  0.00  0.00     0.149 HD
ENDBRANCH   6  13
BRANCH   5  18
ATOM     18  N   LIG d   1      -1.528  82.723 112.698  0.00  0.00     0.381 N 
ATOM     19  H   LIG d   1      -1.019  82.118 113.311  0.00  0.00    -0.090 HD
ATOM     20  H   LIG d   1      -2.300  82.207 112.315  0.00  0.00    -0.090 HD
ATOM     21  H   LIG d   1      -1.865  83.513 113.203  0.00  0.00    -0.090 HD
ENDBRANCH   5  18
BRANCH   3  22
ATOM     22  C   LIG d   1       1.090  86.340 110.965  0.00  0.00     0.382 C 
ATOM     23  O   LIG d   1       0.204  87.122 111.388  0.00  0.00    -0.241 OA
ATOM     24  O   LIG d   1       2.095  86.803 110.393  0.00  0.00    -0.241 OA
ENDBRANCH   3  22
TORSDOF 7
ENDMDL
MODEL 3
REMARK VINA RESULT:      -5.7      2.261      4.494
REMARK  7 active torsions:
REMARK  status: ('A' for Active; 'I' for Inactive)
REMARK    1  A    between atoms: C_2  and  C_3 
REMARK    2  A    between atoms: C_3  and  O_6 
REMARK    3  A    between atoms: C_3  and  C_4 
REMARK    4  A    between atoms: C_7  and  O_6 
REMARK    5  A    between atoms: C_9  and  C_10 
REMARK    6  A    between atoms: N_15  and  C_14 
REMARK    7  A    between atoms: N_20  and  C_19 
REMARK       I    between atoms: C_22  and  N_20 
ROOT
ATOM      1  C   LIG d   1       2.566  85.149 110.613  0.00  0.00     0.161 C 
ATOM      2  C   LIG d   1       1.343  85.790 110.875  0.00  0.00     0.016 C 
ATOM      3  C   LIG d   1       0.210  85.122 111.392  0.00  0.00     0.038 C 
ATOM      4  C   LIG d   1       0.269  83.790 111.828  0.00  0.00     0.028 C 
ATOM      5  C   LIG d   1       1.336  82.966 111.114  0.00  0.00    -0.047 C 
ATOM      6  C   LIG d   1       2.683  83.721 111.185  0.00  0.00     0.091 C 
ENDROOT
BRANCH   1   7
ATOM      7  O   LIG d   1       3.656  85.967 111.080  0.00  0.00    -0.368 OA
BRANCH   7   8
ATOM      8  C   LIG d   1       3.470  86.602 112.369  0.00  0.00     0.119 C 
BRANCH   8   9
ATOM      9  C   LIG d   1       4.293  87.905 112.366  0.00  0.00     0.028 C 
ATOM     10  C   LIG d   1       5.347  87.935 113.486  0.00  0.00     0.006 C 
ENDBRANCH   8   9
BRANCH   8  11
ATOM     11  C   LIG d   1       4.059  85.753 113.499  0.00  0.00     0.028 C 
ATOM     12  C   LIG d   1       2.998  85.288 114.510  0.00  0.00     0.006 C 
ENDBRANCH   8  11
ENDBRANCH   7   8
ENDBRANCH   1   7
BRANCH   6  13
ATOM     13  N   LIG d   1       3.763  83.024 110.439  0.00  0.00    -0.311 N 
ATOM     14  C   LIG d   1       4.594  82.147 111.000  0.00  0.00     0.210 C 
ATOM     15  C   LIG d   1       5.648  81.560 110.056  0.00  0.00     0.109 C 
ATOM     16  O   LIG d   1       4.538  81.776 112.182  0.00  0.00    -0.276 OA
ATOM     17  H   LIG d   1       3.860  83.243 109.467  0.00  0.00     0.149 HD
ENDBRANCH   6  13
BRANCH   5  18
ATOM     18  N   LIG d   1       1.381  81.640 111.760  0.00  0.00     0.381 N 
ATOM     19  H   LIG d   1       0.477  81.407 112.119  0.00  0.00    -0.090 HD
ATOM     20  H   LIG d   1       2.026  81.675 112.529  0.00  0.00    -0.090 HD
ATOM     21  H   LIG d   1       1.673  80.951 111.103  0.00  0.00    -0.090 HD
ENDBRANCH   5  18
BRANCH   3  22
ATOM     22  C   LIG d   1      -1.011  85.777 111.441  0.00  0.00     0.382 C 
ATOM     23  O   LIG d   1      -1.638  85.855 112.525  0.00  0.00    -0.241 OA
ATOM     24  O   LIG d   1      -1.515  86.253 110.406  0.00  0.00    -0.241 OA
ENDBRANCH   3  22
TORSDOF 7
ENDMDL
MODEL 4
REMARK VINA RESULT:      -5.4      1.799      5.011
REMARK  7 active torsions:
REMARK  status: ('A' for Active; 'I' for Inactive)
REMARK    1  A    between atoms: C_2  and  C_3 
REMARK    2  A    between atoms: C_3  and  O_6 
REMARK    3  A    between atoms: C_3  and  C_4 
REMARK    4  A    between atoms: C_7  and  O_6 
REMARK    5  A    between atoms: C_9  and  C_10 
REMARK    6  A    between atoms: N_15  and  C_14 
REMARK    7  A    between atoms: N_20  and  C_19 
REMARK       I    between atoms: C_22  and  N_20 
ROOT
ATOM      1  C   LIG d   1       3.750  85.352 112.716  0.00  0.00     0.161 C 
ATOM      2  C   LIG d   1       4.413  86.536 113.078  0.00  0.00     0.016 C 
ATOM      3  C   LIG d   1       3.936  87.827 112.752  0.00  0.00     0.038 C 
ATOM      4  C   LIG d   1       2.676  88.026 112.168  0.00  0.00     0.028 C 
ATOM      5  C   LIG d   1       2.202  86.842 111.332  0.00  0.00    -0.047 C 
ATOM      6  C   LIG d   1       2.318  85.553 112.177  0.00  0.00     0.091 C 
ENDROOT
BRANCH   1   7
ATOM      7  O   LIG d   1       3.742  84.436 113.829  0.00  0.00    -0.368 OA
BRANCH   7   8
ATOM      8  C   LIG d   1       4.879  83.543 113.927  0.00  0.00     0.119 C 
BRANCH   8   9
ATOM      9  C   LIG d   1       4.522  82.255 113.161  0.00  0.00     0.028 C 
ATOM     10  C   LIG d   1       5.372  82.072 111.892  0.00  0.00     0.006 C 
ENDBRANCH   8   9
BRANCH   8  11
ATOM     11  C   LIG d   1       5.117  83.102 115.374  0.00  0.00     0.028 C 
ATOM     12  C   LIG d   1       5.203  84.285 116.352  0.00  0.00     0.006 C 
ENDBRANCH   8  11
ENDBRANCH   7   8
ENDBRANCH   1   7
BRANCH   6  13
ATOM     13  N   LIG d   1       1.953  84.335 111.406  0.00  0.00    -0.311 N 
ATOM     14  C   LIG d   1       0.728  83.814 111.395  0.00  0.00     0.210 C 
ATOM     15  C   LIG d   1       0.572  82.545 110.551  0.00  0.00     0.109 C 
ATOM     16  O   LIG d   1      -0.252  84.299 111.980  0.00  0.00    -0.276 OA
ATOM     17  H   LIG d   1       2.681  83.895 110.878  0.00  0.00     0.149 HD
ENDBRANCH   6  13
BRANCH   5  18
ATOM     18  N   LIG d   1       0.822  87.127 110.898  0.00  0.00     0.381 N 
ATOM     19  H   LIG d   1       0.673  86.763 109.978  0.00  0.00    -0.090 HD
ATOM     20  H   LIG d   1       0.689  88.123 110.868  0.00  0.00    -0.090 HD
ATOM     21  H   LIG d   1       0.173  86.718 111.534  0.00  0.00    -0.090 HD
ENDBRANCH   5  18
BRANCH   3  22
ATOM     22  C   LIG d   1       4.742  88.933 112.974  0.00  0.00     0.382 C 
ATOM     23  O   LIG d   1       5.901  88.971 112.497  0.00  0.00    -0.241 OA
ATOM     24  O   LIG d   1       4.339  89.876 113.682  0.00  0.00    -0.241 OA
ENDBRANCH   3  22
TORSDOF 7
ENDMDL
MODEL 5
REMARK VINA RESULT:      -5.4      1.023      1.680
REMARK  7 active torsions:
REMARK  status: ('A' for Active; 'I' for Inactive)
REMARK    1  A    between atoms: C_2  and  C_3 
REMARK    2  A    between atoms: C_3  and  O_6 
REMARK    3  A    between atoms: C_3  and  C_4 
REMARK    4  A    between atoms: C_7  and  O_6 
REMARK    5  A    between atoms: C_9  and  C_10 
REMARK    6  A    between atoms: N_15  and  C_14 
REMARK    7  A    between atoms: N_20  and  C_19 
REMARK       I    between atoms: C_22  and  N_20 
ROOT
ATOM      1  C   LIG d   1       2.125  84.673 113.056  0.00  0.00     0.161 C 
ATOM      2  C   LIG d   1       1.017  84.288 112.283  0.00  0.00     0.016 C 
ATOM      3  C   LIG d   1       0.339  85.163 111.404  0.00  0.00     0.038 C 
ATOM      4  C   LIG d   1       0.821  86.450 111.122  0.00  0.00     0.028 C 
ATOM      5  C   LIG d   1       1.642  87.052 112.257  0.00  0.00    -0.047 C 
ATOM      6  C   LIG d   1       2.732  86.041 112.678  0.00  0.00     0.091 C 
ENDROOT
BRANCH   1   7
ATOM      7  O   LIG d   1       3.135  83.646 113.008  0.00  0.00    -0.368 OA
BRANCH   7   8
ATOM      8  C   LIG d   1       3.216  82.889 111.775  0.00  0.00     0.119 C 
BRANCH   8   9
ATOM      9  C   LIG d   1       2.675  81.475 112.064  0.00  0.00     0.028 C 
ATOM     10  C   LIG d   1       1.907  80.886 110.869  0.00  0.00     0.006 C 
ENDBRANCH   8   9
BRANCH   8  11
ATOM     11  C   LIG d   1       4.670  82.686 111.341  0.00  0.00     0.028 C 
ATOM     12  C   LIG d   1       5.521  81.987 112.414  0.00  0.00     0.006 C 
ENDBRANCH   8  11
ENDBRANCH   7   8
ENDBRANCH   1   7
BRANCH   6  13
ATOM     13  N   LIG d   1       3.528  86.516 113.840  0.00  0.00    -0.311 N 
ATOM     14  C   LIG d   1       4.649  87.224 113.720  0.00  0.00     0.210 C 
ATOM     15  C   LIG d   1       5.324  87.596 115.045  0.00  0.00     0.109 C 
ATOM     16  O   LIG d   1       5.133  87.607 112.644  0.00  0.00    -0.276 OA
ATOM     17  H   LIG d   1       3.191  86.277 114.752  0.00  0.00     0.149 HD
ENDBRANCH   6  13
BRANCH   5  18
ATOM     18  N   LIG d   1       2.195  88.332 111.777  0.00  0.00     0.381 N 
ATOM     19  H   LIG d   1       1.790  89.090 112.289  0.00  0.00    -0.090 HD
ATOM     20  H   LIG d   1       1.958  88.445 110.807  0.00  0.00    -0.090 HD
ATOM     21  H   LIG d   1       3.185  88.339 111.887  0.00  0.00    -0.090 HD
ENDBRANCH   5  18
BRANCH   3  22
ATOM     22  C   LIG d   1      -0.857  84.766 110.826  0.00  0.00     0.382 C 
ATOM     23  O   LIG d   1      -1.224  83.569 110.903  0.00  0.00    -0.241 OA
ATOM     24  O   LIG d   1      -1.552  85.581 110.189  0.00  0.00    -0.241 OA
ENDBRANCH   3  22
TORSDOF 7
ENDMDL
MODEL 6
REMARK VINA RESULT:      -5.3      2.244      3.120
REMARK  7 active torsions:
REMARK  status: ('A' for Active; 'I' for Inactive)
REMARK    1  A    between atoms: C_2  and  C_3 
REMARK    2  A    between atoms: C_3  and  O_6 
REMARK    3  A    between atoms: C_3  and  C_4 
REMARK    4  A    between atoms: C_7  and  O_6 
REMARK    5  A    between atoms: C_9  and  C_10 
REMARK    6  A    between atoms: N_15  and  C_14 
REMARK    7  A    between atoms: N_20  and  C_19 
REMARK       I    between atoms: C_22  and  N_20 
ROOT
ATOM      1  C   LIG d   1       1.342  83.664 113.200  0.00  0.00     0.161 C 
ATOM      2  C   LIG d   1       0.446  82.585 113.129  0.00  0.00     0.016 C 
ATOM      3  C   LIG d   1      -0.704  82.581 112.306  0.00  0.00     0.038 C 
ATOM      4  C   LIG d   1      -0.954  83.602 111.377  0.00  0.00     0.028 C 
ATOM      5  C   LIG d   1      -0.349  84.944 111.775  0.00  0.00    -0.047 C 
ATOM      6  C   LIG d   1       1.146  84.741 112.112  0.00  0.00     0.091 C 
ENDROOT
BRANCH   1   7
ATOM      7  O   LIG d   1       2.698  83.176 113.182  0.00  0.00    -0.368 OA
BRANCH   7   8
ATOM      8  C   LIG d   1       3.275  82.946 111.873  0.00  0.00     0.119 C 
BRANCH   8   9
ATOM      9  C   LIG d   1       2.932  81.502 111.462  0.00  0.00     0.028 C 
ATOM     10  C   LIG d   1       2.284  81.426 110.069  0.00  0.00     0.006 C 
ENDBRANCH   8   9
BRANCH   8  11
ATOM     11  C   LIG d   1       4.805  83.002 111.921  0.00  0.00     0.028 C 
ATOM     12  C   LIG d   1       5.417  81.854 112.739  0.00  0.00     0.006 C 
ENDBRANCH   8  11
ENDBRANCH   7   8
ENDBRANCH   1   7
BRANCH   6  13
ATOM     13  N   LIG d   1       1.793  85.989 112.592  0.00  0.00    -0.311 N 
ATOM     14  C   LIG d   1       2.352  86.884 111.779  0.00  0.00     0.210 C 
ATOM     15  C   LIG d   1       2.983  88.091 112.482  0.00  0.00     0.109 C 
ATOM     16  O   LIG d   1       2.358  86.809 110.541  0.00  0.00    -0.276 OA
ATOM     17  H   LIG d   1       1.806  86.145 113.581  0.00  0.00     0.149 HD
ENDBRANCH   6  13
BRANCH   5  18
ATOM     18  N   LIG d   1      -0.568  85.880 110.656  0.00  0.00     0.381 N 
ATOM     19  H   LIG d   1      -1.439  85.676 110.209  0.00  0.00    -0.090 HD
ATOM     20  H   LIG d   1       0.168  85.760 109.983  0.00  0.00    -0.090 HD
ATOM     21  H   LIG d   1      -0.571  86.818 110.992  0.00  0.00    -0.090 HD
ENDBRANCH   5  18
BRANCH   3  22
ATOM     22  C   LIG d   1      -1.638  81.565 112.436  0.00  0.00     0.382 C 
ATOM     23  O   LIG d   1      -1.327  80.385 112.141  0.00  0.00    -0.241 OA
ATOM     24  O   LIG d   1      -2.801  81.819 112.802  0.00  0.00    -0.241 OA
ENDBRANCH   3  22
TORSDOF 7
ENDMDL
MODEL 7
REMARK VINA RESULT:      -5.2      2.065      2.675
REMARK  7 active torsions:
REMARK  status: ('A' for Active; 'I' for Inactive)
REMARK    1  A    between atoms: C_2  and  C_3 
REMARK    2  A    between atoms: C_3  and  O_6 
REMARK    3  A    between atoms: C_3  and  C_4 
REMARK    4  A    between atoms: C_7  and  O_6 
REMARK    5  A    between atoms: C_9  and  C_10 
REMARK    6  A    between atoms: N_15  and  C_14 
REMARK    7  A    between atoms: N_20  and  C_19 
REMARK       I    between atoms: C_22  and  N_20 
ROOT
ATOM      1  C   LIG d   1       1.716  83.988 112.963  0.00  0.00     0.161 C 
ATOM      2  C   LIG d   1       0.847  82.888 112.876  0.00  0.00     0.016 C 
ATOM      3  C   LIG d   1      -0.392  82.927 112.196  0.00  0.00     0.038 C 
ATOM      4  C   LIG d   1      -0.779  84.032 111.424  0.00  0.00     0.028 C 
ATOM      5  C   LIG d   1      -0.168  85.346 111.897  0.00  0.00    -0.047 C 
ATOM      6  C   LIG d   1       1.362  85.167 112.033  0.00  0.00     0.091 C 
ENDROOT
BRANCH   1   7
ATOM      7  O   LIG d   1       3.073  83.559 112.733  0.00  0.00    -0.368 OA
BRANCH   7   8
ATOM      8  C   LIG d   1       3.818  83.147 113.905  0.00  0.00     0.119 C 
BRANCH   8   9
ATOM      9  C   LIG d   1       4.692  84.339 114.341  0.00  0.00     0.028 C 
ATOM     10  C   LIG d   1       5.102  84.257 115.820  0.00  0.00     0.006 C 
ENDBRANCH   8   9
BRANCH   8  11
ATOM     11  C   LIG d   1       4.803  82.023 113.573  0.00  0.00     0.028 C 
ATOM     12  C   LIG d   1       5.450  82.187 112.188  0.00  0.00     0.006 C 
ENDBRANCH   8  11
ENDBRANCH   7   8
ENDBRANCH   1   7
BRANCH   6  13
ATOM     13  N   LIG d   1       2.028  86.381 112.573  0.00  0.00    -0.311 N 
ATOM     14  C   LIG d   1       3.130  86.909 112.042  0.00  0.00     0.210 C 
ATOM     15  C   LIG d   1       3.665  88.149 112.765  0.00  0.00     0.109 C 
ATOM     16  O   LIG d   1       3.696  86.487 111.023  0.00  0.00    -0.276 OA
ATOM     17  H   LIG d   1       1.617  86.806 113.380  0.00  0.00     0.149 HD
ENDBRANCH   6  13
BRANCH   5  18
ATOM     18  N   LIG d   1      -0.544  86.389 110.924  0.00  0.00     0.381 N 
ATOM     19  H   LIG d   1      -1.171  86.007 110.244  0.00  0.00    -0.090 HD
ATOM     20  H   LIG d   1       0.284  86.703 110.448  0.00  0.00    -0.090 HD
ATOM     21  H   LIG d   1      -0.976  87.153 111.393  0.00  0.00    -0.090 HD
ENDBRANCH   5  18
BRANCH   3  22
ATOM     22  C   LIG d   1      -1.276  81.866 112.318  0.00  0.00     0.382 C 
ATOM     23  O   LIG d   1      -0.915  80.708 111.996  0.00  0.00    -0.241 OA
ATOM     24  O   LIG d   1      -2.445  82.059 112.704  0.00  0.00    -0.241 OA
ENDBRANCH   3  22
TORSDOF 7
ENDMDL
MODEL 8
REMARK VINA RESULT:      -5.0      2.526      5.408
REMARK  7 active torsions:
REMARK  status: ('A' for Active; 'I' for Inactive)
REMARK    1  A    between atoms: C_2  and  C_3 
REMARK    2  A    between atoms: C_3  and  O_6 
REMARK    3  A    between atoms: C_3  and  C_4 
REMARK    4  A    between atoms: C_7  and  O_6 
REMARK    5  A    between atoms: C_9  and  C_10 
REMARK    6  A    between atoms: N_15  and  C_14 
REMARK    7  A    between atoms: N_20  and  C_19 
REMARK       I    between atoms: C_22  and  N_20 
ROOT
ATOM      1  C   LIG d   1       3.453  85.348 113.007  0.00  0.00     0.161 C 
ATOM      2  C   LIG d   1       4.205  86.508 113.255  0.00  0.00     0.016 C 
ATOM      3  C   LIG d   1       3.847  87.786 112.767  0.00  0.00     0.038 C 
ATOM      4  C   LIG d   1       2.624  88.017 112.120  0.00  0.00     0.028 C 
ATOM      5  C   LIG d   1       2.074  86.786 111.407  0.00  0.00    -0.047 C 
ATOM      6  C   LIG d   1       2.058  85.599 112.397  0.00  0.00     0.091 C 
ENDROOT
BRANCH   1   7
ATOM      7  O   LIG d   1       3.339  84.572 114.216  0.00  0.00    -0.368 OA
BRANCH   7   8
ATOM      8  C   LIG d   1       2.143  84.791 115.004  0.00  0.00     0.119 C 
BRANCH   8   9
ATOM      9  C   LIG d   1       2.565  85.522 116.293  0.00  0.00     0.028 C 
ATOM     10  C   LIG d   1       2.102  86.989 116.314  0.00  0.00     0.006 C 
ENDBRANCH   8   9
BRANCH   8  11
ATOM     11  C   LIG d   1       1.532  83.467 115.470  0.00  0.00     0.028 C 
ATOM     12  C   LIG d   1       2.510  82.619 116.299  0.00  0.00     0.006 C 
ENDBRANCH   8  11
ENDBRANCH   7   8
ENDBRANCH   1   7
BRANCH   6  13
ATOM     13  N   LIG d   1       1.613  84.333 111.757  0.00  0.00    -0.311 N 
ATOM     14  C   LIG d   1       0.355  83.897 111.793  0.00  0.00     0.210 C 
ATOM     15  C   LIG d   1       0.114  82.559 111.087  0.00  0.00     0.109 C 
ATOM     16  O   LIG d   1      -0.591  84.507 112.315  0.00  0.00    -0.276 OA
ATOM     17  H   LIG d   1       2.309  83.791 111.285  0.00  0.00     0.149 HD
ENDBRANCH   6  13
BRANCH   5  18
ATOM     18  N   LIG d   1       0.734  87.129 110.894  0.00  0.00     0.381 N 
ATOM     19  H   LIG d   1       0.627  86.778 109.964  0.00  0.00    -0.090 HD
ATOM     20  H   LIG d   1       0.644  88.130 110.866  0.00  0.00    -0.090 HD
ATOM     21  H   LIG d   1       0.033  86.742 111.486  0.00  0.00    -0.090 HD
ENDBRANCH   5  18
BRANCH   3  22
ATOM     22  C   LIG d   1       4.737  88.842 112.890  0.00  0.00     0.382 C 
ATOM     23  O   LIG d   1       4.375  89.906 113.449  0.00  0.00    -0.241 OA
ATOM     24  O   LIG d   1       5.883  88.762 112.410  0.00  0.00    -0.241 OA
ENDBRANCH   3  22
TORSDOF 7
ENDMDL
MODEL 9
REMARK VINA RESULT:      -4.8      2.592      5.791
REMARK  7 active torsions:
REMARK  status: ('A' for Active; 'I' for Inactive)
REMARK    1  A    between atoms: C_2  and  C_3 
REMARK    2  A    between atoms: C_3  and  O_6 
REMARK    3  A    between atoms: C_3  and  C_4 
REMARK    4  A    between atoms: C_7  and  O_6 
REMARK    5  A    between atoms: C_9  and  C_10 
REMARK    6  A    between atoms: N_15  and  C_14 
REMARK    7  A    between atoms: N_20  and  C_19 
REMARK       I    between atoms: C_22  and  N_20 
ROOT
ATOM      1  C   LIG d   1       2.362  85.359 113.926  0.00  0.00     0.161 C 
ATOM      2  C   LIG d   1       3.472  84.690 114.469  0.00  0.00     0.016 C 
ATOM      3  C   LIG d   1       4.224  83.728 113.758  0.00  0.00     0.038 C 
ATOM      4  C   LIG d   1       4.009  83.476 112.395  0.00  0.00     0.028 C 
ATOM      5  C   LIG d   1       2.579  83.758 111.946  0.00  0.00    -0.047 C 
ATOM      6  C   LIG d   1       2.180  85.179 112.404  0.00  0.00     0.091 C 
ENDROOT
BRANCH   1   7
ATOM      7  O   LIG d   1       2.423  86.759 114.262  0.00  0.00    -0.368 OA
BRANCH   7   8
ATOM      8  C   LIG d   1       3.749  87.331 114.372  0.00  0.00     0.119 C 
BRANCH   8   9
ATOM      9  C   LIG d   1       3.762  88.233 115.622  0.00  0.00     0.028 C 
ATOM     10  C   LIG d   1       2.556  89.187 115.668  0.00  0.00     0.006 C 
ENDBRANCH   8   9
BRANCH   8  11
ATOM     11  C   LIG d   1       4.054  88.263 113.196  0.00  0.00     0.028 C 
ATOM     12  C   LIG d   1       5.557  88.365 112.890  0.00  0.00     0.006 C 
ENDBRANCH   8  11
ENDBRANCH   7   8
ENDBRANCH   1   7
BRANCH   6  13
ATOM     13  N   LIG d   1       0.766  85.504 112.079  0.00  0.00    -0.311 N 
ATOM     14  C   LIG d   1       0.396  86.131 110.964  0.00  0.00     0.210 C 
ATOM     15  C   LIG d   1      -1.109  86.386 110.835  0.00  0.00     0.109 C 
ATOM     16  O   LIG d   1       1.167  86.472 110.055  0.00  0.00    -0.276 OA
ATOM     17  H   LIG d   1       0.071  85.235 112.748  0.00  0.00     0.149 HD
ENDBRANCH   6  13
BRANCH   5  18
ATOM     18  N   LIG d   1       2.529  83.587 110.482  0.00  0.00     0.381 N 
ATOM     19  H   LIG d   1       1.701  83.087 110.227  0.00  0.00    -0.090 HD
ATOM     20  H   LIG d   1       3.325  83.048 110.190  0.00  0.00    -0.090 HD
ATOM     21  H   LIG d   1       2.540  84.477 110.034  0.00  0.00    -0.090 HD
ENDBRANCH   5  18
BRANCH   3  22
ATOM     22  C   LIG d   1       5.181  82.975 114.423  0.00  0.00     0.382 C 
ATOM     23  O   LIG d   1       5.537  81.864 113.961  0.00  0.00    -0.241 OA
ATOM     24  O   LIG d   1       5.659  83.372 115.502  0.00  0.00    -0.241 OA
ENDBRANCH   3  22
TORSDOF 7
ENDMDL
