MODEL 1
REMARK VINA RESULT:      -5.6      0.000      0.000
REMARK  7 active torsions:
REMARK  status: ('A' for Active; 'I' for Inactive)
REMARK    1  A    between atoms: C_2  and  C_3 
REMARK    2  A    between atoms: C_3  and  O_6 
REMARK    3  A    between atoms: C_3  and  C_4 
REMARK    4  A    between atoms: C_7  and  O_6 
REMARK    5  A    between atoms: C_9  and  C_10 
REMARK    6  A    between atoms: N_15  and  C_14 
REMARK    7  A    between atoms: N_20  and  C_19 
REMARK       I    between atoms: C_22  and  N_20 
ROOT
ATOM      1  C   LIG d   1       3.066  86.885 114.519  0.00  0.00     0.161 C 
ATOM      2  C   LIG d   1       2.584  88.129 114.078  0.00  0.00     0.016 C 
ATOM      3  C   LIG d   1       3.331  89.327 114.160  0.00  0.00     0.038 C 
ATOM      4  C   LIG d   1       4.677  89.335 114.554  0.00  0.00     0.028 C 
ATOM      5  C   LIG d   1       5.044  88.184 115.484  0.00  0.00    -0.047 C 
ATOM      6  C   LIG d   1       4.574  86.856 114.848  0.00  0.00     0.091 C 
ENDROOT
BRANCH   1   7
ATOM      7  O   LIG d   1       2.745  85.866 113.552  0.00  0.00    -0.368 OA
BRANCH   7   8
ATOM      8  C   LIG d   1       2.671  86.297 112.171  0.00  0.00     0.119 C 
BRANCH   8   9
ATOM      9  C   LIG d   1       1.689  85.357 111.445  0.00  0.00     0.028 C 
ATOM     10  C   LIG d   1       0.549  86.122 110.752  0.00  0.00     0.006 C 
ENDBRANCH   8   9
BRANCH   8  11
ATOM     11  C   LIG d   1       4.013  86.112 111.457  0.00  0.00     0.028 C 
ATOM     12  C   LIG d   1       4.098  84.788 110.682  0.00  0.00     0.006 C 
ENDBRANCH   8  11
ENDBRANCH   7   8
ENDBRANCH   1   7
BRANCH   6  13
ATOM     13  N   LIG d   1       4.818  85.687 115.732  0.00  0.00    -0.311 N 
ATOM     14  C   LIG d   1       5.181  84.488 115.279  0.00  0.00     0.210 C 
ATOM     15  C   LIG d   1       5.362  83.416 116.358  0.00  0.00     0.109 C 
ATOM     16  O   LIG d   1       5.400  84.219 114.088  0.00  0.00    -0.276 OA
ATOM     17  H   LIG d   1       4.693  85.824 116.716  0.00  0.00     0.149 HD
ENDBRANCH   6  13
BRANCH   5  18
ATOM     18  N   LIG d   1       6.502  88.236 115.703  0.00  0.00     0.381 N 
ATOM     19  H   LIG d   1       6.878  89.065 115.289  0.00  0.00    -0.090 HD
ATOM     20  H   LIG d   1       6.926  87.441 115.258  0.00  0.00    -0.090 HD
ATOM     21  H   LIG d   1       6.700  88.224 116.679  0.00  0.00    -0.090 HD
ENDBRANCH   5  18
BRANCH   3  22
ATOM     22  C   LIG d   1       2.717  90.539 113.885  0.00  0.00     0.382 C 
ATOM     23  O   LIG d   1       2.264  91.240 114.822  0.00  0.00    -0.241 OA
ATOM     24  O   LIG d   1       2.571  90.920 112.708  0.00  0.00    -0.241 OA
ENDBRANCH   3  22
TORSDOF 7
ENDMDL
MODEL 2
REMARK VINA RESULT:      -5.5      4.937      7.678
REMARK  7 active torsions:
REMARK  status: ('A' for Active; 'I' for Inactive)
REMARK    1  A    between atoms: C_2  and  C_3 
REMARK    2  A    between atoms: C_3  and  O_6 
REMARK    3  A    between atoms: C_3  and  C_4 
REMARK    4  A    between atoms: C_7  and  O_6 
REMARK    5  A    between atoms: C_9  and  C_10 
REMARK    6  A    between atoms: N_15  and  C_14 
REMARK    7  A    between atoms: N_20  and  C_19 
REMARK       I    between atoms: C_22  and  N_20 
ROOT
ATOM      1  C   LIG d   1       0.530  82.941 112.596  0.00  0.00     0.161 C 
ATOM      2  C   LIG d   1      -0.733  82.531 113.054  0.00  0.00     0.016 C 
ATOM      3  C   LIG d   1      -1.291  81.264 112.768  0.00  0.00     0.038 C 
ATOM      4  C   LIG d   1      -0.555  80.258 112.125  0.00  0.00     0.028 C 
ATOM      5  C   LIG d   1       0.534  80.798 111.204  0.00  0.00    -0.047 C 
ATOM      6  C   LIG d   1       1.394  81.817 111.987  0.00  0.00     0.091 C 
ENDROOT
BRANCH   1   7
ATOM      7  O   LIG d   1       1.245  83.603 113.658  0.00  0.00    -0.368 OA
BRANCH   7   8
ATOM      8  C   LIG d   1       2.185  82.786 114.399  0.00  0.00     0.119 C 
BRANCH   8   9
ATOM      9  C   LIG d   1       1.520  82.414 115.738  0.00  0.00     0.028 C 
ATOM     10  C   LIG d   1       1.384  83.621 116.681  0.00  0.00     0.006 C 
ENDBRANCH   8   9
BRANCH   8  11
ATOM     11  C   LIG d   1       3.438  83.582 114.775  0.00  0.00     0.028 C 
ATOM     12  C   LIG d   1       3.883  84.551 113.669  0.00  0.00     0.006 C 
ENDBRANCH   8  11
ENDBRANCH   7   8
ENDBRANCH   1   7
BRANCH   6  13
ATOM     13  N   LIG d   1       2.430  82.456 111.136  0.00  0.00    -0.311 N 
ATOM     14  C   LIG d   1       3.648  81.947 110.955  0.00  0.00     0.210 C 
ATOM     15  C   LIG d   1       4.569  82.776 110.055  0.00  0.00     0.109 C 
ATOM     16  O   LIG d   1       4.041  80.871 111.430  0.00  0.00    -0.276 OA
ATOM     17  H   LIG d   1       2.185  83.317 110.687  0.00  0.00     0.149 HD
ENDBRANCH   6  13
BRANCH   5  18
ATOM     18  N   LIG d   1       1.311  79.646 110.708  0.00  0.00     0.381 N 
ATOM     19  H   LIG d   1       1.439  78.982 111.445  0.00  0.00    -0.090 HD
ATOM     20  H   LIG d   1       2.215  79.967 110.412  0.00  0.00    -0.090 HD
ATOM     21  H   LIG d   1       0.836  79.218 109.944  0.00  0.00    -0.090 HD
ENDBRANCH   5  18
BRANCH   3  22
ATOM     22  C   LIG d   1      -2.615  81.007 113.091  0.00  0.00     0.382 C 
ATOM     23  O   LIG d   1      -2.975  79.839 113.375  0.00  0.00    -0.241 OA
ATOM     24  O   LIG d   1      -3.461  81.920 113.059  0.00  0.00    -0.241 OA
ENDBRANCH   3  22
TORSDOF 7
ENDMDL
MODEL 3
REMARK VINA RESULT:      -5.3     26.873     29.215
REMARK  7 active torsions:
REMARK  status: ('A' for Active; 'I' for Inactive)
REMARK    1  A    between atoms: C_2  and  C_3 
REMARK    2  A    between atoms: C_3  and  O_6 
REMARK    3  A    between atoms: C_3  and  C_4 
REMARK    4  A    between atoms: C_7  and  O_6 
REMARK    5  A    between atoms: C_9  and  C_10 
REMARK    6  A    between atoms: N_15  and  C_14 
REMARK    7  A    between atoms: N_20  and  C_19 
REMARK       I    between atoms: C_22  and  N_20 
ROOT
ATOM      1  C   LIG d   1     -25.576  85.816 113.706  0.00  0.00     0.161 C 
ATOM      2  C   LIG d   1     -24.434  86.634 113.689  0.00  0.00     0.016 C 
ATOM      3  C   LIG d   1     -23.132  86.148 113.425  0.00  0.00     0.038 C 
ATOM      4  C   LIG d   1     -22.904  84.829 113.007  0.00  0.00     0.028 C 
ATOM      5  C   LIG d   1     -23.961  83.846 113.500  0.00  0.00    -0.047 C 
ATOM      6  C   LIG d   1     -25.362  84.395 113.144  0.00  0.00     0.091 C 
ENDROOT
BRANCH   1   7
ATOM      7  O   LIG d   1     -26.656  86.472 113.014  0.00  0.00    -0.368 OA
BRANCH   7   8
ATOM      8  C   LIG d   1     -26.306  87.148 111.781  0.00  0.00     0.119 C 
BRANCH   8   9
ATOM      9  C   LIG d   1     -26.759  88.615 111.913  0.00  0.00     0.028 C 
ATOM     10  C   LIG d   1     -26.648  89.385 110.587  0.00  0.00     0.006 C 
ENDBRANCH   8   9
BRANCH   8  11
ATOM     11  C   LIG d   1     -27.094  86.586 110.594  0.00  0.00     0.028 C 
ATOM     12  C   LIG d   1     -28.274  85.701 111.027  0.00  0.00     0.006 C 
ENDBRANCH   8  11
ENDBRANCH   7   8
ENDBRANCH   1   7
BRANCH   6  13
ATOM     13  N   LIG d   1     -26.457  83.536 113.664  0.00  0.00    -0.311 N 
ATOM     14  C   LIG d   1     -27.023  82.560 112.956  0.00  0.00     0.210 C 
ATOM     15  C   LIG d   1     -28.148  81.808 113.674  0.00  0.00     0.109 C 
ATOM     16  O   LIG d   1     -26.678  82.224 111.813  0.00  0.00    -0.276 OA
ATOM     17  H   LIG d   1     -26.777  83.719 114.595  0.00  0.00     0.149 HD
ENDBRANCH   6  13
BRANCH   5  18
ATOM     18  N   LIG d   1     -23.678  82.538 112.879  0.00  0.00     0.381 N 
ATOM     19  H   LIG d   1     -23.713  82.622 111.882  0.00  0.00    -0.090 HD
ATOM     20  H   LIG d   1     -24.384  81.883 113.165  0.00  0.00    -0.090 HD
ATOM     21  H   LIG d   1     -22.779  82.214 113.161  0.00  0.00    -0.090 HD
ENDBRANCH   5  18
BRANCH   3  22
ATOM     22  C   LIG d   1     -22.037  86.977 113.616  0.00  0.00     0.382 C 
ATOM     23  O   LIG d   1     -22.098  87.913 114.449  0.00  0.00    -0.241 OA
ATOM     24  O   LIG d   1     -21.006  86.828 112.935  0.00  0.00    -0.241 OA
ENDBRANCH   3  22
TORSDOF 7
ENDMDL
MODEL 4
REMARK VINA RESULT:      -5.3      2.780      4.793
REMARK  7 active torsions:
REMARK  status: ('A' for Active; 'I' for Inactive)
REMARK    1  A    between atoms: C_2  and  C_3 
REMARK    2  A    between atoms: C_3  and  O_6 
REMARK    3  A    between atoms: C_3  and  C_4 
REMARK    4  A    between atoms: C_7  and  O_6 
REMARK    5  A    between atoms: C_9  and  C_10 
REMARK    6  A    between atoms: N_15  and  C_14 
REMARK    7  A    between atoms: N_20  and  C_19 
REMARK       I    between atoms: C_22  and  N_20 
ROOT
ATOM      1  C   LIG d   1       4.558  85.132 112.437  0.00  0.00     0.161 C 
ATOM      2  C   LIG d   1       4.418  86.447 112.912  0.00  0.00     0.016 C 
ATOM      3  C   LIG d   1       3.347  87.296 112.549  0.00  0.00     0.038 C 
ATOM      4  C   LIG d   1       2.255  86.833 111.800  0.00  0.00     0.028 C 
ATOM      5  C   LIG d   1       2.602  85.666 110.881  0.00  0.00    -0.047 C 
ATOM      6  C   LIG d   1       3.318  84.573 111.707  0.00  0.00     0.091 C 
ENDROOT
BRANCH   1   7
ATOM      7  O   LIG d   1       4.938  84.259 113.518  0.00  0.00    -0.368 OA
BRANCH   7   8
ATOM      8  C   LIG d   1       4.367  84.564 114.815  0.00  0.00     0.119 C 
BRANCH   8   9
ATOM      9  C   LIG d   1       5.530  84.673 115.819  0.00  0.00     0.028 C 
ATOM     10  C   LIG d   1       5.532  86.015 116.571  0.00  0.00     0.006 C 
ENDBRANCH   8   9
BRANCH   8  11
ATOM     11  C   LIG d   1       3.497  83.411 115.325  0.00  0.00     0.028 C 
ATOM     12  C   LIG d   1       2.020  83.556 114.925  0.00  0.00     0.006 C 
ENDBRANCH   8  11
ENDBRANCH   7   8
ENDBRANCH   1   7
BRANCH   6  13
ATOM     13  N   LIG d   1       3.767  83.432 110.867  0.00  0.00    -0.311 N 
ATOM     14  C   LIG d   1       3.306  82.191 111.010  0.00  0.00     0.210 C 
ATOM     15  C   LIG d   1       3.917  81.160 110.055  0.00  0.00     0.109 C 
ATOM     16  O   LIG d   1       2.426  81.852 111.816  0.00  0.00    -0.276 OA
ATOM     17  H   LIG d   1       4.457  83.624 110.168  0.00  0.00     0.149 HD
ENDBRANCH   6  13
BRANCH   5  18
ATOM     18  N   LIG d   1       1.347  85.196 110.265  0.00  0.00     0.381 N 
ATOM     19  H   LIG d   1       0.875  85.964 109.830  0.00  0.00    -0.090 HD
ATOM     20  H   LIG d   1       0.751  84.825 110.984  0.00  0.00    -0.090 HD
ATOM     21  H   LIG d   1       1.543  84.491 109.589  0.00  0.00    -0.090 HD
ENDBRANCH   5  18
BRANCH   3  22
ATOM     22  C   LIG d   1       3.382  88.636 112.905  0.00  0.00     0.382 C 
ATOM     23  O   LIG d   1       2.364  89.180 113.396  0.00  0.00    -0.241 OA
ATOM     24  O   LIG d   1       4.403  89.317 112.699  0.00  0.00    -0.241 OA
ENDBRANCH   3  22
TORSDOF 7
ENDMDL
MODEL 5
REMARK VINA RESULT:      -5.3      4.261      6.763
REMARK  7 active torsions:
REMARK  status: ('A' for Active; 'I' for Inactive)
REMARK    1  A    between atoms: C_2  and  C_3 
REMARK    2  A    between atoms: C_3  and  O_6 
REMARK    3  A    between atoms: C_3  and  C_4 
REMARK    4  A    between atoms: C_7  and  O_6 
REMARK    5  A    between atoms: C_9  and  C_10 
REMARK    6  A    between atoms: N_15  and  C_14 
REMARK    7  A    between atoms: N_20  and  C_19 
REMARK       I    between atoms: C_22  and  N_20 
ROOT
ATOM      1  C   LIG d   1       0.536  82.919 112.711  0.00  0.00     0.161 C 
ATOM      2  C   LIG d   1      -0.728  82.324 112.566  0.00  0.00     0.016 C 
ATOM      3  C   LIG d   1      -1.381  81.621 113.605  0.00  0.00     0.038 C 
ATOM      4  C   LIG d   1      -0.875  81.594 114.913  0.00  0.00     0.028 C 
ATOM      5  C   LIG d   1       0.640  81.750 114.980  0.00  0.00    -0.047 C 
ATOM      6  C   LIG d   1       1.053  82.995 114.162  0.00  0.00     0.091 C 
ENDROOT
BRANCH   1   7
ATOM      7  O   LIG d   1       0.531  84.230 112.111  0.00  0.00    -0.368 OA
BRANCH   7   8
ATOM      8  C   LIG d   1       0.981  84.304 110.736  0.00  0.00     0.119 C 
BRANCH   8   9
ATOM      9  C   LIG d   1       2.521  84.270 110.750  0.00  0.00     0.028 C 
ATOM     10  C   LIG d   1       3.137  85.659 110.989  0.00  0.00     0.006 C 
ENDBRANCH   8   9
BRANCH   8  11
ATOM     11  C   LIG d   1       0.610  85.647 110.100  0.00  0.00     0.028 C 
ATOM     12  C   LIG d   1      -0.807  86.112 110.472  0.00  0.00     0.006 C 
ENDBRANCH   8  11
ENDBRANCH   7   8
ENDBRANCH   1   7
BRANCH   6  13
ATOM     13  N   LIG d   1       2.528  83.173 114.106  0.00  0.00    -0.311 N 
ATOM     14  C   LIG d   1       3.143  84.304 114.444  0.00  0.00     0.210 C 
ATOM     15  C   LIG d   1       4.667  84.281 114.294  0.00  0.00     0.109 C 
ATOM     16  O   LIG d   1       2.574  85.315 114.884  0.00  0.00    -0.276 OA
ATOM     17  H   LIG d   1       3.069  82.392 113.790  0.00  0.00     0.149 HD
ENDBRANCH   6  13
BRANCH   5  18
ATOM     18  N   LIG d   1       1.016  81.842 116.404  0.00  0.00     0.381 N 
ATOM     19  H   LIG d   1       0.684  81.036 116.895  0.00  0.00    -0.090 HD
ATOM     20  H   LIG d   1       0.581  82.656 116.803  0.00  0.00    -0.090 HD
ATOM     21  H   LIG d   1       2.006  81.909 116.491  0.00  0.00    -0.090 HD
ENDBRANCH   5  18
BRANCH   3  22
ATOM     22  C   LIG d   1      -2.533  80.901 113.329  0.00  0.00     0.382 C 
ATOM     23  O   LIG d   1      -3.502  81.462 112.763  0.00  0.00    -0.241 OA
ATOM     24  O   LIG d   1      -2.632  79.710 113.678  0.00  0.00    -0.241 OA
ENDBRANCH   3  22
TORSDOF 7
ENDMDL
MODEL 6
REMARK VINA RESULT:      -5.2     28.022     30.126
REMARK  7 active torsions:
REMARK  status: ('A' for Active; 'I' for Inactive)
REMARK    1  A    between atoms: C_2  and  C_3 
REMARK    2  A    between atoms: C_3  and  O_6 
REMARK    3  A    between atoms: C_3  and  C_4 
REMARK    4  A    between atoms: C_7  and  O_6 
REMARK    5  A    between atoms: C_9  and  C_10 
REMARK    6  A    between atoms: N_15  and  C_14 
REMARK    7  A    between atoms: N_20  and  C_19 
REMARK       I    between atoms: C_22  and  N_20 
ROOT
ATOM      1  C   LIG d   1     -16.751  65.697 115.216  0.00  0.00     0.161 C 
ATOM      2  C   LIG d   1     -15.482  66.298 115.233  0.00  0.00     0.016 C 
ATOM      3  C   LIG d   1     -15.153  67.400 116.055  0.00  0.00     0.038 C 
ATOM      4  C   LIG d   1     -16.034  67.883 117.035  0.00  0.00     0.028 C 
ATOM      5  C   LIG d   1     -17.502  67.634 116.705  0.00  0.00    -0.047 C 
ATOM      6  C   LIG d   1     -17.691  66.139 116.358  0.00  0.00     0.091 C 
ENDROOT
BRANCH   1   7
ATOM      7  O   LIG d   1     -16.613  64.263 115.209  0.00  0.00    -0.368 OA
BRANCH   7   8
ATOM      8  C   LIG d   1     -16.948  63.596 113.967  0.00  0.00     0.119 C 
BRANCH   8   9
ATOM      9  C   LIG d   1     -17.508  64.663 113.006  0.00  0.00     0.028 C 
ATOM     10  C   LIG d   1     -18.953  64.362 112.573  0.00  0.00     0.006 C 
ENDBRANCH   8   9
BRANCH   8  11
ATOM     11  C   LIG d   1     -18.085  62.590 114.163  0.00  0.00     0.028 C 
ATOM     12  C   LIG d   1     -17.602  61.131 114.130  0.00  0.00     0.006 C 
ENDBRANCH   8  11
ENDBRANCH   7   8
ENDBRANCH   1   7
BRANCH   6  13
ATOM     13  N   LIG d   1     -19.083  65.826 115.942  0.00  0.00    -0.311 N 
ATOM     14  C   LIG d   1     -19.804  64.841 116.475  0.00  0.00     0.210 C 
ATOM     15  C   LIG d   1     -21.209  64.677 115.887  0.00  0.00     0.109 C 
ATOM     16  O   LIG d   1     -19.424  64.109 117.401  0.00  0.00    -0.276 OA
ATOM     17  H   LIG d   1     -19.480  66.391 115.217  0.00  0.00     0.149 HD
ENDBRANCH   6  13
BRANCH   5  18
ATOM     18  N   LIG d   1     -18.299  68.062 117.870  0.00  0.00     0.381 N 
ATOM     19  H   LIG d   1     -17.942  67.633 118.701  0.00  0.00    -0.090 HD
ATOM     20  H   LIG d   1     -19.249  67.760 117.743  0.00  0.00    -0.090 HD
ATOM     21  H   LIG d   1     -18.266  69.054 117.960  0.00  0.00    -0.090 HD
ENDBRANCH   5  18
BRANCH   3  22
ATOM     22  C   LIG d   1     -13.945  68.056 115.875  0.00  0.00     0.382 C 
ATOM     23  O   LIG d   1     -13.851  68.975 115.025  0.00  0.00    -0.241 OA
ATOM     24  O   LIG d   1     -12.936  67.712 116.519  0.00  0.00    -0.241 OA
ENDBRANCH   3  22
TORSDOF 7
ENDMDL
MODEL 7
REMARK VINA RESULT:      -4.8      2.588      4.421
REMARK  7 active torsions:
REMARK  status: ('A' for Active; 'I' for Inactive)
REMARK    1  A    between atoms: C_2  and  C_3 
REMARK    2  A    between atoms: C_3  and  O_6 
REMARK    3  A    between atoms: C_3  and  C_4 
REMARK    4  A    between atoms: C_7  and  O_6 
REMARK    5  A    between atoms: C_9  and  C_10 
REMARK    6  A    between atoms: N_15  and  C_14 
REMARK    7  A    between atoms: N_20  and  C_19 
REMARK       I    between atoms: C_22  and  N_20 
ROOT
ATOM      1  C   LIG d   1       3.212  88.294 115.328  0.00  0.00     0.161 C 
ATOM      2  C   LIG d   1       2.615  87.618 114.251  0.00  0.00     0.016 C 
ATOM      3  C   LIG d   1       3.194  87.539 112.964  0.00  0.00     0.038 C 
ATOM      4  C   LIG d   1       4.491  88.006 112.704  0.00  0.00     0.028 C 
ATOM      5  C   LIG d   1       4.922  89.140 113.628  0.00  0.00    -0.047 C 
ATOM      6  C   LIG d   1       4.679  88.714 115.094  0.00  0.00     0.091 C 
ENDROOT
BRANCH   1   7
ATOM      7  O   LIG d   1       3.104  87.498 116.525  0.00  0.00    -0.368 OA
BRANCH   7   8
ATOM      8  C   LIG d   1       2.914  86.075 116.329  0.00  0.00     0.119 C 
BRANCH   8   9
ATOM      9  C   LIG d   1       1.883  85.599 117.371  0.00  0.00     0.028 C 
ATOM     10  C   LIG d   1       1.470  84.132 117.160  0.00  0.00     0.006 C 
ENDBRANCH   8   9
BRANCH   8  11
ATOM     11  C   LIG d   1       4.195  85.295 116.640  0.00  0.00     0.028 C 
ATOM     12  C   LIG d   1       4.956  84.871 115.373  0.00  0.00     0.006 C 
ENDBRANCH   8  11
ENDBRANCH   7   8
ENDBRANCH   1   7
BRANCH   6  13
ATOM     13  N   LIG d   1       4.995  89.798 116.059  0.00  0.00    -0.311 N 
ATOM     14  C   LIG d   1       5.736  89.614 117.151  0.00  0.00     0.210 C 
ATOM     15  C   LIG d   1       5.924  90.860 118.022  0.00  0.00     0.109 C 
ATOM     16  O   LIG d   1       6.282  88.546 117.463  0.00  0.00    -0.276 OA
ATOM     17  H   LIG d   1       4.618  90.705 115.866  0.00  0.00     0.149 HD
ENDBRANCH   6  13
BRANCH   5  18
ATOM     18  N   LIG d   1       6.339  89.435 113.340  0.00  0.00     0.381 N 
ATOM     19  H   LIG d   1       6.442  90.402 113.102  0.00  0.00    -0.090 HD
ATOM     20  H   LIG d   1       6.632  88.884 112.552  0.00  0.00    -0.090 HD
ATOM     21  H   LIG d   1       6.901  89.219 114.133  0.00  0.00    -0.090 HD
ENDBRANCH   5  18
BRANCH   3  22
ATOM     22  C   LIG d   1       2.456  87.023 111.909  0.00  0.00     0.382 C 
ATOM     23  O   LIG d   1       1.205  86.974 111.983  0.00  0.00    -0.241 OA
ATOM     24  O   LIG d   1       3.029  86.564 110.902  0.00  0.00    -0.241 OA
ENDBRANCH   3  22
TORSDOF 7
ENDMDL
MODEL 8
REMARK VINA RESULT:      -4.7      6.794      9.343
REMARK  7 active torsions:
REMARK  status: ('A' for Active; 'I' for Inactive)
REMARK    1  A    between atoms: C_2  and  C_3 
REMARK    2  A    between atoms: C_3  and  O_6 
REMARK    3  A    between atoms: C_3  and  C_4 
REMARK    4  A    between atoms: C_7  and  O_6 
REMARK    5  A    between atoms: C_9  and  C_10 
REMARK    6  A    between atoms: N_15  and  C_14 
REMARK    7  A    between atoms: N_20  and  C_19 
REMARK       I    between atoms: C_22  and  N_20 
ROOT
ATOM      1  C   LIG d   1      -0.468  79.933 112.587  0.00  0.00     0.161 C 
ATOM      2  C   LIG d   1      -1.569  79.121 112.267  0.00  0.00     0.016 C 
ATOM      3  C   LIG d   1      -2.351  78.453 113.238  0.00  0.00     0.038 C 
ATOM      4  C   LIG d   1      -2.175  78.673 114.612  0.00  0.00     0.028 C 
ATOM      5  C   LIG d   1      -0.755  79.089 114.981  0.00  0.00    -0.047 C 
ATOM      6  C   LIG d   1      -0.329  80.274 114.085  0.00  0.00     0.091 C 
ENDROOT
BRANCH   1   7
ATOM      7  O   LIG d   1      -0.506  81.139 111.799  0.00  0.00    -0.368 OA
BRANCH   7   8
ATOM      8  C   LIG d   1       0.391  81.186 110.662  0.00  0.00     0.119 C 
BRANCH   8   9
ATOM      9  C   LIG d   1       1.554  80.217 110.948  0.00  0.00     0.028 C 
ATOM     10  C   LIG d   1       2.881  80.951 111.200  0.00  0.00     0.006 C 
ENDBRANCH   8   9
BRANCH   8  11
ATOM     11  C   LIG d   1       1.039  82.567 110.520  0.00  0.00     0.028 C 
ATOM     12  C   LIG d   1       0.053  83.717 110.778  0.00  0.00     0.006 C 
ENDBRANCH   8  11
ENDBRANCH   7   8
ENDBRANCH   1   7
BRANCH   6  13
ATOM     13  N   LIG d   1       1.078  80.688 114.323  0.00  0.00    -0.311 N 
ATOM     14  C   LIG d   1       1.420  81.697 115.123  0.00  0.00     0.210 C 
ATOM     15  C   LIG d   1       2.925  81.970 115.213  0.00  0.00     0.109 C 
ATOM     16  O   LIG d   1       0.622  82.371 115.792  0.00  0.00    -0.276 OA
ATOM     17  H   LIG d   1       1.792  80.175 113.845  0.00  0.00     0.149 HD
ENDBRANCH   6  13
BRANCH   5  18
ATOM     18  N   LIG d   1      -0.747  79.419 116.419  0.00  0.00     0.381 N 
ATOM     19  H   LIG d   1      -1.650  79.749 116.696  0.00  0.00    -0.090 HD
ATOM     20  H   LIG d   1      -0.080  80.153 116.580  0.00  0.00    -0.090 HD
ATOM     21  H   LIG d   1      -0.502  78.614 116.953  0.00  0.00    -0.090 HD
ENDBRANCH   5  18
BRANCH   3  22
ATOM     22  C   LIG d   1      -3.296  77.521 112.836  0.00  0.00     0.382 C 
ATOM     23  O   LIG d   1      -4.130  77.817 111.947  0.00  0.00    -0.241 OA
ATOM     24  O   LIG d   1      -3.353  76.403 113.383  0.00  0.00    -0.241 OA
ENDBRANCH   3  22
TORSDOF 7
ENDMDL
MODEL 9
REMARK VINA RESULT:      -4.7     27.858     29.957
REMARK  7 active torsions:
REMARK  status: ('A' for Active; 'I' for Inactive)
REMARK    1  A    between atoms: C_2  and  C_3 
REMARK    2  A    between atoms: C_3  and  O_6 
REMARK    3  A    between atoms: C_3  and  C_4 
REMARK    4  A    between atoms: C_7  and  O_6 
REMARK    5  A    between atoms: C_9  and  C_10 
REMARK    6  A    between atoms: N_15  and  C_14 
REMARK    7  A    between atoms: N_20  and  C_19 
REMARK       I    between atoms: C_22  and  N_20 
ROOT
ATOM      1  C   LIG d   1     -16.754  65.752 115.468  0.00  0.00     0.161 C 
ATOM      2  C   LIG d   1     -15.485  66.352 115.412  0.00  0.00     0.016 C 
ATOM      3  C   LIG d   1     -15.149  67.528 116.122  0.00  0.00     0.038 C 
ATOM      4  C   LIG d   1     -16.020  68.103 117.059  0.00  0.00     0.028 C 
ATOM      5  C   LIG d   1     -17.491  67.823 116.771  0.00  0.00    -0.047 C 
ATOM      6  C   LIG d   1     -17.682  66.302 116.571  0.00  0.00     0.091 C 
ENDROOT
BRANCH   1   7
ATOM      7  O   LIG d   1     -16.613  64.324 115.597  0.00  0.00    -0.368 OA
BRANCH   7   8
ATOM      8  C   LIG d   1     -16.682  63.796 116.944  0.00  0.00     0.119 C 
BRANCH   8   9
ATOM      9  C   LIG d   1     -15.306  63.186 117.274  0.00  0.00     0.028 C 
ATOM     10  C   LIG d   1     -14.452  64.110 118.158  0.00  0.00     0.006 C 
ENDBRANCH   8   9
BRANCH   8  11
ATOM     11  C   LIG d   1     -17.674  62.632 117.037  0.00  0.00     0.028 C 
ATOM     12  C   LIG d   1     -18.302  62.275 115.680  0.00  0.00     0.006 C 
ENDBRANCH   8  11
ENDBRANCH   7   8
ENDBRANCH   1   7
BRANCH   6  13
ATOM     13  N   LIG d   1     -19.077  65.950 116.202  0.00  0.00    -0.311 N 
ATOM     14  C   LIG d   1     -19.987  65.536 117.083  0.00  0.00     0.210 C 
ATOM     15  C   LIG d   1     -21.360  65.206 116.488  0.00  0.00     0.109 C 
ATOM     16  O   LIG d   1     -19.796  65.442 118.305  0.00  0.00    -0.276 OA
ATOM     17  H   LIG d   1     -19.327  66.027 115.235  0.00  0.00     0.149 HD
ENDBRANCH   6  13
BRANCH   5  18
ATOM     18  N   LIG d   1     -18.276  68.361 117.898  0.00  0.00     0.381 N 
ATOM     19  H   LIG d   1     -18.023  67.889 118.743  0.00  0.00    -0.090 HD
ATOM     20  H   LIG d   1     -19.251  68.194 117.724  0.00  0.00    -0.090 HD
ATOM     21  H   LIG d   1     -18.110  69.339 117.993  0.00  0.00    -0.090 HD
ENDBRANCH   5  18
BRANCH   3  22
ATOM     22  C   LIG d   1     -13.943  68.164 115.866  0.00  0.00     0.382 C 
ATOM     23  O   LIG d   1     -13.867  69.017 114.948  0.00  0.00    -0.241 OA
ATOM     24  O   LIG d   1     -12.921  67.865 116.511  0.00  0.00    -0.241 OA
ENDBRANCH   3  22
TORSDOF 7
ENDMDL
