MODEL 1
REMARK VINA RESULT:      -5.7      0.000      0.000
REMARK  7 active torsions:
REMARK  status: ('A' for Active; 'I' for Inactive)
REMARK    1  A    between atoms: C_2  and  C_3 
REMARK    2  A    between atoms: C_3  and  O_6 
REMARK    3  A    between atoms: C_3  and  C_4 
REMARK    4  A    between atoms: C_7  and  O_6 
REMARK    5  A    between atoms: C_9  and  C_10 
REMARK    6  A    between atoms: N_15  and  C_14 
REMARK    7  A    between atoms: N_20  and  C_19 
REMARK       I    between atoms: C_22  and  N_20 
ROOT
ATOM      1  C   LIG d   1      -0.186  83.230 112.322  0.00  0.00     0.161 C 
ATOM      2  C   LIG d   1      -1.411  82.678 112.732  0.00  0.00     0.016 C 
ATOM      3  C   LIG d   1      -1.797  81.347 112.452  0.00  0.00     0.038 C 
ATOM      4  C   LIG d   1      -0.914  80.426 111.869  0.00  0.00     0.028 C 
ATOM      5  C   LIG d   1       0.145  81.077 110.986  0.00  0.00    -0.047 C 
ATOM      6  C   LIG d   1       0.836  82.208 111.782  0.00  0.00     0.091 C 
ENDROOT
BRANCH   1   7
ATOM      7  O   LIG d   1       0.390  83.994 113.399  0.00  0.00    -0.368 OA
BRANCH   7   8
ATOM      8  C   LIG d   1       0.898  83.231 114.521  0.00  0.00     0.119 C 
BRANCH   8   9
ATOM      9  C   LIG d   1       0.372  83.896 115.808  0.00  0.00     0.028 C 
ATOM     10  C   LIG d   1      -0.825  83.141 116.411  0.00  0.00     0.006 C 
ENDBRANCH   8   9
BRANCH   8  11
ATOM     11  C   LIG d   1       2.424  83.322 114.613  0.00  0.00     0.028 C 
ATOM     12  C   LIG d   1       2.967  84.691 114.172  0.00  0.00     0.006 C 
ENDBRANCH   8  11
ENDBRANCH   7   8
ENDBRANCH   1   7
BRANCH   6  13
ATOM     13  N   LIG d   1       1.828  82.953 110.964  0.00  0.00    -0.311 N 
ATOM     14  C   LIG d   1       3.130  82.671 110.954  0.00  0.00     0.210 C 
ATOM     15  C   LIG d   1       3.980  83.575 110.056  0.00  0.00     0.109 C 
ATOM     16  O   LIG d   1       3.656  81.739 111.580  0.00  0.00    -0.276 OA
ATOM     17  H   LIG d   1       1.482  83.706 110.402  0.00  0.00     0.149 HD
ENDBRANCH   6  13
BRANCH   5  18
ATOM     18  N   LIG d   1       1.079  80.019 110.556  0.00  0.00     0.381 N 
ATOM     19  H   LIG d   1       2.022  80.341 110.648  0.00  0.00    -0.090 HD
ATOM     20  H   LIG d   1       0.910  79.811 109.588  0.00  0.00    -0.090 HD
ATOM     21  H   LIG d   1       0.945  79.201 111.108  0.00  0.00    -0.090 HD
ENDBRANCH   5  18
BRANCH   3  22
ATOM     22  C   LIG d   1      -3.094  80.937 112.720  0.00  0.00     0.382 C 
ATOM     23  O   LIG d   1      -3.298  79.845 113.303  0.00  0.00    -0.241 OA
ATOM     24  O   LIG d   1      -4.064  81.623 112.346  0.00  0.00    -0.241 OA
ENDBRANCH   3  22
TORSDOF 7
ENDMDL
MODEL 2
REMARK VINA RESULT:      -5.6      1.004      2.067
REMARK  7 active torsions:
REMARK  status: ('A' for Active; 'I' for Inactive)
REMARK    1  A    between atoms: C_2  and  C_3 
REMARK    2  A    between atoms: C_3  and  O_6 
REMARK    3  A    between atoms: C_3  and  C_4 
REMARK    4  A    between atoms: C_7  and  O_6 
REMARK    5  A    between atoms: C_9  and  C_10 
REMARK    6  A    between atoms: N_15  and  C_14 
REMARK    7  A    between atoms: N_20  and  C_19 
REMARK       I    between atoms: C_22  and  N_20 
ROOT
ATOM      1  C   LIG d   1       0.164  82.717 112.333  0.00  0.00     0.161 C 
ATOM      2  C   LIG d   1      -1.118  82.365 112.787  0.00  0.00     0.016 C 
ATOM      3  C   LIG d   1      -1.778  81.175 112.406  0.00  0.00     0.038 C 
ATOM      4  C   LIG d   1      -1.135  80.176 111.659  0.00  0.00     0.028 C 
ATOM      5  C   LIG d   1      -0.025  80.712 110.761  0.00  0.00    -0.047 C 
ATOM      6  C   LIG d   1       0.926  81.588 111.607  0.00  0.00     0.091 C 
ENDROOT
BRANCH   1   7
ATOM      7  O   LIG d   1       0.948  83.226 113.430  0.00  0.00    -0.368 OA
BRANCH   7   8
ATOM      8  C   LIG d   1       1.238  84.645 113.403  0.00  0.00     0.119 C 
BRANCH   8   9
ATOM      9  C   LIG d   1       2.736  84.805 113.077  0.00  0.00     0.028 C 
ATOM     10  C   LIG d   1       3.002  85.959 112.096  0.00  0.00     0.006 C 
ENDBRANCH   8   9
BRANCH   8  11
ATOM     11  C   LIG d   1       1.054  85.278 114.785  0.00  0.00     0.028 C 
ATOM     12  C   LIG d   1       0.790  84.239 115.886  0.00  0.00     0.006 C 
ENDBRANCH   8  11
ENDBRANCH   7   8
ENDBRANCH   1   7
BRANCH   6  13
ATOM     13  N   LIG d   1       1.993  82.220 110.788  0.00  0.00    -0.311 N 
ATOM     14  C   LIG d   1       3.293  82.028 111.004  0.00  0.00     0.210 C 
ATOM     15  C   LIG d   1       4.225  82.790 110.056  0.00  0.00     0.109 C 
ATOM     16  O   LIG d   1       3.763  81.274 111.869  0.00  0.00    -0.276 OA
ATOM     17  H   LIG d   1       1.700  82.824 110.044  0.00  0.00     0.149 HD
ENDBRANCH   6  13
BRANCH   5  18
ATOM     18  N   LIG d   1       0.650  79.552 110.147  0.00  0.00     0.381 N 
ATOM     19  H   LIG d   1       0.044  79.124 109.476  0.00  0.00    -0.090 HD
ATOM     20  H   LIG d   1       0.853  78.878 110.864  0.00  0.00    -0.090 HD
ATOM     21  H   LIG d   1       1.494  79.844 109.706  0.00  0.00    -0.090 HD
ENDBRANCH   5  18
BRANCH   3  22
ATOM     22  C   LIG d   1      -3.112  80.992 112.739  0.00  0.00     0.382 C 
ATOM     23  O   LIG d   1      -3.829  81.982 113.021  0.00  0.00    -0.241 OA
ATOM     24  O   LIG d   1      -3.595  79.845 112.805  0.00  0.00    -0.241 OA
ENDBRANCH   3  22
TORSDOF 7
ENDMDL
MODEL 3
REMARK VINA RESULT:      -5.4      2.475      5.022
REMARK  7 active torsions:
REMARK  status: ('A' for Active; 'I' for Inactive)
REMARK    1  A    between atoms: C_2  and  C_3 
REMARK    2  A    between atoms: C_3  and  O_6 
REMARK    3  A    between atoms: C_3  and  C_4 
REMARK    4  A    between atoms: C_7  and  O_6 
REMARK    5  A    between atoms: C_9  and  C_10 
REMARK    6  A    between atoms: N_15  and  C_14 
REMARK    7  A    between atoms: N_20  and  C_19 
REMARK       I    between atoms: C_22  and  N_20 
ROOT
ATOM      1  C   LIG d   1       0.011  83.818 113.794  0.00  0.00     0.161 C 
ATOM      2  C   LIG d   1       0.673  85.039 113.584  0.00  0.00     0.016 C 
ATOM      3  C   LIG d   1       0.820  85.636 112.310  0.00  0.00     0.038 C 
ATOM      4  C   LIG d   1       0.180  85.122 111.173  0.00  0.00     0.028 C 
ATOM      5  C   LIG d   1      -0.076  83.621 111.247  0.00  0.00    -0.047 C 
ATOM      6  C   LIG d   1      -0.790  83.300 112.580  0.00  0.00     0.091 C 
ENDROOT
BRANCH   1   7
ATOM      7  O   LIG d   1      -0.842  83.917 114.951  0.00  0.00    -0.368 OA
BRANCH   7   8
ATOM      8  C   LIG d   1      -0.559  82.994 116.032  0.00  0.00     0.119 C 
BRANCH   8   9
ATOM      9  C   LIG d   1      -1.868  82.249 116.358  0.00  0.00     0.028 C 
ATOM     10  C   LIG d   1      -2.180  82.243 117.864  0.00  0.00     0.006 C 
ENDBRANCH   8   9
BRANCH   8  11
ATOM     11  C   LIG d   1      -0.186  83.739 117.317  0.00  0.00     0.028 C 
ATOM     12  C   LIG d   1       1.227  84.342 117.267  0.00  0.00     0.006 C 
ENDBRANCH   8  11
ENDBRANCH   7   8
ENDBRANCH   1   7
BRANCH   6  13
ATOM     13  N   LIG d   1      -1.002  81.841 112.772  0.00  0.00    -0.311 N 
ATOM     14  C   LIG d   1      -2.191  81.252 112.654  0.00  0.00     0.210 C 
ATOM     15  C   LIG d   1      -2.193  79.742 112.912  0.00  0.00     0.109 C 
ATOM     16  O   LIG d   1      -3.238  81.831 112.329  0.00  0.00    -0.276 OA
ATOM     17  H   LIG d   1      -0.200  81.290 113.008  0.00  0.00     0.149 HD
ENDBRANCH   6  13
BRANCH   5  18
ATOM     18  N   LIG d   1      -0.869  83.244 110.062  0.00  0.00     0.381 N 
ATOM     19  H   LIG d   1      -0.289  82.759 109.407  0.00  0.00    -0.090 HD
ATOM     20  H   LIG d   1      -1.211  84.080 109.621  0.00  0.00    -0.090 HD
ATOM     21  H   LIG d   1      -1.633  82.666 110.333  0.00  0.00    -0.090 HD
ENDBRANCH   5  18
BRANCH   3  22
ATOM     22  C   LIG d   1       1.649  86.737 112.159  0.00  0.00     0.382 C 
ATOM     23  O   LIG d   1       1.985  87.116 111.012  0.00  0.00    -0.241 OA
ATOM     24  O   LIG d   1       2.100  87.330 113.158  0.00  0.00    -0.241 OA
ENDBRANCH   3  22
TORSDOF 7
ENDMDL
MODEL 4
REMARK VINA RESULT:      -5.3     20.717     24.365
REMARK  7 active torsions:
REMARK  status: ('A' for Active; 'I' for Inactive)
REMARK    1  A    between atoms: C_2  and  C_3 
REMARK    2  A    between atoms: C_3  and  O_6 
REMARK    3  A    between atoms: C_3  and  C_4 
REMARK    4  A    between atoms: C_7  and  O_6 
REMARK    5  A    between atoms: C_9  and  C_10 
REMARK    6  A    between atoms: N_15  and  C_14 
REMARK    7  A    between atoms: N_20  and  C_19 
REMARK       I    between atoms: C_22  and  N_20 
ROOT
ATOM      1  C   LIG d   1     -16.854  65.942 114.010  0.00  0.00     0.161 C 
ATOM      2  C   LIG d   1     -16.366  66.856 113.061  0.00  0.00     0.016 C 
ATOM      3  C   LIG d   1     -15.259  67.703 113.294  0.00  0.00     0.038 C 
ATOM      4  C   LIG d   1     -14.464  67.586 114.445  0.00  0.00     0.028 C 
ATOM      5  C   LIG d   1     -15.218  67.026 115.647  0.00  0.00    -0.047 C 
ATOM      6  C   LIG d   1     -15.932  65.721 115.228  0.00  0.00     0.091 C 
ENDROOT
BRANCH   1   7
ATOM      7  O   LIG d   1     -17.149  64.684 113.371  0.00  0.00    -0.368 OA
BRANCH   7   8
ATOM      8  C   LIG d   1     -18.451  64.578 112.745  0.00  0.00     0.119 C 
BRANCH   8   9
ATOM      9  C   LIG d   1     -19.494  64.430 113.869  0.00  0.00     0.028 C 
ATOM     10  C   LIG d   1     -19.304  63.137 114.680  0.00  0.00     0.006 C 
ENDBRANCH   8   9
BRANCH   8  11
ATOM     11  C   LIG d   1     -18.566  63.296 111.913  0.00  0.00     0.028 C 
ATOM     12  C   LIG d   1     -19.310  63.513 110.585  0.00  0.00     0.006 C 
ENDBRANCH   8  11
ENDBRANCH   7   8
ENDBRANCH   1   7
BRANCH   6  13
ATOM     13  N   LIG d   1     -16.762  65.152 116.323  0.00  0.00    -0.311 N 
ATOM     14  C   LIG d   1     -16.343  64.179 117.130  0.00  0.00     0.210 C 
ATOM     15  C   LIG d   1     -17.363  63.726 118.179  0.00  0.00     0.109 C 
ATOM     16  O   LIG d   1     -15.213  63.670 117.097  0.00  0.00    -0.276 OA
ATOM     17  H   LIG d   1     -17.682  65.529 116.440  0.00  0.00     0.149 HD
ENDBRANCH   6  13
BRANCH   5  18
ATOM     18  N   LIG d   1     -14.240  66.828 116.733  0.00  0.00     0.381 N 
ATOM     19  H   LIG d   1     -14.641  67.108 117.605  0.00  0.00    -0.090 HD
ATOM     20  H   LIG d   1     -13.436  67.404 116.556  0.00  0.00    -0.090 HD
ATOM     21  H   LIG d   1     -13.968  65.870 116.776  0.00  0.00    -0.090 HD
ENDBRANCH   5  18
BRANCH   3  22
ATOM     22  C   LIG d   1     -14.960  68.709 112.387  0.00  0.00     0.382 C 
ATOM     23  O   LIG d   1     -15.873  69.451 111.951  0.00  0.00    -0.241 OA
ATOM     24  O   LIG d   1     -13.797  68.854 111.966  0.00  0.00    -0.241 OA
ENDBRANCH   3  22
TORSDOF 7
ENDMDL
MODEL 5
REMARK VINA RESULT:      -5.2      3.027      4.181
REMARK  7 active torsions:
REMARK  status: ('A' for Active; 'I' for Inactive)
REMARK    1  A    between atoms: C_2  and  C_3 
REMARK    2  A    between atoms: C_3  and  O_6 
REMARK    3  A    between atoms: C_3  and  C_4 
REMARK    4  A    between atoms: C_7  and  O_6 
REMARK    5  A    between atoms: C_9  and  C_10 
REMARK    6  A    between atoms: N_15  and  C_14 
REMARK    7  A    between atoms: N_20  and  C_19 
REMARK       I    between atoms: C_22  and  N_20 
ROOT
ATOM      1  C   LIG d   1       1.737  84.737 113.276  0.00  0.00     0.161 C 
ATOM      2  C   LIG d   1       0.916  83.740 112.724  0.00  0.00     0.016 C 
ATOM      3  C   LIG d   1       0.277  83.865 111.469  0.00  0.00     0.038 C 
ATOM      4  C   LIG d   1       0.538  84.941 110.608  0.00  0.00     0.028 C 
ATOM      5  C   LIG d   1       0.964  86.211 111.337  0.00  0.00    -0.047 C 
ATOM      6  C   LIG d   1       2.122  85.871 112.303  0.00  0.00     0.091 C 
ENDROOT
BRANCH   1   7
ATOM      7  O   LIG d   1       2.920  84.139 113.842  0.00  0.00    -0.368 OA
BRANCH   7   8
ATOM      8  C   LIG d   1       2.901  83.922 115.274  0.00  0.00     0.119 C 
BRANCH   8   9
ATOM      9  C   LIG d   1       1.882  84.907 115.879  0.00  0.00     0.028 C 
ATOM     10  C   LIG d   1       0.985  84.246 116.939  0.00  0.00     0.006 C 
ENDBRANCH   8   9
BRANCH   8  11
ATOM     11  C   LIG d   1       4.245  84.288 115.911  0.00  0.00     0.028 C 
ATOM     12  C   LIG d   1       4.479  85.805 115.978  0.00  0.00     0.006 C 
ENDBRANCH   8  11
ENDBRANCH   7   8
ENDBRANCH   1   7
BRANCH   6  13
ATOM     13  N   LIG d   1       2.543  87.040 113.118  0.00  0.00    -0.311 N 
ATOM     14  C   LIG d   1       3.591  87.804 112.817  0.00  0.00     0.210 C 
ATOM     15  C   LIG d   1       3.862  88.947 113.801  0.00  0.00     0.109 C 
ATOM     16  O   LIG d   1       4.303  87.664 111.811  0.00  0.00    -0.276 OA
ATOM     17  H   LIG d   1       2.002  87.245 113.935  0.00  0.00     0.149 HD
ENDBRANCH   6  13
BRANCH   5  18
ATOM     18  N   LIG d   1       1.336  87.208 110.316  0.00  0.00     0.381 N 
ATOM     19  H   LIG d   1       1.139  88.129 110.653  0.00  0.00    -0.090 HD
ATOM     20  H   LIG d   1       0.785  87.050 109.491  0.00  0.00    -0.090 HD
ATOM     21  H   LIG d   1       2.305  87.127 110.098  0.00  0.00    -0.090 HD
ENDBRANCH   5  18
BRANCH   3  22
ATOM     22  C   LIG d   1      -0.666  82.925 111.081  0.00  0.00     0.382 C 
ATOM     23  O   LIG d   1      -0.403  82.118 110.157  0.00  0.00    -0.241 OA
ATOM     24  O   LIG d   1      -1.792  82.903 111.613  0.00  0.00    -0.241 OA
ENDBRANCH   3  22
TORSDOF 7
ENDMDL
MODEL 6
REMARK VINA RESULT:      -5.2      2.240      4.045
REMARK  7 active torsions:
REMARK  status: ('A' for Active; 'I' for Inactive)
REMARK    1  A    between atoms: C_2  and  C_3 
REMARK    2  A    between atoms: C_3  and  O_6 
REMARK    3  A    between atoms: C_3  and  C_4 
REMARK    4  A    between atoms: C_7  and  O_6 
REMARK    5  A    between atoms: C_9  and  C_10 
REMARK    6  A    between atoms: N_15  and  C_14 
REMARK    7  A    between atoms: N_20  and  C_19 
REMARK       I    between atoms: C_22  and  N_20 
ROOT
ATOM      1  C   LIG d   1      -0.021  83.254 112.511  0.00  0.00     0.161 C 
ATOM      2  C   LIG d   1      -1.196  82.525 112.267  0.00  0.00     0.016 C 
ATOM      3  C   LIG d   1      -2.091  82.125 113.286  0.00  0.00     0.038 C 
ATOM      4  C   LIG d   1      -1.947  82.562 114.611  0.00  0.00     0.028 C 
ATOM      5  C   LIG d   1      -0.504  82.878 114.992  0.00  0.00    -0.047 C 
ATOM      6  C   LIG d   1       0.095  83.835 113.936  0.00  0.00     0.091 C 
ENDROOT
BRANCH   1   7
ATOM      7  O   LIG d   1       0.117  84.302 111.531  0.00  0.00    -0.368 OA
BRANCH   7   8
ATOM      8  C   LIG d   1       1.115  84.086 110.504  0.00  0.00     0.119 C 
BRANCH   8   9
ATOM      9  C   LIG d   1       2.152  83.095 111.067  0.00  0.00     0.028 C 
ATOM     10  C   LIG d   1       3.593  83.617 110.938  0.00  0.00     0.006 C 
ENDBRANCH   8   9
BRANCH   8  11
ATOM     11  C   LIG d   1       1.899  85.369 110.209  0.00  0.00     0.028 C 
ATOM     12  C   LIG d   1       1.062  86.640 110.423  0.00  0.00     0.006 C 
ENDBRANCH   8  11
ENDBRANCH   7   8
ENDBRANCH   1   7
BRANCH   6  13
ATOM     13  N   LIG d   1       1.530  84.129 114.187  0.00  0.00    -0.311 N 
ATOM     14  C   LIG d   1       2.044  85.357 114.151  0.00  0.00     0.210 C 
ATOM     15  C   LIG d   1       3.551  85.435 114.419  0.00  0.00     0.109 C 
ATOM     16  O   LIG d   1       1.390  86.392 113.953  0.00  0.00    -0.276 OA
ATOM     17  H   LIG d   1       2.127  83.350 114.386  0.00  0.00     0.149 HD
ENDBRANCH   6  13
BRANCH   5  18
ATOM     18  N   LIG d   1      -0.517  83.451 116.351  0.00  0.00     0.381 N 
ATOM     19  H   LIG d   1      -0.019  84.319 116.358  0.00  0.00    -0.090 HD
ATOM     20  H   LIG d   1      -0.053  82.816 116.976  0.00  0.00    -0.090 HD
ATOM     21  H   LIG d   1      -1.456  83.597 116.651  0.00  0.00    -0.090 HD
ENDBRANCH   5  18
BRANCH   3  22
ATOM     22  C   LIG d   1      -3.121  81.246 112.990  0.00  0.00     0.382 C 
ATOM     23  O   LIG d   1      -4.094  81.631 112.297  0.00  0.00    -0.241 OA
ATOM     24  O   LIG d   1      -3.113  80.087 113.445  0.00  0.00    -0.241 OA
ENDBRANCH   3  22
TORSDOF 7
ENDMDL
MODEL 7
REMARK VINA RESULT:      -5.1      2.835      5.843
REMARK  7 active torsions:
REMARK  status: ('A' for Active; 'I' for Inactive)
REMARK    1  A    between atoms: C_2  and  C_3 
REMARK    2  A    between atoms: C_3  and  O_6 
REMARK    3  A    between atoms: C_3  and  C_4 
REMARK    4  A    between atoms: C_7  and  O_6 
REMARK    5  A    between atoms: C_9  and  C_10 
REMARK    6  A    between atoms: N_15  and  C_14 
REMARK    7  A    between atoms: N_20  and  C_19 
REMARK       I    between atoms: C_22  and  N_20 
ROOT
ATOM      1  C   LIG d   1       1.660  85.150 113.873  0.00  0.00     0.161 C 
ATOM      2  C   LIG d   1       2.349  86.331 114.192  0.00  0.00     0.016 C 
ATOM      3  C   LIG d   1       2.751  87.283 113.226  0.00  0.00     0.038 C 
ATOM      4  C   LIG d   1       2.356  87.189 111.883  0.00  0.00     0.028 C 
ATOM      5  C   LIG d   1       2.091  85.757 111.429  0.00  0.00    -0.047 C 
ATOM      6  C   LIG d   1       1.123  85.084 112.428  0.00  0.00     0.091 C 
ENDROOT
BRANCH   1   7
ATOM      7  O   LIG d   1       0.590  84.938 114.815  0.00  0.00    -0.368 OA
BRANCH   7   8
ATOM      8  C   LIG d   1       0.766  83.840 115.743  0.00  0.00     0.119 C 
BRANCH   8   9
ATOM      9  C   LIG d   1      -0.537  83.016 115.737  0.00  0.00     0.028 C 
ATOM     10  C   LIG d   1      -1.624  83.643 114.849  0.00  0.00     0.006 C 
ENDBRANCH   8   9
BRANCH   8  11
ATOM     11  C   LIG d   1       0.920  84.344 117.181  0.00  0.00     0.028 C 
ATOM     12  C   LIG d   1      -0.064  83.676 118.155  0.00  0.00     0.006 C 
ENDBRANCH   8  11
ENDBRANCH   7   8
ENDBRANCH   1   7
BRANCH   6  13
ATOM     13  N   LIG d   1       0.877  83.655 112.103  0.00  0.00    -0.311 N 
ATOM     14  C   LIG d   1      -0.271  83.204 111.600  0.00  0.00     0.210 C 
ATOM     15  C   LIG d   1      -0.321  81.692 111.358  0.00  0.00     0.109 C 
ATOM     16  O   LIG d   1      -1.240  83.917 111.302  0.00  0.00    -0.276 OA
ATOM     17  H   LIG d   1       1.622  83.011 112.285  0.00  0.00     0.149 HD
ENDBRANCH   6  13
BRANCH   5  18
ATOM     18  N   LIG d   1       1.556  85.818 110.055  0.00  0.00     0.381 N 
ATOM     19  H   LIG d   1       2.239  86.218 109.443  0.00  0.00    -0.090 HD
ATOM     20  H   LIG d   1       0.743  86.408 110.049  0.00  0.00    -0.090 HD
ATOM     21  H   LIG d   1       1.314  84.903 109.743  0.00  0.00    -0.090 HD
ENDBRANCH   5  18
BRANCH   3  22
ATOM     22  C   LIG d   1       3.592  88.322 113.594  0.00  0.00     0.382 C 
ATOM     23  O   LIG d   1       4.500  88.126 114.437  0.00  0.00    -0.241 OA
ATOM     24  O   LIG d   1       3.425  89.465 113.127  0.00  0.00    -0.241 OA
ENDBRANCH   3  22
TORSDOF 7
ENDMDL
MODEL 8
REMARK VINA RESULT:      -5.0      2.463      3.998
REMARK  7 active torsions:
REMARK  status: ('A' for Active; 'I' for Inactive)
REMARK    1  A    between atoms: C_2  and  C_3 
REMARK    2  A    between atoms: C_3  and  O_6 
REMARK    3  A    between atoms: C_3  and  C_4 
REMARK    4  A    between atoms: C_7  and  O_6 
REMARK    5  A    between atoms: C_9  and  C_10 
REMARK    6  A    between atoms: N_15  and  C_14 
REMARK    7  A    between atoms: N_20  and  C_19 
REMARK       I    between atoms: C_22  and  N_20 
ROOT
ATOM      1  C   LIG d   1       0.182  84.005 112.600  0.00  0.00     0.161 C 
ATOM      2  C   LIG d   1      -0.944  83.259 112.215  0.00  0.00     0.016 C 
ATOM      3  C   LIG d   1      -1.551  82.284 113.039  0.00  0.00     0.038 C 
ATOM      4  C   LIG d   1      -1.162  82.095 114.374  0.00  0.00     0.028 C 
ATOM      5  C   LIG d   1       0.293  82.469 114.640  0.00  0.00    -0.047 C 
ATOM      6  C   LIG d   1       0.552  83.892 114.094  0.00  0.00     0.091 C 
ENDROOT
BRANCH   1   7
ATOM      7  O   LIG d   1       0.002  85.387 112.232  0.00  0.00    -0.368 OA
BRANCH   7   8
ATOM      8  C   LIG d   1       0.960  85.926 111.289  0.00  0.00     0.119 C 
BRANCH   8   9
ATOM      9  C   LIG d   1       0.173  86.412 110.056  0.00  0.00     0.028 C 
ATOM     10  C   LIG d   1      -1.315  86.646 110.365  0.00  0.00     0.006 C 
ENDBRANCH   8   9
BRANCH   8  11
ATOM     11  C   LIG d   1       1.900  84.835 110.765  0.00  0.00     0.028 C 
ATOM     12  C   LIG d   1       3.384  85.206 110.913  0.00  0.00     0.006 C 
ENDBRANCH   8  11
ENDBRANCH   7   8
ENDBRANCH   1   7
BRANCH   6  13
ATOM     13  N   LIG d   1       1.973  84.304 114.238  0.00  0.00    -0.311 N 
ATOM     14  C   LIG d   1       2.348  85.503 114.679  0.00  0.00     0.210 C 
ATOM     15  C   LIG d   1       3.863  85.729 114.731  0.00  0.00     0.109 C 
ATOM     16  O   LIG d   1       1.571  86.390 115.062  0.00  0.00    -0.276 OA
ATOM     17  H   LIG d   1       2.671  83.634 113.978  0.00  0.00     0.149 HD
ENDBRANCH   6  13
BRANCH   5  18
ATOM     18  N   LIG d   1       0.524  82.356 116.092  0.00  0.00     0.381 N 
ATOM     19  H   LIG d   1       1.426  82.722 116.321  0.00  0.00    -0.090 HD
ATOM     20  H   LIG d   1       0.504  81.385 116.349  0.00  0.00    -0.090 HD
ATOM     21  H   LIG d   1      -0.181  82.854 116.590  0.00  0.00    -0.090 HD
ENDBRANCH   5  18
BRANCH   3  22
ATOM     22  C   LIG d   1      -2.534  81.457 112.517  0.00  0.00     0.382 C 
ATOM     23  O   LIG d   1      -3.745  81.728 112.703  0.00  0.00    -0.241 OA
ATOM     24  O   LIG d   1      -2.225  80.421 111.900  0.00  0.00    -0.241 OA
ENDBRANCH   3  22
TORSDOF 7
ENDMDL
MODEL 9
REMARK VINA RESULT:      -4.8      2.923      6.144
REMARK  7 active torsions:
REMARK  status: ('A' for Active; 'I' for Inactive)
REMARK    1  A    between atoms: C_2  and  C_3 
REMARK    2  A    between atoms: C_3  and  O_6 
REMARK    3  A    between atoms: C_3  and  C_4 
REMARK    4  A    between atoms: C_7  and  O_6 
REMARK    5  A    between atoms: C_9  and  C_10 
REMARK    6  A    between atoms: N_15  and  C_14 
REMARK    7  A    between atoms: N_20  and  C_19 
REMARK       I    between atoms: C_22  and  N_20 
ROOT
ATOM      1  C   LIG d   1       1.326  84.232 112.893  0.00  0.00     0.161 C 
ATOM      2  C   LIG d   1       1.663  85.487 112.361  0.00  0.00     0.016 C 
ATOM      3  C   LIG d   1       2.719  86.285 112.858  0.00  0.00     0.038 C 
ATOM      4  C   LIG d   1       3.613  85.811 113.829  0.00  0.00     0.028 C 
ATOM      5  C   LIG d   1       3.006  84.755 114.747  0.00  0.00    -0.047 C 
ATOM      6  C   LIG d   1       2.359  83.649 113.880  0.00  0.00     0.091 C 
ENDROOT
BRANCH   1   7
ATOM      7  O   LIG d   1       1.074  83.299 111.824  0.00  0.00    -0.368 OA
BRANCH   7   8
ATOM      8  C   LIG d   1       2.183  82.445 111.449  0.00  0.00     0.119 C 
BRANCH   8   9
ATOM      9  C   LIG d   1       2.663  82.895 110.056  0.00  0.00     0.028 C 
ATOM     10  C   LIG d   1       3.992  83.667 110.115  0.00  0.00     0.006 C 
ENDBRANCH   8   9
BRANCH   8  11
ATOM     11  C   LIG d   1       1.731  80.992 111.272  0.00  0.00     0.028 C 
ATOM     12  C   LIG d   1       0.261  80.773 111.661  0.00  0.00     0.006 C 
ENDBRANCH   8  11
ENDBRANCH   7   8
ENDBRANCH   1   7
BRANCH   6  13
ATOM     13  N   LIG d   1       1.668  82.619 114.699  0.00  0.00    -0.311 N 
ATOM     14  C   LIG d   1       2.215  81.446 115.014  0.00  0.00     0.210 C 
ATOM     15  C   LIG d   1       1.324  80.521 115.850  0.00  0.00     0.109 C 
ATOM     16  O   LIG d   1       3.365  81.096 114.709  0.00  0.00    -0.276 OA
ATOM     17  H   LIG d   1       0.743  82.833 115.015  0.00  0.00     0.149 HD
ENDBRANCH   6  13
BRANCH   5  18
ATOM     18  N   LIG d   1       4.082  84.250 115.619  0.00  0.00     0.381 N 
ATOM     19  H   LIG d   1       4.092  83.249 115.601  0.00  0.00    -0.090 HD
ATOM     20  H   LIG d   1       3.903  84.547 116.562  0.00  0.00    -0.090 HD
ATOM     21  H   LIG d   1       4.963  84.603 115.314  0.00  0.00    -0.090 HD
ENDBRANCH   5  18
BRANCH   3  22
ATOM     22  C   LIG d   1       2.865  87.589 112.409  0.00  0.00     0.382 C 
ATOM     23  O   LIG d   1       3.783  88.310 112.867  0.00  0.00    -0.241 OA
ATOM     24  O   LIG d   1       2.063  88.067 111.584  0.00  0.00    -0.241 OA
ENDBRANCH   3  22
TORSDOF 7
ENDMDL
