MODEL 1
REMARK VINA RESULT:      -5.4      0.000      0.000
REMARK  7 active torsions:
REMARK  status: ('A' for Active; 'I' for Inactive)
REMARK    1  A    between atoms: C_2  and  C_3 
REMARK    2  A    between atoms: C_3  and  O_6 
REMARK    3  A    between atoms: C_3  and  C_4 
REMARK    4  A    between atoms: C_7  and  O_6 
REMARK    5  A    between atoms: C_9  and  C_10 
REMARK    6  A    between atoms: N_15  and  C_14 
REMARK    7  A    between atoms: N_20  and  C_19 
REMARK       I    between atoms: C_22  and  N_20 
ROOT
ATOM      1  C   LIG d   1       2.558  86.507 114.376  0.00  0.00     0.161 C 
ATOM      2  C   LIG d   1       3.192  87.720 114.058  0.00  0.00     0.016 C 
ATOM      3  C   LIG d   1       4.393  88.153 114.666  0.00  0.00     0.038 C 
ATOM      4  C   LIG d   1       5.126  87.326 115.531  0.00  0.00     0.028 C 
ATOM      5  C   LIG d   1       4.266  86.304 116.265  0.00  0.00    -0.047 C 
ATOM      6  C   LIG d   1       3.402  85.542 115.235  0.00  0.00     0.091 C 
ENDROOT
BRANCH   1   7
ATOM      7  O   LIG d   1       2.122  85.852 113.168  0.00  0.00    -0.368 OA
BRANCH   7   8
ATOM      8  C   LIG d   1       2.565  86.449 111.924  0.00  0.00     0.119 C 
BRANCH   8   9
ATOM      9  C   LIG d   1       1.330  86.591 111.013  0.00  0.00     0.028 C 
ATOM     10  C   LIG d   1       0.026  86.203 111.729  0.00  0.00     0.006 C 
ENDBRANCH   8   9
BRANCH   8  11
ATOM     11  C   LIG d   1       3.521  85.520 111.170  0.00  0.00     0.028 C 
ATOM     12  C   LIG d   1       3.572  84.105 111.767  0.00  0.00     0.006 C 
ENDBRANCH   8  11
ENDBRANCH   7   8
ENDBRANCH   1   7
BRANCH   6  13
ATOM     13  N   LIG d   1       2.469  84.580 115.878  0.00  0.00    -0.311 N 
ATOM     14  C   LIG d   1       2.784  83.311 116.131  0.00  0.00     0.210 C 
ATOM     15  C   LIG d   1       1.670  82.485 116.782  0.00  0.00     0.109 C 
ATOM     16  O   LIG d   1       3.892  82.799 115.909  0.00  0.00    -0.276 OA
ATOM     17  H   LIG d   1       1.559  84.920 116.121  0.00  0.00     0.149 HD
ENDBRANCH   6  13
BRANCH   5  18
ATOM     18  N   LIG d   1       5.173  85.421 117.024  0.00  0.00     0.381 N 
ATOM     19  H   LIG d   1       6.121  85.601 116.759  0.00  0.00    -0.090 HD
ATOM     20  H   LIG d   1       4.959  84.465 116.800  0.00  0.00    -0.090 HD
ATOM     21  H   LIG d   1       5.059  85.575 118.002  0.00  0.00    -0.090 HD
ENDBRANCH   5  18
BRANCH   3  22
ATOM     22  C   LIG d   1       4.851  89.442 114.442  0.00  0.00     0.382 C 
ATOM     23  O   LIG d   1       5.372  90.094 115.378  0.00  0.00    -0.241 OA
ATOM     24  O   LIG d   1       4.709  89.978 113.326  0.00  0.00    -0.241 OA
ENDBRANCH   3  22
TORSDOF 7
ENDMDL
MODEL 2
REMARK VINA RESULT:      -5.4      2.396      3.653
REMARK  7 active torsions:
REMARK  status: ('A' for Active; 'I' for Inactive)
REMARK    1  A    between atoms: C_2  and  C_3 
REMARK    2  A    between atoms: C_3  and  O_6 
REMARK    3  A    between atoms: C_3  and  C_4 
REMARK    4  A    between atoms: C_7  and  O_6 
REMARK    5  A    between atoms: C_9  and  C_10 
REMARK    6  A    between atoms: N_15  and  C_14 
REMARK    7  A    between atoms: N_20  and  C_19 
REMARK       I    between atoms: C_22  and  N_20 
ROOT
ATOM      1  C   LIG d   1       1.536  83.486 113.250  0.00  0.00     0.161 C 
ATOM      2  C   LIG d   1       1.679  84.617 112.428  0.00  0.00     0.016 C 
ATOM      3  C   LIG d   1       2.258  85.829 112.868  0.00  0.00     0.038 C 
ATOM      4  C   LIG d   1       2.874  85.945 114.123  0.00  0.00     0.028 C 
ATOM      5  C   LIG d   1       2.305  84.990 115.167  0.00  0.00    -0.047 C 
ATOM      6  C   LIG d   1       2.302  83.557 114.587  0.00  0.00     0.091 C 
ENDROOT
BRANCH   1   7
ATOM      7  O   LIG d   1       1.910  82.301 112.520  0.00  0.00    -0.368 OA
BRANCH   7   8
ATOM      8  C   LIG d   1       1.822  82.387 111.076  0.00  0.00     0.119 C 
BRANCH   8   9
ATOM      9  C   LIG d   1       0.647  81.496 110.630  0.00  0.00     0.028 C 
ATOM     10  C   LIG d   1       1.115  80.130 110.101  0.00  0.00     0.006 C 
ENDBRANCH   8   9
BRANCH   8  11
ATOM     11  C   LIG d   1       3.063  81.789 110.406  0.00  0.00     0.028 C 
ATOM     12  C   LIG d   1       4.120  82.848 110.055  0.00  0.00     0.006 C 
ENDBRANCH   8  11
ENDBRANCH   7   8
ENDBRANCH   1   7
BRANCH   6  13
ATOM     13  N   LIG d   1       1.683  82.573 115.513  0.00  0.00    -0.311 N 
ATOM     14  C   LIG d   1       2.378  81.641 116.164  0.00  0.00     0.210 C 
ATOM     15  C   LIG d   1       1.542  80.715 117.053  0.00  0.00     0.109 C 
ATOM     16  O   LIG d   1       3.610  81.515 116.115  0.00  0.00    -0.276 OA
ATOM     17  H   LIG d   1       0.691  82.623 115.636  0.00  0.00     0.149 HD
ENDBRANCH   6  13
BRANCH   5  18
ATOM     18  N   LIG d   1       3.128  85.119 116.384  0.00  0.00     0.381 N 
ATOM     19  H   LIG d   1       3.061  84.283 116.929  0.00  0.00    -0.090 HD
ATOM     20  H   LIG d   1       2.776  85.883 116.935  0.00  0.00    -0.090 HD
ATOM     21  H   LIG d   1       4.078  85.288 116.137  0.00  0.00    -0.090 HD
ENDBRANCH   5  18
BRANCH   3  22
ATOM     22  C   LIG d   1       2.189  86.956 112.062  0.00  0.00     0.382 C 
ATOM     23  O   LIG d   1       1.975  86.834 110.832  0.00  0.00    -0.241 OA
ATOM     24  O   LIG d   1       2.381  88.089 112.542  0.00  0.00    -0.241 OA
ENDBRANCH   3  22
TORSDOF 7
ENDMDL
MODEL 3
REMARK VINA RESULT:      -5.4      3.229      5.480
REMARK  7 active torsions:
REMARK  status: ('A' for Active; 'I' for Inactive)
REMARK    1  A    between atoms: C_2  and  C_3 
REMARK    2  A    between atoms: C_3  and  O_6 
REMARK    3  A    between atoms: C_3  and  C_4 
REMARK    4  A    between atoms: C_7  and  O_6 
REMARK    5  A    between atoms: C_9  and  C_10 
REMARK    6  A    between atoms: N_15  and  C_14 
REMARK    7  A    between atoms: N_20  and  C_19 
REMARK       I    between atoms: C_22  and  N_20 
ROOT
ATOM      1  C   LIG d   1       1.813  83.730 113.422  0.00  0.00     0.161 C 
ATOM      2  C   LIG d   1       2.396  85.008 113.408  0.00  0.00     0.016 C 
ATOM      3  C   LIG d   1       2.125  85.976 112.413  0.00  0.00     0.038 C 
ATOM      4  C   LIG d   1       1.131  85.783 111.443  0.00  0.00     0.028 C 
ATOM      5  C   LIG d   1       0.879  84.315 111.117  0.00  0.00    -0.047 C 
ATOM      6  C   LIG d   1       0.642  83.542 112.434  0.00  0.00     0.091 C 
ENDROOT
BRANCH   1   7
ATOM      7  O   LIG d   1       1.397  83.397 114.761  0.00  0.00    -0.368 OA
BRANCH   7   8
ATOM      8  C   LIG d   1       2.421  83.470 115.783  0.00  0.00     0.119 C 
BRANCH   8   9
ATOM      9  C   LIG d   1       2.799  82.026 116.164  0.00  0.00     0.028 C 
ATOM     10  C   LIG d   1       1.742  81.359 117.060  0.00  0.00     0.006 C 
ENDBRANCH   8   9
BRANCH   8  11
ATOM     11  C   LIG d   1       1.880  84.100 117.070  0.00  0.00     0.028 C 
ATOM     12  C   LIG d   1       1.584  85.601 116.921  0.00  0.00     0.006 C 
ENDBRANCH   8  11
ENDBRANCH   7   8
ENDBRANCH   1   7
BRANCH   6  13
ATOM     13  N   LIG d   1       0.471  82.082 112.212  0.00  0.00    -0.311 N 
ATOM     14  C   LIG d   1      -0.716  81.499 112.059  0.00  0.00     0.210 C 
ATOM     15  C   LIG d   1      -0.669  79.980 111.862  0.00  0.00     0.109 C 
ATOM     16  O   LIG d   1      -1.802  82.098 112.036  0.00  0.00    -0.276 OA
ATOM     17  H   LIG d   1       1.302  81.525 112.186  0.00  0.00     0.149 HD
ENDBRANCH   6  13
BRANCH   5  18
ATOM     18  N   LIG d   1      -0.272  84.254 110.196  0.00  0.00     0.381 N 
ATOM     19  H   LIG d   1      -1.125  84.324 110.715  0.00  0.00    -0.090 HD
ATOM     20  H   LIG d   1      -0.263  83.368 109.722  0.00  0.00    -0.090 HD
ATOM     21  H   LIG d   1      -0.218  84.995 109.532  0.00  0.00    -0.090 HD
ENDBRANCH   5  18
BRANCH   3  22
ATOM     22  C   LIG d   1       2.882  87.136 112.360  0.00  0.00     0.382 C 
ATOM     23  O   LIG d   1       4.058  87.098 111.926  0.00  0.00    -0.241 OA
ATOM     24  O   LIG d   1       2.418  88.213 112.781  0.00  0.00    -0.241 OA
ENDBRANCH   3  22
TORSDOF 7
ENDMDL
MODEL 4
REMARK VINA RESULT:      -5.1      9.442     11.282
REMARK  7 active torsions:
REMARK  status: ('A' for Active; 'I' for Inactive)
REMARK    1  A    between atoms: C_2  and  C_3 
REMARK    2  A    between atoms: C_3  and  O_6 
REMARK    3  A    between atoms: C_3  and  C_4 
REMARK    4  A    between atoms: C_7  and  O_6 
REMARK    5  A    between atoms: C_9  and  C_10 
REMARK    6  A    between atoms: N_15  and  C_14 
REMARK    7  A    between atoms: N_20  and  C_19 
REMARK       I    between atoms: C_22  and  N_20 
ROOT
ATOM      1  C   LIG d   1      -2.416  77.962 116.048  0.00  0.00     0.161 C 
ATOM      2  C   LIG d   1      -2.739  78.832 114.993  0.00  0.00     0.016 C 
ATOM      3  C   LIG d   1      -2.226  78.691 113.684  0.00  0.00     0.038 C 
ATOM      4  C   LIG d   1      -1.469  77.574 113.300  0.00  0.00     0.028 C 
ATOM      5  C   LIG d   1      -0.702  76.937 114.454  0.00  0.00    -0.047 C 
ATOM      6  C   LIG d   1      -1.680  76.675 115.622  0.00  0.00     0.091 C 
ENDROOT
BRANCH   1   7
ATOM      7  O   LIG d   1      -3.605  77.636 116.794  0.00  0.00    -0.368 OA
BRANCH   7   8
ATOM      8  C   LIG d   1      -4.809  77.426 116.015  0.00  0.00     0.119 C 
BRANCH   8   9
ATOM      9  C   LIG d   1      -5.984  78.032 116.806  0.00  0.00     0.028 C 
ATOM     10  C   LIG d   1      -5.656  79.425 117.370  0.00  0.00     0.006 C 
ENDBRANCH   8   9
BRANCH   8  11
ATOM     11  C   LIG d   1      -5.134  75.935 115.885  0.00  0.00     0.028 C 
ATOM     12  C   LIG d   1      -5.310  75.489 114.424  0.00  0.00     0.006 C 
ENDBRANCH   8  11
ENDBRANCH   7   8
ENDBRANCH   1   7
BRANCH   6  13
ATOM     13  N   LIG d   1      -0.995  76.130 116.824  0.00  0.00    -0.311 N 
ATOM     14  C   LIG d   1      -0.713  74.838 116.984  0.00  0.00     0.210 C 
ATOM     15  C   LIG d   1      -0.022  74.487 118.305  0.00  0.00     0.109 C 
ATOM     16  O   LIG d   1      -0.941  73.955 116.144  0.00  0.00    -0.276 OA
ATOM     17  H   LIG d   1      -0.746  76.782 117.542  0.00  0.00     0.149 HD
ENDBRANCH   6  13
BRANCH   5  18
ATOM     18  N   LIG d   1      -0.068  75.707 113.943  0.00  0.00     0.381 N 
ATOM     19  H   LIG d   1       0.471  75.278 114.668  0.00  0.00    -0.090 HD
ATOM     20  H   LIG d   1       0.551  75.949 113.191  0.00  0.00    -0.090 HD
ATOM     21  H   LIG d   1      -0.766  75.074 113.619  0.00  0.00    -0.090 HD
ENDBRANCH   5  18
BRANCH   3  22
ATOM     22  C   LIG d   1      -2.437  79.695 112.751  0.00  0.00     0.382 C 
ATOM     23  O   LIG d   1      -1.900  79.623 111.619  0.00  0.00    -0.241 OA
ATOM     24  O   LIG d   1      -3.121  80.694 113.042  0.00  0.00    -0.241 OA
ENDBRANCH   3  22
TORSDOF 7
ENDMDL
MODEL 5
REMARK VINA RESULT:      -4.8      1.576      4.788
REMARK  7 active torsions:
REMARK  status: ('A' for Active; 'I' for Inactive)
REMARK    1  A    between atoms: C_2  and  C_3 
REMARK    2  A    between atoms: C_3  and  O_6 
REMARK    3  A    between atoms: C_3  and  C_4 
REMARK    4  A    between atoms: C_7  and  O_6 
REMARK    5  A    between atoms: C_9  and  C_10 
REMARK    6  A    between atoms: N_15  and  C_14 
REMARK    7  A    between atoms: N_20  and  C_19 
REMARK       I    between atoms: C_22  and  N_20 
ROOT
ATOM      1  C   LIG d   1       2.893  84.897 113.774  0.00  0.00     0.161 C 
ATOM      2  C   LIG d   1       2.503  83.625 114.224  0.00  0.00     0.016 C 
ATOM      3  C   LIG d   1       2.559  83.230 115.581  0.00  0.00     0.038 C 
ATOM      4  C   LIG d   1       2.868  84.136 116.605  0.00  0.00     0.028 C 
ATOM      5  C   LIG d   1       3.755  85.289 116.147  0.00  0.00    -0.047 C 
ATOM      6  C   LIG d   1       3.128  85.936 114.891  0.00  0.00     0.091 C 
ENDROOT
BRANCH   1   7
ATOM      7  O   LIG d   1       1.932  85.394 112.821  0.00  0.00    -0.368 OA
BRANCH   7   8
ATOM      8  C   LIG d   1       2.476  86.055 111.652  0.00  0.00     0.119 C 
BRANCH   8   9
ATOM      9  C   LIG d   1       1.382  86.049 110.567  0.00  0.00     0.028 C 
ATOM     10  C   LIG d   1       0.033  86.568 111.090  0.00  0.00     0.006 C 
ENDBRANCH   8   9
BRANCH   8  11
ATOM     11  C   LIG d   1       3.643  85.263 111.057  0.00  0.00     0.028 C 
ATOM     12  C   LIG d   1       3.182  84.141 110.113  0.00  0.00     0.006 C 
ENDBRANCH   8  11
ENDBRANCH   7   8
ENDBRANCH   1   7
BRANCH   6  13
ATOM     13  N   LIG d   1       3.976  87.019 114.327  0.00  0.00    -0.311 N 
ATOM     14  C   LIG d   1       3.758  88.313 114.554  0.00  0.00     0.210 C 
ATOM     15  C   LIG d   1       4.739  89.264 113.861  0.00  0.00     0.109 C 
ATOM     16  O   LIG d   1       2.866  88.762 115.289  0.00  0.00    -0.276 OA
ATOM     17  H   LIG d   1       4.741  86.742 113.745  0.00  0.00     0.149 HD
ENDBRANCH   6  13
BRANCH   5  18
ATOM     18  N   LIG d   1       3.884  86.229 117.277  0.00  0.00     0.381 N 
ATOM     19  H   LIG d   1       3.653  87.154 116.976  0.00  0.00    -0.090 HD
ATOM     20  H   LIG d   1       4.838  86.228 117.592  0.00  0.00    -0.090 HD
ATOM     21  H   LIG d   1       3.281  85.953 118.021  0.00  0.00    -0.090 HD
ENDBRANCH   5  18
BRANCH   3  22
ATOM     22  C   LIG d   1       2.342  81.903 115.919  0.00  0.00     0.382 C 
ATOM     23  O   LIG d   1       3.212  81.038 115.655  0.00  0.00    -0.241 OA
ATOM     24  O   LIG d   1       1.268  81.552 116.444  0.00  0.00    -0.241 OA
ENDBRANCH   3  22
TORSDOF 7
ENDMDL
MODEL 6
REMARK VINA RESULT:      -4.8     11.941     14.093
REMARK  7 active torsions:
REMARK  status: ('A' for Active; 'I' for Inactive)
REMARK    1  A    between atoms: C_2  and  C_3 
REMARK    2  A    between atoms: C_3  and  O_6 
REMARK    3  A    between atoms: C_3  and  C_4 
REMARK    4  A    between atoms: C_7  and  O_6 
REMARK    5  A    between atoms: C_9  and  C_10 
REMARK    6  A    between atoms: N_15  and  C_14 
REMARK    7  A    between atoms: N_20  and  C_19 
REMARK       I    between atoms: C_22  and  N_20 
ROOT
ATOM      1  C   LIG d   1      11.938  76.131 114.435  0.00  0.00     0.161 C 
ATOM      2  C   LIG d   1      10.578  76.483 114.447  0.00  0.00     0.016 C 
ATOM      3  C   LIG d   1      10.101  77.757 114.063  0.00  0.00     0.038 C 
ATOM      4  C   LIG d   1      10.943  78.724 113.493  0.00  0.00     0.028 C 
ATOM      5  C   LIG d   1      12.397  78.594 113.931  0.00  0.00    -0.047 C 
ATOM      6  C   LIG d   1      12.860  77.135 113.711  0.00  0.00     0.091 C 
ENDROOT
BRANCH   1   7
ATOM      7  O   LIG d   1      12.097  74.812 113.875  0.00  0.00    -0.368 OA
BRANCH   7   8
ATOM      8  C   LIG d   1      12.052  73.711 114.816  0.00  0.00     0.119 C 
BRANCH   8   9
ATOM      9  C   LIG d   1      13.244  73.876 115.779  0.00  0.00     0.028 C 
ATOM     10  C   LIG d   1      12.804  73.953 117.250  0.00  0.00     0.006 C 
ENDBRANCH   8   9
BRANCH   8  11
ATOM     11  C   LIG d   1      12.280  72.369 114.114  0.00  0.00     0.028 C 
ATOM     12  C   LIG d   1      13.481  72.394 113.155  0.00  0.00     0.006 C 
ENDBRANCH   8  11
ENDBRANCH   7   8
ENDBRANCH   1   7
BRANCH   6  13
ATOM     13  N   LIG d   1      14.246  76.901 114.192  0.00  0.00    -0.311 N 
ATOM     14  C   LIG d   1      15.321  77.014 113.413  0.00  0.00     0.210 C 
ATOM     15  C   LIG d   1      16.654  76.710 114.104  0.00  0.00     0.109 C 
ATOM     16  O   LIG d   1      15.300  77.369 112.225  0.00  0.00    -0.276 OA
ATOM     17  H   LIG d   1      14.358  76.639 115.152  0.00  0.00     0.149 HD
ENDBRANCH   6  13
BRANCH   5  18
ATOM     18  N   LIG d   1      13.185  79.573 113.157  0.00  0.00     0.381 N 
ATOM     19  H   LIG d   1      13.472  80.323 113.754  0.00  0.00    -0.090 HD
ATOM     20  H   LIG d   1      12.606  79.952 112.429  0.00  0.00    -0.090 HD
ATOM     21  H   LIG d   1      13.984  79.130 112.761  0.00  0.00    -0.090 HD
ENDBRANCH   5  18
BRANCH   3  22
ATOM     22  C   LIG d   1       8.773  78.089 114.286  0.00  0.00     0.382 C 
ATOM     23  O   LIG d   1       8.483  79.170 114.853  0.00  0.00    -0.241 OA
ATOM     24  O   LIG d   1       7.863  77.301 113.966  0.00  0.00    -0.241 OA
ENDBRANCH   3  22
TORSDOF 7
ENDMDL
MODEL 7
REMARK VINA RESULT:      -4.8     11.570     13.541
REMARK  7 active torsions:
REMARK  status: ('A' for Active; 'I' for Inactive)
REMARK    1  A    between atoms: C_2  and  C_3 
REMARK    2  A    between atoms: C_3  and  O_6 
REMARK    3  A    between atoms: C_3  and  C_4 
REMARK    4  A    between atoms: C_7  and  O_6 
REMARK    5  A    between atoms: C_9  and  C_10 
REMARK    6  A    between atoms: N_15  and  C_14 
REMARK    7  A    between atoms: N_20  and  C_19 
REMARK       I    between atoms: C_22  and  N_20 
ROOT
ATOM      1  C   LIG d   1      12.324  77.739 113.682  0.00  0.00     0.161 C 
ATOM      2  C   LIG d   1      10.984  78.151 113.766  0.00  0.00     0.016 C 
ATOM      3  C   LIG d   1       9.970  77.382 114.382  0.00  0.00     0.038 C 
ATOM      4  C   LIG d   1      10.260  76.208 115.093  0.00  0.00     0.028 C 
ATOM      5  C   LIG d   1      11.516  75.496 114.603  0.00  0.00    -0.047 C 
ATOM      6  C   LIG d   1      12.679  76.513 114.549  0.00  0.00     0.091 C 
ENDROOT
BRANCH   1   7
ATOM      7  O   LIG d   1      13.196  78.843 113.994  0.00  0.00    -0.368 OA
BRANCH   7   8
ATOM      8  C   LIG d   1      13.878  79.454 112.871  0.00  0.00     0.119 C 
BRANCH   8   9
ATOM      9  C   LIG d   1      13.860  78.440 111.711  0.00  0.00     0.028 C 
ATOM     10  C   LIG d   1      15.274  77.998 111.296  0.00  0.00     0.006 C 
ENDBRANCH   8   9
BRANCH   8  11
ATOM     11  C   LIG d   1      15.360  79.690 113.181  0.00  0.00     0.028 C 
ATOM     12  C   LIG d   1      15.639  81.103 113.718  0.00  0.00     0.006 C 
ENDBRANCH   8  11
ENDBRANCH   7   8
ENDBRANCH   1   7
BRANCH   6  13
ATOM     13  N   LIG d   1      13.926  75.919 113.999  0.00  0.00    -0.311 N 
ATOM     14  C   LIG d   1      15.123  76.077 114.561  0.00  0.00     0.210 C 
ATOM     15  C   LIG d   1      16.280  75.397 113.821  0.00  0.00     0.109 C 
ATOM     16  O   LIG d   1      15.332  76.688 115.620  0.00  0.00    -0.276 OA
ATOM     17  H   LIG d   1      13.843  75.381 113.159  0.00  0.00     0.149 HD
ENDBRANCH   6  13
BRANCH   5  18
ATOM     18  N   LIG d   1      11.776  74.369 115.517  0.00  0.00     0.381 N 
ATOM     19  H   LIG d   1      11.264  73.563 115.216  0.00  0.00    -0.090 HD
ATOM     20  H   LIG d   1      11.458  74.617 116.438  0.00  0.00    -0.090 HD
ATOM     21  H   LIG d   1      12.750  74.164 115.538  0.00  0.00    -0.090 HD
ENDBRANCH   5  18
BRANCH   3  22
ATOM     22  C   LIG d   1       8.644  77.765 114.256  0.00  0.00     0.382 C 
ATOM     23  O   LIG d   1       7.791  76.944 113.840  0.00  0.00    -0.241 OA
ATOM     24  O   LIG d   1       8.297  78.934 114.510  0.00  0.00    -0.241 OA
ENDBRANCH   3  22
TORSDOF 7
ENDMDL
MODEL 8
REMARK VINA RESULT:      -4.5      3.669      5.619
REMARK  7 active torsions:
REMARK  status: ('A' for Active; 'I' for Inactive)
REMARK    1  A    between atoms: C_2  and  C_3 
REMARK    2  A    between atoms: C_3  and  O_6 
REMARK    3  A    between atoms: C_3  and  C_4 
REMARK    4  A    between atoms: C_7  and  O_6 
REMARK    5  A    between atoms: C_9  and  C_10 
REMARK    6  A    between atoms: N_15  and  C_14 
REMARK    7  A    between atoms: N_20  and  C_19 
REMARK       I    between atoms: C_22  and  N_20 
ROOT
ATOM      1  C   LIG d   1       1.614  83.104 113.392  0.00  0.00     0.161 C 
ATOM      2  C   LIG d   1       2.168  82.289 114.393  0.00  0.00     0.016 C 
ATOM      3  C   LIG d   1       2.463  82.750 115.696  0.00  0.00     0.038 C 
ATOM      4  C   LIG d   1       2.082  84.027 116.136  0.00  0.00     0.028 C 
ATOM      5  C   LIG d   1       1.978  85.049 115.009  0.00  0.00    -0.047 C 
ATOM      6  C   LIG d   1       1.089  84.469 113.885  0.00  0.00     0.091 C 
ENDROOT
BRANCH   1   7
ATOM      7  O   LIG d   1       0.573  82.388 112.699  0.00  0.00    -0.368 OA
BRANCH   7   8
ATOM      8  C   LIG d   1       0.768  82.198 111.276  0.00  0.00     0.119 C 
BRANCH   8   9
ATOM      9  C   LIG d   1       0.509  80.711 110.967  0.00  0.00     0.028 C 
ATOM     10  C   LIG d   1      -0.459  80.063 111.971  0.00  0.00     0.006 C 
ENDBRANCH   8   9
BRANCH   8  11
ATOM     11  C   LIG d   1       2.224  82.448 110.875  0.00  0.00     0.028 C 
ATOM     12  C   LIG d   1       2.937  81.175 110.393  0.00  0.00     0.006 C 
ENDBRANCH   8  11
ENDBRANCH   7   8
ENDBRANCH   1   7
BRANCH   6  13
ATOM     13  N   LIG d   1       1.003  85.371 112.707  0.00  0.00    -0.311 N 
ATOM     14  C   LIG d   1      -0.143  85.874 112.252  0.00  0.00     0.210 C 
ATOM     15  C   LIG d   1      -0.010  86.766 111.013  0.00  0.00     0.109 C 
ATOM     16  O   LIG d   1      -1.253  85.693 112.775  0.00  0.00    -0.276 OA
ATOM     17  H   LIG d   1       1.860  85.595 112.241  0.00  0.00     0.149 HD
ENDBRANCH   6  13
BRANCH   5  18
ATOM     18  N   LIG d   1       1.441  86.296 115.586  0.00  0.00     0.381 N 
ATOM     19  H   LIG d   1       1.745  87.079 115.043  0.00  0.00    -0.090 HD
ATOM     20  H   LIG d   1       1.798  86.402 116.519  0.00  0.00    -0.090 HD
ATOM     21  H   LIG d   1       0.445  86.261 115.605  0.00  0.00    -0.090 HD
ENDBRANCH   5  18
BRANCH   3  22
ATOM     22  C   LIG d   1       3.184  81.943 116.564  0.00  0.00     0.382 C 
ATOM     23  O   LIG d   1       3.518  82.377 117.693  0.00  0.00    -0.241 OA
ATOM     24  O   LIG d   1       3.542  80.802 116.215  0.00  0.00    -0.241 OA
ENDBRANCH   3  22
TORSDOF 7
ENDMDL
MODEL 9
REMARK VINA RESULT:      -4.5      8.490     11.323
REMARK  7 active torsions:
REMARK  status: ('A' for Active; 'I' for Inactive)
REMARK    1  A    between atoms: C_2  and  C_3 
REMARK    2  A    between atoms: C_3  and  O_6 
REMARK    3  A    between atoms: C_3  and  C_4 
REMARK    4  A    between atoms: C_7  and  O_6 
REMARK    5  A    between atoms: C_9  and  C_10 
REMARK    6  A    between atoms: N_15  and  C_14 
REMARK    7  A    between atoms: N_20  and  C_19 
REMARK       I    between atoms: C_22  and  N_20 
ROOT
ATOM      1  C   LIG d   1      -1.818  77.121 114.975  0.00  0.00     0.161 C 
ATOM      2  C   LIG d   1      -0.610  77.765 115.291  0.00  0.00     0.016 C 
ATOM      3  C   LIG d   1      -0.444  78.595 116.424  0.00  0.00     0.038 C 
ATOM      4  C   LIG d   1      -1.437  78.716 117.406  0.00  0.00     0.028 C 
ATOM      5  C   LIG d   1      -2.848  78.488 116.873  0.00  0.00    -0.047 C 
ATOM      6  C   LIG d   1      -2.880  77.153 116.094  0.00  0.00     0.091 C 
ENDROOT
BRANCH   1   7
ATOM      7  O   LIG d   1      -1.556  75.763 114.571  0.00  0.00    -0.368 OA
BRANCH   7   8
ATOM      8  C   LIG d   1      -0.294  75.200 115.007  0.00  0.00     0.119 C 
BRANCH   8   9
ATOM      9  C   LIG d   1       0.380  74.565 113.775  0.00  0.00     0.028 C 
ATOM     10  C   LIG d   1       0.197  73.039 113.727  0.00  0.00     0.006 C 
ENDBRANCH   8   9
BRANCH   8  11
ATOM     11  C   LIG d   1      -0.510  74.046 115.991  0.00  0.00     0.028 C 
ATOM     12  C   LIG d   1      -0.662  74.523 117.444  0.00  0.00     0.006 C 
ENDBRANCH   8  11
ENDBRANCH   7   8
ENDBRANCH   1   7
BRANCH   6  13
ATOM     13  N   LIG d   1      -4.202  76.893 115.467  0.00  0.00    -0.311 N 
ATOM     14  C   LIG d   1      -5.164  76.181 116.052  0.00  0.00     0.210 C 
ATOM     15  C   LIG d   1      -6.442  76.018 115.224  0.00  0.00     0.109 C 
ATOM     16  O   LIG d   1      -5.092  75.697 117.191  0.00  0.00    -0.276 OA
ATOM     17  H   LIG d   1      -4.357  77.276 114.555  0.00  0.00     0.149 HD
ENDBRANCH   6  13
BRANCH   5  18
ATOM     18  N   LIG d   1      -3.769  78.507 118.025  0.00  0.00     0.381 N 
ATOM     19  H   LIG d   1      -3.747  79.408 118.460  0.00  0.00    -0.090 HD
ATOM     20  H   LIG d   1      -3.464  77.825 118.696  0.00  0.00    -0.090 HD
ATOM     21  H   LIG d   1      -4.695  78.298 117.724  0.00  0.00    -0.090 HD
ENDBRANCH   5  18
BRANCH   3  22
ATOM     22  C   LIG d   1       0.714  79.345 116.561  0.00  0.00     0.382 C 
ATOM     23  O   LIG d   1       1.084  80.103 115.632  0.00  0.00    -0.241 OA
ATOM     24  O   LIG d   1       1.416  79.241 117.585  0.00  0.00    -0.241 OA
ENDBRANCH   3  22
TORSDOF 7
ENDMDL
