MODEL 1
REMARK VINA RESULT:      -5.9      0.000      0.000
REMARK  7 active torsions:
REMARK  status: ('A' for Active; 'I' for Inactive)
REMARK    1  A    between atoms: C_2  and  C_3 
REMARK    2  A    between atoms: C_3  and  O_6 
REMARK    3  A    between atoms: C_3  and  C_4 
REMARK    4  A    between atoms: C_7  and  O_6 
REMARK    5  A    between atoms: C_9  and  C_10 
REMARK    6  A    between atoms: N_15  and  C_14 
REMARK    7  A    between atoms: N_20  and  C_19 
REMARK       I    between atoms: C_22  and  N_20 
ROOT
ATOM      1  C   LIG d   1      -3.007  76.820 115.269  0.00  0.00     0.161 C 
ATOM      2  C   LIG d   1      -3.144  77.808 114.280  0.00  0.00     0.016 C 
ATOM      3  C   LIG d   1      -2.075  78.244 113.463  0.00  0.00     0.038 C 
ATOM      4  C   LIG d   1      -0.824  77.610 113.478  0.00  0.00     0.028 C 
ATOM      5  C   LIG d   1      -0.497  76.947 114.812  0.00  0.00    -0.047 C 
ATOM      6  C   LIG d   1      -1.678  76.038 115.224  0.00  0.00     0.091 C 
ENDROOT
BRANCH   1   7
ATOM      7  O   LIG d   1      -4.125  75.911 115.209  0.00  0.00    -0.368 OA
BRANCH   7   8
ATOM      8  C   LIG d   1      -5.441  76.517 115.225  0.00  0.00     0.119 C 
BRANCH   8   9
ATOM      9  C   LIG d   1      -5.782  76.843 116.692  0.00  0.00     0.028 C 
ATOM     10  C   LIG d   1      -6.079  78.337 116.907  0.00  0.00     0.006 C 
ENDBRANCH   8   9
BRANCH   8  11
ATOM     11  C   LIG d   1      -6.516  75.526 114.770  0.00  0.00     0.028 C 
ATOM     12  C   LIG d   1      -7.160  74.766 115.940  0.00  0.00     0.006 C 
ENDBRANCH   8  11
ENDBRANCH   7   8
ENDBRANCH   1   7
BRANCH   6  13
ATOM     13  N   LIG d   1      -1.476  75.416 116.558  0.00  0.00    -0.311 N 
ATOM     14  C   LIG d   1      -0.916  74.220 116.733  0.00  0.00     0.210 C 
ATOM     15  C   LIG d   1      -0.821  73.757 118.190  0.00  0.00     0.109 C 
ATOM     16  O   LIG d   1      -0.460  73.513 115.822  0.00  0.00    -0.276 OA
ATOM     17  H   LIG d   1      -1.789  75.935 117.355  0.00  0.00     0.149 HD
ENDBRANCH   6  13
BRANCH   5  18
ATOM     18  N   LIG d   1       0.769  76.208 114.644  0.00  0.00     0.381 N 
ATOM     19  H   LIG d   1       0.768  75.396 115.227  0.00  0.00    -0.090 HD
ATOM     20  H   LIG d   1       1.531  76.800 114.928  0.00  0.00    -0.090 HD
ATOM     21  H   LIG d   1       0.885  75.941 113.691  0.00  0.00    -0.090 HD
ENDBRANCH   5  18
BRANCH   3  22
ATOM     22  C   LIG d   1      -2.242  79.353 112.648  0.00  0.00     0.382 C 
ATOM     23  O   LIG d   1      -3.121  80.205 112.920  0.00  0.00    -0.241 OA
ATOM     24  O   LIG d   1      -1.553  79.490 111.619  0.00  0.00    -0.241 OA
ENDBRANCH   3  22
TORSDOF 7
ENDMDL
MODEL 2
REMARK VINA RESULT:      -5.9      2.361      3.942
REMARK  7 active torsions:
REMARK  status: ('A' for Active; 'I' for Inactive)
REMARK    1  A    between atoms: C_2  and  C_3 
REMARK    2  A    between atoms: C_3  and  O_6 
REMARK    3  A    between atoms: C_3  and  C_4 
REMARK    4  A    between atoms: C_7  and  O_6 
REMARK    5  A    between atoms: C_9  and  C_10 
REMARK    6  A    between atoms: N_15  and  C_14 
REMARK    7  A    between atoms: N_20  and  C_19 
REMARK       I    between atoms: C_22  and  N_20 
ROOT
ATOM      1  C   LIG d   1      -1.283  77.818 113.687  0.00  0.00     0.161 C 
ATOM      2  C   LIG d   1      -1.900  79.079 113.627  0.00  0.00     0.016 C 
ATOM      3  C   LIG d   1      -1.757  79.963 112.534  0.00  0.00     0.038 C 
ATOM      4  C   LIG d   1      -1.106  79.582 111.351  0.00  0.00     0.028 C 
ATOM      5  C   LIG d   1      -0.041  78.512 111.565  0.00  0.00    -0.047 C 
ATOM      6  C   LIG d   1      -0.660  77.339 112.359  0.00  0.00     0.091 C 
ENDROOT
BRANCH   1   7
ATOM      7  O   LIG d   1      -2.218  76.840 114.184  0.00  0.00    -0.368 OA
BRANCH   7   8
ATOM      8  C   LIG d   1      -1.930  76.289 115.493  0.00  0.00     0.119 C 
BRANCH   8   9
ATOM      9  C   LIG d   1      -1.709  74.774 115.320  0.00  0.00     0.028 C 
ATOM     10  C   LIG d   1      -0.614  74.230 116.253  0.00  0.00     0.006 C 
ENDBRANCH   8   9
BRANCH   8  11
ATOM     11  C   LIG d   1      -3.135  76.419 116.429  0.00  0.00     0.028 C 
ATOM     12  C   LIG d   1      -4.459  76.613 115.673  0.00  0.00     0.006 C 
ENDBRANCH   8  11
ENDBRANCH   7   8
ENDBRANCH   1   7
BRANCH   6  13
ATOM     13  N   LIG d   1       0.337  76.286 112.684  0.00  0.00    -0.311 N 
ATOM     14  C   LIG d   1       0.611  75.262 111.878  0.00  0.00     0.210 C 
ATOM     15  C   LIG d   1       1.657  74.279 112.414  0.00  0.00     0.109 C 
ATOM     16  O   LIG d   1       0.110  75.091 110.757  0.00  0.00    -0.276 OA
ATOM     17  H   LIG d   1       0.814  76.364 113.562  0.00  0.00     0.149 HD
ENDBRANCH   6  13
BRANCH   5  18
ATOM     18  N   LIG d   1       0.459  78.110 110.237  0.00  0.00     0.381 N 
ATOM     19  H   LIG d   1       1.323  78.577 110.044  0.00  0.00    -0.090 HD
ATOM     20  H   LIG d   1      -0.210  78.385 109.540  0.00  0.00    -0.090 HD
ATOM     21  H   LIG d   1       0.594  77.123 110.207  0.00  0.00    -0.090 HD
ENDBRANCH   5  18
BRANCH   3  22
ATOM     22  C   LIG d   1      -2.236  81.261 112.633  0.00  0.00     0.382 C 
ATOM     23  O   LIG d   1      -3.386  81.472 113.090  0.00  0.00    -0.241 OA
ATOM     24  O   LIG d   1      -1.551  82.220 112.230  0.00  0.00    -0.241 OA
ENDBRANCH   3  22
TORSDOF 7
ENDMDL
MODEL 3
REMARK VINA RESULT:      -5.2      2.308      5.014
REMARK  7 active torsions:
REMARK  status: ('A' for Active; 'I' for Inactive)
REMARK    1  A    between atoms: C_2  and  C_3 
REMARK    2  A    between atoms: C_3  and  O_6 
REMARK    3  A    between atoms: C_3  and  C_4 
REMARK    4  A    between atoms: C_7  and  O_6 
REMARK    5  A    between atoms: C_9  and  C_10 
REMARK    6  A    between atoms: N_15  and  C_14 
REMARK    7  A    between atoms: N_20  and  C_19 
REMARK       I    between atoms: C_22  and  N_20 
ROOT
ATOM      1  C   LIG d   1      -2.912  78.120 115.275  0.00  0.00     0.161 C 
ATOM      2  C   LIG d   1      -1.603  78.397 115.701  0.00  0.00     0.016 C 
ATOM      3  C   LIG d   1      -0.760  77.434 116.303  0.00  0.00     0.038 C 
ATOM      4  C   LIG d   1      -1.119  76.081 116.381  0.00  0.00     0.028 C 
ATOM      5  C   LIG d   1      -2.627  75.855 116.422  0.00  0.00    -0.047 C 
ATOM      6  C   LIG d   1      -3.281  76.622 115.250  0.00  0.00     0.091 C 
ENDROOT
BRANCH   1   7
ATOM      7  O   LIG d   1      -3.140  78.714 113.981  0.00  0.00    -0.368 OA
BRANCH   7   8
ATOM      8  C   LIG d   1      -2.029  78.666 113.053  0.00  0.00     0.119 C 
BRANCH   8   9
ATOM      9  C   LIG d   1      -1.566  80.116 112.810  0.00  0.00     0.028 C 
ATOM     10  C   LIG d   1      -2.700  81.135 113.009  0.00  0.00     0.006 C 
ENDBRANCH   8   9
BRANCH   8  11
ATOM     11  C   LIG d   1      -2.469  78.146 111.682  0.00  0.00     0.028 C 
ATOM     12  C   LIG d   1      -1.303  78.020 110.689  0.00  0.00     0.006 C 
ENDBRANCH   8  11
ENDBRANCH   7   8
ENDBRANCH   1   7
BRANCH   6  13
ATOM     13  N   LIG d   1      -4.764  76.524 115.266  0.00  0.00    -0.311 N 
ATOM     14  C   LIG d   1      -5.446  75.618 114.567  0.00  0.00     0.210 C 
ATOM     15  C   LIG d   1      -6.969  75.704 114.710  0.00  0.00     0.109 C 
ATOM     16  O   LIG d   1      -4.933  74.731 113.868  0.00  0.00    -0.276 OA
ATOM     17  H   LIG d   1      -5.259  77.185 115.832  0.00  0.00     0.149 HD
ENDBRANCH   6  13
BRANCH   5  18
ATOM     18  N   LIG d   1      -2.862  74.400 116.363  0.00  0.00     0.381 N 
ATOM     19  H   LIG d   1      -2.268  73.989 115.670  0.00  0.00    -0.090 HD
ATOM     20  H   LIG d   1      -3.817  74.235 116.097  0.00  0.00    -0.090 HD
ATOM     21  H   LIG d   1      -2.681  73.989 117.252  0.00  0.00    -0.090 HD
ENDBRANCH   5  18
BRANCH   3  22
ATOM     22  C   LIG d   1       0.441  77.831 116.870  0.00  0.00     0.382 C 
ATOM     23  O   LIG d   1       1.212  76.975 117.368  0.00  0.00    -0.241 OA
ATOM     24  O   LIG d   1       0.744  79.038 116.930  0.00  0.00    -0.241 OA
ENDBRANCH   3  22
TORSDOF 7
ENDMDL
MODEL 4
REMARK VINA RESULT:      -4.9      2.097      4.661
REMARK  7 active torsions:
REMARK  status: ('A' for Active; 'I' for Inactive)
REMARK    1  A    between atoms: C_2  and  C_3 
REMARK    2  A    between atoms: C_3  and  O_6 
REMARK    3  A    between atoms: C_3  and  C_4 
REMARK    4  A    between atoms: C_7  and  O_6 
REMARK    5  A    between atoms: C_9  and  C_10 
REMARK    6  A    between atoms: N_15  and  C_14 
REMARK    7  A    between atoms: N_20  and  C_19 
REMARK       I    between atoms: C_22  and  N_20 
ROOT
ATOM      1  C   LIG d   1      -3.354  76.636 114.597  0.00  0.00     0.161 C 
ATOM      2  C   LIG d   1      -2.689  77.741 114.039  0.00  0.00     0.016 C 
ATOM      3  C   LIG d   1      -2.698  79.029 114.621  0.00  0.00     0.038 C 
ATOM      4  C   LIG d   1      -3.249  79.266 115.889  0.00  0.00     0.028 C 
ATOM      5  C   LIG d   1      -4.367  78.295 116.255  0.00  0.00    -0.047 C 
ATOM      6  C   LIG d   1      -3.867  76.849 116.036  0.00  0.00     0.091 C 
ENDROOT
BRANCH   1   7
ATOM      7  O   LIG d   1      -2.504  75.473 114.535  0.00  0.00    -0.368 OA
BRANCH   7   8
ATOM      8  C   LIG d   1      -1.303  75.517 115.344  0.00  0.00     0.119 C 
BRANCH   8   9
ATOM      9  C   LIG d   1      -0.107  75.250 114.411  0.00  0.00     0.028 C 
ATOM     10  C   LIG d   1       0.002  73.771 114.004  0.00  0.00     0.006 C 
ENDBRANCH   8   9
BRANCH   8  11
ATOM     11  C   LIG d   1      -1.280  74.379 116.369  0.00  0.00     0.028 C 
ATOM     12  C   LIG d   1      -0.361  74.675 117.566  0.00  0.00     0.006 C 
ENDBRANCH   8  11
ENDBRANCH   7   8
ENDBRANCH   1   7
BRANCH   6  13
ATOM     13  N   LIG d   1      -4.927  75.839 116.290  0.00  0.00    -0.311 N 
ATOM     14  C   LIG d   1      -6.038  75.743 115.562  0.00  0.00     0.210 C 
ATOM     15  C   LIG d   1      -7.009  74.644 116.006  0.00  0.00     0.109 C 
ATOM     16  O   LIG d   1      -6.296  76.442 114.571  0.00  0.00    -0.276 OA
ATOM     17  H   LIG d   1      -4.784  75.210 117.057  0.00  0.00     0.149 HD
ENDBRANCH   6  13
BRANCH   5  18
ATOM     18  N   LIG d   1      -4.755  78.568 117.651  0.00  0.00     0.381 N 
ATOM     19  H   LIG d   1      -5.542  78.003 117.901  0.00  0.00    -0.090 HD
ATOM     20  H   LIG d   1      -5.023  79.534 117.732  0.00  0.00    -0.090 HD
ATOM     21  H   LIG d   1      -3.992  78.376 118.261  0.00  0.00    -0.090 HD
ENDBRANCH   5  18
BRANCH   3  22
ATOM     22  C   LIG d   1      -2.184  80.106 113.914  0.00  0.00     0.382 C 
ATOM     23  O   LIG d   1      -2.956  80.865 113.281  0.00  0.00    -0.241 OA
ATOM     24  O   LIG d   1      -0.955  80.301 113.866  0.00  0.00    -0.241 OA
ENDBRANCH   3  22
TORSDOF 7
ENDMDL
MODEL 5
REMARK VINA RESULT:      -4.8     21.759     24.203
REMARK  7 active torsions:
REMARK  status: ('A' for Active; 'I' for Inactive)
REMARK    1  A    between atoms: C_2  and  C_3 
REMARK    2  A    between atoms: C_3  and  O_6 
REMARK    3  A    between atoms: C_3  and  C_4 
REMARK    4  A    between atoms: C_7  and  O_6 
REMARK    5  A    between atoms: C_9  and  C_10 
REMARK    6  A    between atoms: N_15  and  C_14 
REMARK    7  A    between atoms: N_20  and  C_19 
REMARK       I    between atoms: C_22  and  N_20 
ROOT
ATOM      1  C   LIG d   1     -25.357  85.245 113.861  0.00  0.00     0.161 C 
ATOM      2  C   LIG d   1     -24.355  86.227 113.934  0.00  0.00     0.016 C 
ATOM      3  C   LIG d   1     -23.052  86.050 113.414  0.00  0.00     0.038 C 
ATOM      4  C   LIG d   1     -22.706  84.927 112.647  0.00  0.00     0.028 C 
ATOM      5  C   LIG d   1     -23.532  83.689 112.979  0.00  0.00    -0.047 C 
ATOM      6  C   LIG d   1     -25.032  84.058 112.930  0.00  0.00     0.091 C 
ENDROOT
BRANCH   1   7
ATOM      7  O   LIG d   1     -26.608  85.851 113.482  0.00  0.00    -0.368 OA
BRANCH   7   8
ATOM      8  C   LIG d   1     -26.595  87.290 113.315  0.00  0.00     0.119 C 
BRANCH   8   9
ATOM      9  C   LIG d   1     -27.713  87.869 114.204  0.00  0.00     0.028 C 
ATOM     10  C   LIG d   1     -27.311  87.932 115.687  0.00  0.00     0.006 C 
ENDBRANCH   8   9
BRANCH   8  11
ATOM     11  C   LIG d   1     -26.967  87.689 111.884  0.00  0.00     0.028 C 
ATOM     12  C   LIG d   1     -28.182  86.916 111.347  0.00  0.00     0.006 C 
ENDBRANCH   8  11
ENDBRANCH   7   8
ENDBRANCH   1   7
BRANCH   6  13
ATOM     13  N   LIG d   1     -25.908  82.924 113.326  0.00  0.00    -0.311 N 
ATOM     14  C   LIG d   1     -26.474  82.096 112.450  0.00  0.00     0.210 C 
ATOM     15  C   LIG d   1     -27.356  81.006 113.068  0.00  0.00     0.109 C 
ATOM     16  O   LIG d   1     -26.305  82.140 111.222  0.00  0.00    -0.276 OA
ATOM     17  H   LIG d   1     -26.074  82.796 114.305  0.00  0.00     0.149 HD
ENDBRANCH   6  13
BRANCH   5  18
ATOM     18  N   LIG d   1     -23.163  82.636 112.015  0.00  0.00     0.381 N 
ATOM     19  H   LIG d   1     -22.660  83.038 111.250  0.00  0.00    -0.090 HD
ATOM     20  H   LIG d   1     -24.003  82.217 111.654  0.00  0.00    -0.090 HD
ATOM     21  H   LIG d   1     -22.604  81.943 112.463  0.00  0.00    -0.090 HD
ENDBRANCH   5  18
BRANCH   3  22
ATOM     22  C   LIG d   1     -22.067  86.985 113.694  0.00  0.00     0.382 C 
ATOM     23  O   LIG d   1     -22.243  87.826 114.608  0.00  0.00    -0.241 OA
ATOM     24  O   LIG d   1     -21.023  87.025 113.016  0.00  0.00    -0.241 OA
ENDBRANCH   3  22
TORSDOF 7
ENDMDL
MODEL 6
REMARK VINA RESULT:      -4.7     13.432     16.323
REMARK  7 active torsions:
REMARK  status: ('A' for Active; 'I' for Inactive)
REMARK    1  A    between atoms: C_2  and  C_3 
REMARK    2  A    between atoms: C_3  and  O_6 
REMARK    3  A    between atoms: C_3  and  C_4 
REMARK    4  A    between atoms: C_7  and  O_6 
REMARK    5  A    between atoms: C_9  and  C_10 
REMARK    6  A    between atoms: N_15  and  C_14 
REMARK    7  A    between atoms: N_20  and  C_19 
REMARK       I    between atoms: C_22  and  N_20 
ROOT
ATOM      1  C   LIG d   1      12.341  78.249 114.750  0.00  0.00     0.161 C 
ATOM      2  C   LIG d   1      11.172  77.484 114.604  0.00  0.00     0.016 C 
ATOM      3  C   LIG d   1       9.886  77.951 114.962  0.00  0.00     0.038 C 
ATOM      4  C   LIG d   1       9.662  79.280 115.352  0.00  0.00     0.028 C 
ATOM      5  C   LIG d   1      10.879  79.936 115.994  0.00  0.00    -0.047 C 
ATOM      6  C   LIG d   1      12.102  79.740 115.069  0.00  0.00     0.091 C 
ENDROOT
BRANCH   1   7
ATOM      7  O   LIG d   1      13.163  78.114 113.574  0.00  0.00    -0.368 OA
BRANCH   7   8
ATOM      8  C   LIG d   1      14.210  77.114 113.640  0.00  0.00     0.119 C 
BRANCH   8   9
ATOM      9  C   LIG d   1      14.707  77.059 115.098  0.00  0.00     0.028 C 
ATOM     10  C   LIG d   1      16.104  77.680 115.265  0.00  0.00     0.006 C 
ENDBRANCH   8   9
BRANCH   8  11
ATOM     11  C   LIG d   1      15.429  77.529 112.811  0.00  0.00     0.028 C 
ATOM     12  C   LIG d   1      15.064  78.440 111.629  0.00  0.00     0.006 C 
ENDBRANCH   8  11
ENDBRANCH   7   8
ENDBRANCH   1   7
BRANCH   6  13
ATOM     13  N   LIG d   1      13.354  80.278 115.662  0.00  0.00    -0.311 N 
ATOM     14  C   LIG d   1      14.284  80.917 114.955  0.00  0.00     0.210 C 
ATOM     15  C   LIG d   1      15.507  81.373 115.757  0.00  0.00     0.109 C 
ATOM     16  O   LIG d   1      14.199  81.177 113.745  0.00  0.00    -0.276 OA
ATOM     17  H   LIG d   1      13.490  80.139 116.644  0.00  0.00     0.149 HD
ENDBRANCH   6  13
BRANCH   5  18
ATOM     18  N   LIG d   1      10.551  81.355 116.225  0.00  0.00     0.381 N 
ATOM     19  H   LIG d   1       9.599  81.528 115.971  0.00  0.00    -0.090 HD
ATOM     20  H   LIG d   1      11.141  81.924 115.644  0.00  0.00    -0.090 HD
ATOM     21  H   LIG d   1      10.693  81.587 117.184  0.00  0.00    -0.090 HD
ENDBRANCH   5  18
BRANCH   3  22
ATOM     22  C   LIG d   1       8.813  77.072 114.970  0.00  0.00     0.382 C 
ATOM     23  O   LIG d   1       7.685  77.465 115.353  0.00  0.00    -0.241 OA
ATOM     24  O   LIG d   1       8.970  75.881 114.641  0.00  0.00    -0.241 OA
ENDBRANCH   3  22
TORSDOF 7
ENDMDL
MODEL 7
REMARK VINA RESULT:      -4.6     15.461     19.137
REMARK  7 active torsions:
REMARK  status: ('A' for Active; 'I' for Inactive)
REMARK    1  A    between atoms: C_2  and  C_3 
REMARK    2  A    between atoms: C_3  and  O_6 
REMARK    3  A    between atoms: C_3  and  C_4 
REMARK    4  A    between atoms: C_7  and  O_6 
REMARK    5  A    between atoms: C_9  and  C_10 
REMARK    6  A    between atoms: N_15  and  C_14 
REMARK    7  A    between atoms: N_20  and  C_19 
REMARK       I    between atoms: C_22  and  N_20 
ROOT
ATOM      1  C   LIG d   1     -17.071  64.812 113.865  0.00  0.00     0.161 C 
ATOM      2  C   LIG d   1     -17.371  63.766 114.753  0.00  0.00     0.016 C 
ATOM      3  C   LIG d   1     -16.794  63.647 116.039  0.00  0.00     0.038 C 
ATOM      4  C   LIG d   1     -15.986  64.655 116.585  0.00  0.00     0.028 C 
ATOM      5  C   LIG d   1     -15.254  65.482 115.532  0.00  0.00    -0.047 C 
ATOM      6  C   LIG d   1     -16.277  65.981 114.486  0.00  0.00     0.091 C 
ENDROOT
BRANCH   1   7
ATOM      7  O   LIG d   1     -18.283  65.298 113.255  0.00  0.00    -0.368 OA
BRANCH   7   8
ATOM      8  C   LIG d   1     -19.489  64.551 113.550  0.00  0.00     0.119 C 
BRANCH   8   9
ATOM      9  C   LIG d   1     -20.080  64.078 112.208  0.00  0.00     0.028 C 
ATOM     10  C   LIG d   1     -21.389  64.804 111.855  0.00  0.00     0.006 C 
ENDBRANCH   8   9
BRANCH   8  11
ATOM     11  C   LIG d   1     -20.563  65.448 114.173  0.00  0.00     0.028 C 
ATOM     12  C   LIG d   1     -20.212  65.895 115.601  0.00  0.00     0.006 C 
ENDBRANCH   8  11
ENDBRANCH   7   8
ENDBRANCH   1   7
BRANCH   6  13
ATOM     13  N   LIG d   1     -15.633  66.728 113.375  0.00  0.00    -0.311 N 
ATOM     14  C   LIG d   1     -15.369  68.032 113.424  0.00  0.00     0.210 C 
ATOM     15  C   LIG d   1     -14.719  68.609 112.162  0.00  0.00     0.109 C 
ATOM     16  O   LIG d   1     -15.581  68.760 114.406  0.00  0.00    -0.276 OA
ATOM     17  H   LIG d   1     -15.398  66.208 112.552  0.00  0.00     0.149 HD
ENDBRANCH   6  13
BRANCH   5  18
ATOM     18  N   LIG d   1     -14.560  66.580 116.232  0.00  0.00     0.381 N 
ATOM     19  H   LIG d   1     -13.574  66.509 116.079  0.00  0.00    -0.090 HD
ATOM     20  H   LIG d   1     -14.734  66.499 117.218  0.00  0.00    -0.090 HD
ATOM     21  H   LIG d   1     -14.893  67.459 115.900  0.00  0.00    -0.090 HD
ENDBRANCH   5  18
BRANCH   3  22
ATOM     22  C   LIG d   1     -16.991  62.490 116.776  0.00  0.00     0.382 C 
ATOM     23  O   LIG d   1     -17.070  61.381 116.194  0.00  0.00    -0.241 OA
ATOM     24  O   LIG d   1     -17.136  62.545 118.012  0.00  0.00    -0.241 OA
ENDBRANCH   3  22
TORSDOF 7
ENDMDL
MODEL 8
REMARK VINA RESULT:      -4.6      1.905      4.638
REMARK  7 active torsions:
REMARK  status: ('A' for Active; 'I' for Inactive)
REMARK    1  A    between atoms: C_2  and  C_3 
REMARK    2  A    between atoms: C_3  and  O_6 
REMARK    3  A    between atoms: C_3  and  C_4 
REMARK    4  A    between atoms: C_7  and  O_6 
REMARK    5  A    between atoms: C_9  and  C_10 
REMARK    6  A    between atoms: N_15  and  C_14 
REMARK    7  A    between atoms: N_20  and  C_19 
REMARK       I    between atoms: C_22  and  N_20 
ROOT
ATOM      1  C   LIG d   1      -2.497  76.545 114.791  0.00  0.00     0.161 C 
ATOM      2  C   LIG d   1      -2.243  75.595 115.794  0.00  0.00     0.016 C 
ATOM      3  C   LIG d   1      -1.157  75.686 116.695  0.00  0.00     0.038 C 
ATOM      4  C   LIG d   1      -0.333  76.820 116.751  0.00  0.00     0.028 C 
ATOM      5  C   LIG d   1      -0.245  77.570 115.426  0.00  0.00    -0.047 C 
ATOM      6  C   LIG d   1      -1.675  77.845 114.908  0.00  0.00     0.091 C 
ENDROOT
BRANCH   1   7
ATOM      7  O   LIG d   1      -3.907  76.845 114.749  0.00  0.00    -0.368 OA
BRANCH   7   8
ATOM      8  C   LIG d   1      -4.656  76.557 115.955  0.00  0.00     0.119 C 
BRANCH   8   9
ATOM      9  C   LIG d   1      -5.944  75.821 115.535  0.00  0.00     0.028 C 
ATOM     10  C   LIG d   1      -5.690  74.773 114.438  0.00  0.00     0.006 C 
ENDBRANCH   8   9
BRANCH   8  11
ATOM     11  C   LIG d   1      -5.129  77.843 116.638  0.00  0.00     0.028 C 
ATOM     12  C   LIG d   1      -6.653  77.892 116.828  0.00  0.00     0.006 C 
ENDBRANCH   8  11
ENDBRANCH   7   8
ENDBRANCH   1   7
BRANCH   6  13
ATOM     13  N   LIG d   1      -1.679  78.502 113.575  0.00  0.00    -0.311 N 
ATOM     14  C   LIG d   1      -1.128  77.961 112.490  0.00  0.00     0.210 C 
ATOM     15  C   LIG d   1      -1.226  78.814 111.221  0.00  0.00     0.109 C 
ATOM     16  O   LIG d   1      -0.596  76.841 112.450  0.00  0.00    -0.276 OA
ATOM     17  H   LIG d   1      -2.118  79.399 113.510  0.00  0.00     0.149 HD
ENDBRANCH   6  13
BRANCH   5  18
ATOM     18  N   LIG d   1       0.531  78.802 115.662  0.00  0.00     0.381 N 
ATOM     19  H   LIG d   1       1.053  79.037 114.842  0.00  0.00    -0.090 HD
ATOM     20  H   LIG d   1       1.179  78.639 116.413  0.00  0.00    -0.090 HD
ATOM     21  H   LIG d   1      -0.082  79.551 115.900  0.00  0.00    -0.090 HD
ENDBRANCH   5  18
BRANCH   3  22
ATOM     22  C   LIG d   1      -0.861  74.616 117.526  0.00  0.00     0.382 C 
ATOM     23  O   LIG d   1       0.156  74.654 118.259  0.00  0.00    -0.241 OA
ATOM     24  O   LIG d   1      -1.574  73.595 117.518  0.00  0.00    -0.241 OA
ENDBRANCH   3  22
TORSDOF 7
ENDMDL
MODEL 9
REMARK VINA RESULT:      -4.5      2.076      2.385
REMARK  7 active torsions:
REMARK  status: ('A' for Active; 'I' for Inactive)
REMARK    1  A    between atoms: C_2  and  C_3 
REMARK    2  A    between atoms: C_3  and  O_6 
REMARK    3  A    between atoms: C_3  and  C_4 
REMARK    4  A    between atoms: C_7  and  O_6 
REMARK    5  A    between atoms: C_9  and  C_10 
REMARK    6  A    between atoms: N_15  and  C_14 
REMARK    7  A    between atoms: N_20  and  C_19 
REMARK       I    between atoms: C_22  and  N_20 
ROOT
ATOM      1  C   LIG d   1      -2.086  78.668 116.032  0.00  0.00     0.161 C 
ATOM      2  C   LIG d   1      -2.444  79.694 115.141  0.00  0.00     0.016 C 
ATOM      3  C   LIG d   1      -2.063  79.710 113.780  0.00  0.00     0.038 C 
ATOM      4  C   LIG d   1      -1.421  78.619 113.176  0.00  0.00     0.028 C 
ATOM      5  C   LIG d   1      -0.597  77.785 114.152  0.00  0.00    -0.047 C 
ATOM      6  C   LIG d   1      -1.481  77.415 115.366  0.00  0.00     0.091 C 
ENDROOT
BRANCH   1   7
ATOM      7  O   LIG d   1      -3.222  78.305 116.842  0.00  0.00    -0.368 OA
BRANCH   7   8
ATOM      8  C   LIG d   1      -4.472  78.111 116.135  0.00  0.00     0.119 C 
BRANCH   8   9
ATOM      9  C   LIG d   1      -5.584  78.779 116.968  0.00  0.00     0.028 C 
ATOM     10  C   LIG d   1      -5.286  80.259 117.263  0.00  0.00     0.006 C 
ENDBRANCH   8   9
BRANCH   8  11
ATOM     11  C   LIG d   1      -4.850  76.628 116.070  0.00  0.00     0.028 C 
ATOM     12  C   LIG d   1      -6.224  76.391 115.423  0.00  0.00     0.006 C 
ENDBRANCH   8  11
ENDBRANCH   7   8
ENDBRANCH   1   7
BRANCH   6  13
ATOM     13  N   LIG d   1      -0.728  76.671 116.409  0.00  0.00    -0.311 N 
ATOM     14  C   LIG d   1       0.326  77.172 117.050  0.00  0.00     0.210 C 
ATOM     15  C   LIG d   1       0.968  76.230 118.074  0.00  0.00     0.109 C 
ATOM     16  O   LIG d   1       0.771  78.318 116.892  0.00  0.00    -0.276 OA
ATOM     17  H   LIG d   1      -1.040  75.744 116.622  0.00  0.00     0.149 HD
ENDBRANCH   6  13
BRANCH   5  18
ATOM     18  N   LIG d   1      -0.097  76.607 113.420  0.00  0.00     0.381 N 
ATOM     19  H   LIG d   1       0.438  76.027 114.036  0.00  0.00    -0.090 HD
ATOM     20  H   LIG d   1       0.504  76.916 112.677  0.00  0.00    -0.090 HD
ATOM     21  H   LIG d   1      -0.861  76.089 113.045  0.00  0.00    -0.090 HD
ENDBRANCH   5  18
BRANCH   3  22
ATOM     22  C   LIG d   1      -2.290  80.845 113.016  0.00  0.00     0.382 C 
ATOM     23  O   LIG d   1      -1.343  81.376 112.387  0.00  0.00    -0.241 OA
ATOM     24  O   LIG d   1      -3.419  81.371 112.985  0.00  0.00    -0.241 OA
ENDBRANCH   3  22
TORSDOF 7
ENDMDL
