MODEL 1
REMARK VINA RESULT:      -5.8      0.000      0.000
REMARK  7 active torsions:
REMARK  status: ('A' for Active; 'I' for Inactive)
REMARK    1  A    between atoms: C_2  and  C_3 
REMARK    2  A    between atoms: C_3  and  O_6 
REMARK    3  A    between atoms: C_3  and  C_4 
REMARK    4  A    between atoms: C_7  and  O_6 
REMARK    5  A    between atoms: C_9  and  C_10 
REMARK    6  A    between atoms: N_15  and  C_14 
REMARK    7  A    between atoms: N_20  and  C_19 
REMARK       I    between atoms: C_22  and  N_20 
ROOT
ATOM      1  C   LIG d   1      -2.836  77.653 115.797  0.00  0.00     0.161 C 
ATOM      2  C   LIG d   1      -3.070  78.558 114.748  0.00  0.00     0.016 C 
ATOM      3  C   LIG d   1      -2.326  78.563 113.546  0.00  0.00     0.038 C 
ATOM      4  C   LIG d   1      -1.392  77.560 113.247  0.00  0.00     0.028 C 
ATOM      5  C   LIG d   1      -0.768  76.925 114.485  0.00  0.00    -0.047 C 
ATOM      6  C   LIG d   1      -1.896  76.482 115.444  0.00  0.00     0.091 C 
ENDROOT
BRANCH   1   7
ATOM      7  O   LIG d   1      -4.092  77.154 116.300  0.00  0.00    -0.368 OA
BRANCH   7   8
ATOM      8  C   LIG d   1      -4.561  75.912 115.722  0.00  0.00     0.119 C 
BRANCH   8   9
ATOM      9  C   LIG d   1      -5.850  76.225 114.937  0.00  0.00     0.028 C 
ATOM     10  C   LIG d   1      -5.683  76.008 113.423  0.00  0.00     0.006 C 
ENDBRANCH   8   9
BRANCH   8  11
ATOM     11  C   LIG d   1      -4.979  74.914 116.806  0.00  0.00     0.028 C 
ATOM     12  C   LIG d   1      -6.099  73.968 116.346  0.00  0.00     0.006 C 
ENDBRANCH   8  11
ENDBRANCH   7   8
ENDBRANCH   1   7
BRANCH   6  13
ATOM     13  N   LIG d   1      -1.371  75.926 116.719  0.00  0.00    -0.311 N 
ATOM     14  C   LIG d   1      -1.133  74.630 116.910  0.00  0.00     0.210 C 
ATOM     15  C   LIG d   1      -0.613  74.267 118.305  0.00  0.00     0.109 C 
ATOM     16  O   LIG d   1      -1.273  73.750 116.048  0.00  0.00    -0.276 OA
ATOM     17  H   LIG d   1      -1.200  76.574 117.462  0.00  0.00     0.149 HD
ENDBRANCH   6  13
BRANCH   5  18
ATOM     18  N   LIG d   1       0.080  75.807 114.033  0.00  0.00     0.381 N 
ATOM     19  H   LIG d   1       0.393  75.278 114.823  0.00  0.00    -0.090 HD
ATOM     20  H   LIG d   1       0.887  76.179 113.564  0.00  0.00    -0.090 HD
ATOM     21  H   LIG d   1      -0.432  75.219 113.413  0.00  0.00    -0.090 HD
ENDBRANCH   5  18
BRANCH   3  22
ATOM     22  C   LIG d   1      -2.486  79.604 112.644  0.00  0.00     0.382 C 
ATOM     23  O   LIG d   1      -1.763  79.663 111.620  0.00  0.00    -0.241 OA
ATOM     24  O   LIG d   1      -3.313  80.509 112.864  0.00  0.00    -0.241 OA
ENDBRANCH   3  22
TORSDOF 7
ENDMDL
MODEL 2
REMARK VINA RESULT:      -5.5      2.552      5.756
REMARK  7 active torsions:
REMARK  status: ('A' for Active; 'I' for Inactive)
REMARK    1  A    between atoms: C_2  and  C_3 
REMARK    2  A    between atoms: C_3  and  O_6 
REMARK    3  A    between atoms: C_3  and  C_4 
REMARK    4  A    between atoms: C_7  and  O_6 
REMARK    5  A    between atoms: C_9  and  C_10 
REMARK    6  A    between atoms: N_15  and  C_14 
REMARK    7  A    between atoms: N_20  and  C_19 
REMARK       I    between atoms: C_22  and  N_20 
ROOT
ATOM      1  C   LIG d   1      -3.619  75.744 115.793  0.00  0.00     0.161 C 
ATOM      2  C   LIG d   1      -4.450  74.768 116.368  0.00  0.00     0.016 C 
ATOM      3  C   LIG d   1      -5.654  74.323 115.775  0.00  0.00     0.038 C 
ATOM      4  C   LIG d   1      -6.033  74.717 114.483  0.00  0.00     0.028 C 
ATOM      5  C   LIG d   1      -5.485  76.081 114.080  0.00  0.00    -0.047 C 
ATOM      6  C   LIG d   1      -3.960  76.103 114.332  0.00  0.00     0.091 C 
ENDROOT
BRANCH   1   7
ATOM      7  O   LIG d   1      -2.241  75.336 115.900  0.00  0.00    -0.368 OA
BRANCH   7   8
ATOM      8  C   LIG d   1      -1.381  76.197 116.686  0.00  0.00     0.119 C 
BRANCH   8   9
ATOM      9  C   LIG d   1      -0.140  76.518 115.831  0.00  0.00     0.028 C 
ATOM     10  C   LIG d   1      -0.117  75.729 114.511  0.00  0.00     0.006 C 
ENDBRANCH   8   9
BRANCH   8  11
ATOM     11  C   LIG d   1      -0.844  75.470 117.923  0.00  0.00     0.028 C 
ATOM     12  C   LIG d   1      -0.943  73.941 117.804  0.00  0.00     0.006 C 
ENDBRANCH   8  11
ENDBRANCH   7   8
ENDBRANCH   1   7
BRANCH   6  13
ATOM     13  N   LIG d   1      -3.357  77.431 114.043  0.00  0.00    -0.311 N 
ATOM     14  C   LIG d   1      -2.823  77.753 112.866  0.00  0.00     0.210 C 
ATOM     15  C   LIG d   1      -2.237  79.166 112.787  0.00  0.00     0.109 C 
ATOM     16  O   LIG d   1      -2.807  77.013 111.870  0.00  0.00    -0.276 OA
ATOM     17  H   LIG d   1      -3.356  78.102 114.785  0.00  0.00     0.149 HD
ENDBRANCH   6  13
BRANCH   5  18
ATOM     18  N   LIG d   1      -5.841  76.305 112.666  0.00  0.00     0.381 N 
ATOM     19  H   LIG d   1      -5.308  77.068 112.299  0.00  0.00    -0.090 HD
ATOM     20  H   LIG d   1      -6.815  76.545 112.610  0.00  0.00    -0.090 HD
ATOM     21  H   LIG d   1      -5.664  75.481 112.135  0.00  0.00    -0.090 HD
ENDBRANCH   5  18
BRANCH   3  22
ATOM     22  C   LIG d   1      -6.512  73.504 116.493  0.00  0.00     0.382 C 
ATOM     23  O   LIG d   1      -7.267  72.704 115.889  0.00  0.00    -0.241 OA
ATOM     24  O   LIG d   1      -6.573  73.587 117.734  0.00  0.00    -0.241 OA
ENDBRANCH   3  22
TORSDOF 7
ENDMDL
MODEL 3
REMARK VINA RESULT:      -5.4      3.200      6.607
REMARK  7 active torsions:
REMARK  status: ('A' for Active; 'I' for Inactive)
REMARK    1  A    between atoms: C_2  and  C_3 
REMARK    2  A    between atoms: C_3  and  O_6 
REMARK    3  A    between atoms: C_3  and  C_4 
REMARK    4  A    between atoms: C_7  and  O_6 
REMARK    5  A    between atoms: C_9  and  C_10 
REMARK    6  A    between atoms: N_15  and  C_14 
REMARK    7  A    between atoms: N_20  and  C_19 
REMARK       I    between atoms: C_22  and  N_20 
ROOT
ATOM      1  C   LIG d   1      -5.045  75.064 116.472  0.00  0.00     0.161 C 
ATOM      2  C   LIG d   1      -5.805  73.929 116.142  0.00  0.00     0.016 C 
ATOM      3  C   LIG d   1      -7.199  73.836 116.359  0.00  0.00     0.038 C 
ATOM      4  C   LIG d   1      -7.958  74.936 116.785  0.00  0.00     0.028 C 
ATOM      5  C   LIG d   1      -7.159  75.941 117.608  0.00  0.00    -0.047 C 
ATOM      6  C   LIG d   1      -5.874  76.314 116.834  0.00  0.00     0.091 C 
ENDROOT
BRANCH   1   7
ATOM      7  O   LIG d   1      -4.127  75.365 115.402  0.00  0.00    -0.368 OA
BRANCH   7   8
ATOM      8  C   LIG d   1      -2.758  74.929 115.596  0.00  0.00     0.119 C 
BRANCH   8   9
ATOM      9  C   LIG d   1      -2.476  74.950 117.111  0.00  0.00     0.028 C 
ATOM     10  C   LIG d   1      -1.214  74.153 117.484  0.00  0.00     0.006 C 
ENDBRANCH   8   9
BRANCH   8  11
ATOM     11  C   LIG d   1      -1.765  75.922 114.984  0.00  0.00     0.028 C 
ATOM     12  C   LIG d   1      -2.018  77.370 115.433  0.00  0.00     0.006 C 
ENDBRANCH   8  11
ENDBRANCH   7   8
ENDBRANCH   1   7
BRANCH   6  13
ATOM     13  N   LIG d   1      -4.993  77.230 117.605  0.00  0.00    -0.311 N 
ATOM     14  C   LIG d   1      -4.962  78.548 117.417  0.00  0.00     0.210 C 
ATOM     15  C   LIG d   1      -3.968  79.304 118.305  0.00  0.00     0.109 C 
ATOM     16  O   LIG d   1      -5.685  79.167 116.623  0.00  0.00    -0.276 OA
ATOM     17  H   LIG d   1      -4.395  76.815 118.293  0.00  0.00     0.149 HD
ENDBRANCH   6  13
BRANCH   5  18
ATOM     18  N   LIG d   1      -8.034  77.100 117.867  0.00  0.00     0.381 N 
ATOM     19  H   LIG d   1      -7.586  77.939 117.558  0.00  0.00    -0.090 HD
ATOM     20  H   LIG d   1      -8.191  77.173 118.857  0.00  0.00    -0.090 HD
ATOM     21  H   LIG d   1      -8.903  76.984 117.394  0.00  0.00    -0.090 HD
ENDBRANCH   5  18
BRANCH   3  22
ATOM     22  C   LIG d   1      -7.841  72.619 116.188  0.00  0.00     0.382 C 
ATOM     23  O   LIG d   1      -9.068  72.518 116.430  0.00  0.00    -0.241 OA
ATOM     24  O   LIG d   1      -7.200  71.610 115.838  0.00  0.00    -0.241 OA
ENDBRANCH   3  22
TORSDOF 7
ENDMDL
MODEL 4
REMARK VINA RESULT:      -5.4      9.349     11.663
REMARK  7 active torsions:
REMARK  status: ('A' for Active; 'I' for Inactive)
REMARK    1  A    between atoms: C_2  and  C_3 
REMARK    2  A    between atoms: C_3  and  O_6 
REMARK    3  A    between atoms: C_3  and  C_4 
REMARK    4  A    between atoms: C_7  and  O_6 
REMARK    5  A    between atoms: C_9  and  C_10 
REMARK    6  A    between atoms: N_15  and  C_14 
REMARK    7  A    between atoms: N_20  and  C_19 
REMARK       I    between atoms: C_22  and  N_20 
ROOT
ATOM      1  C   LIG d   1       2.478  86.204 113.601  0.00  0.00     0.161 C 
ATOM      2  C   LIG d   1       2.967  87.429 113.117  0.00  0.00     0.016 C 
ATOM      3  C   LIG d   1       4.052  88.120 113.704  0.00  0.00     0.038 C 
ATOM      4  C   LIG d   1       4.823  87.555 114.730  0.00  0.00     0.028 C 
ATOM      5  C   LIG d   1       4.055  86.550 115.582  0.00  0.00    -0.047 C 
ATOM      6  C   LIG d   1       3.377  85.518 114.651  0.00  0.00     0.091 C 
ENDROOT
BRANCH   1   7
ATOM      7  O   LIG d   1       2.222  85.311 112.499  0.00  0.00    -0.368 OA
BRANCH   7   8
ATOM      8  C   LIG d   1       2.679  85.756 111.198  0.00  0.00     0.119 C 
BRANCH   8   9
ATOM      9  C   LIG d   1       1.572  85.420 110.180  0.00  0.00     0.028 C 
ATOM     10  C   LIG d   1       0.287  86.229 110.421  0.00  0.00     0.006 C 
ENDBRANCH   8   9
BRANCH   8  11
ATOM     11  C   LIG d   1       3.907  84.965 110.738  0.00  0.00     0.028 C 
ATOM     12  C   LIG d   1       4.048  83.612 111.455  0.00  0.00     0.006 C 
ENDBRANCH   8  11
ENDBRANCH   7   8
ENDBRANCH   1   7
BRANCH   6  13
ATOM     13  N   LIG d   1       2.535  84.548 115.398  0.00  0.00    -0.311 N 
ATOM     14  C   LIG d   1       2.973  83.358 115.804  0.00  0.00     0.210 C 
ATOM     15  C   LIG d   1       1.937  82.504 116.541  0.00  0.00     0.109 C 
ATOM     16  O   LIG d   1       4.132  82.941 115.653  0.00  0.00    -0.276 OA
ATOM     17  H   LIG d   1       1.590  84.818 115.592  0.00  0.00     0.149 HD
ENDBRANCH   6  13
BRANCH   5  18
ATOM     18  N   LIG d   1       5.013  85.938 116.522  0.00  0.00     0.381 N 
ATOM     19  H   LIG d   1       5.793  85.567 116.017  0.00  0.00    -0.090 HD
ATOM     20  H   LIG d   1       4.559  85.181 117.002  0.00  0.00    -0.090 HD
ATOM     21  H   LIG d   1       5.326  86.617 117.180  0.00  0.00    -0.090 HD
ENDBRANCH   5  18
BRANCH   3  22
ATOM     22  C   LIG d   1       4.351  89.409 113.289  0.00  0.00     0.382 C 
ATOM     23  O   LIG d   1       3.426  90.236 113.098  0.00  0.00    -0.241 OA
ATOM     24  O   LIG d   1       5.529  89.743 113.062  0.00  0.00    -0.241 OA
ENDBRANCH   3  22
TORSDOF 7
ENDMDL
MODEL 5
REMARK VINA RESULT:      -5.3      6.842      9.480
REMARK  7 active torsions:
REMARK  status: ('A' for Active; 'I' for Inactive)
REMARK    1  A    between atoms: C_2  and  C_3 
REMARK    2  A    between atoms: C_3  and  O_6 
REMARK    3  A    between atoms: C_3  and  C_4 
REMARK    4  A    between atoms: C_7  and  O_6 
REMARK    5  A    between atoms: C_9  and  C_10 
REMARK    6  A    between atoms: N_15  and  C_14 
REMARK    7  A    between atoms: N_20  and  C_19 
REMARK       I    between atoms: C_22  and  N_20 
ROOT
ATOM      1  C   LIG d   1       2.864  83.391 111.909  0.00  0.00     0.161 C 
ATOM      2  C   LIG d   1       3.307  84.709 112.105  0.00  0.00     0.016 C 
ATOM      3  C   LIG d   1       2.526  85.847 111.797  0.00  0.00     0.038 C 
ATOM      4  C   LIG d   1       1.182  85.741 111.410  0.00  0.00     0.028 C 
ATOM      5  C   LIG d   1       0.854  84.423 110.715  0.00  0.00    -0.047 C 
ATOM      6  C   LIG d   1       1.360  83.255 111.591  0.00  0.00     0.091 C 
ENDROOT
BRANCH   1   7
ATOM      7  O   LIG d   1       3.210  82.583 113.051  0.00  0.00    -0.368 OA
BRANCH   7   8
ATOM      8  C   LIG d   1       2.175  82.417 114.051  0.00  0.00     0.119 C 
BRANCH   8   9
ATOM      9  C   LIG d   1       2.612  83.200 115.305  0.00  0.00     0.028 C 
ATOM     10  C   LIG d   1       1.749  84.449 115.547  0.00  0.00     0.006 C 
ENDBRANCH   8   9
BRANCH   8  11
ATOM     11  C   LIG d   1       2.065  80.958 114.502  0.00  0.00     0.028 C 
ATOM     12  C   LIG d   1       2.503  80.750 115.961  0.00  0.00     0.006 C 
ENDBRANCH   8  11
ENDBRANCH   7   8
ENDBRANCH   1   7
BRANCH   6  13
ATOM     13  N   LIG d   1       1.154  81.932 110.946  0.00  0.00    -0.311 N 
ATOM     14  C   LIG d   1       0.106  81.149 111.195  0.00  0.00     0.210 C 
ATOM     15  C   LIG d   1       0.098  79.818 110.438  0.00  0.00     0.109 C 
ATOM     16  O   LIG d   1      -0.835  81.445 111.948  0.00  0.00    -0.276 OA
ATOM     17  H   LIG d   1       1.854  81.627 110.298  0.00  0.00     0.149 HD
ENDBRANCH   6  13
BRANCH   5  18
ATOM     18  N   LIG d   1      -0.604  84.389 110.490  0.00  0.00     0.381 N 
ATOM     19  H   LIG d   1      -0.872  85.145 109.893  0.00  0.00    -0.090 HD
ATOM     20  H   LIG d   1      -1.071  84.503 111.372  0.00  0.00    -0.090 HD
ATOM     21  H   LIG d   1      -0.864  83.520 110.078  0.00  0.00    -0.090 HD
ENDBRANCH   5  18
BRANCH   3  22
ATOM     22  C   LIG d   1       3.102  87.108 111.837  0.00  0.00     0.382 C 
ATOM     23  O   LIG d   1       4.318  87.232 112.122  0.00  0.00    -0.241 OA
ATOM     24  O   LIG d   1       2.412  88.124 111.636  0.00  0.00    -0.241 OA
ENDBRANCH   3  22
TORSDOF 7
ENDMDL
MODEL 6
REMARK VINA RESULT:      -5.1     10.440     12.832
REMARK  7 active torsions:
REMARK  status: ('A' for Active; 'I' for Inactive)
REMARK    1  A    between atoms: C_2  and  C_3 
REMARK    2  A    between atoms: C_3  and  O_6 
REMARK    3  A    between atoms: C_3  and  C_4 
REMARK    4  A    between atoms: C_7  and  O_6 
REMARK    5  A    between atoms: C_9  and  C_10 
REMARK    6  A    between atoms: N_15  and  C_14 
REMARK    7  A    between atoms: N_20  and  C_19 
REMARK       I    between atoms: C_22  and  N_20 
ROOT
ATOM      1  C   LIG d   1       1.644  87.206 114.890  0.00  0.00     0.161 C 
ATOM      2  C   LIG d   1       0.466  87.013 115.630  0.00  0.00     0.016 C 
ATOM      3  C   LIG d   1      -0.075  87.988 116.499  0.00  0.00     0.038 C 
ATOM      4  C   LIG d   1       0.446  89.288 116.572  0.00  0.00     0.028 C 
ATOM      5  C   LIG d   1       1.929  89.366 116.225  0.00  0.00    -0.047 C 
ATOM      6  C   LIG d   1       2.166  88.658 114.872  0.00  0.00     0.091 C 
ENDROOT
BRANCH   1   7
ATOM      7  O   LIG d   1       1.461  86.723 113.545  0.00  0.00    -0.368 OA
BRANCH   7   8
ATOM      8  C   LIG d   1       1.804  85.334 113.314  0.00  0.00     0.119 C 
BRANCH   8   9
ATOM      9  C   LIG d   1       3.218  85.303 112.702  0.00  0.00     0.028 C 
ATOM     10  C   LIG d   1       3.417  86.383 111.626  0.00  0.00     0.006 C 
ENDBRANCH   8   9
BRANCH   8  11
ATOM     11  C   LIG d   1       0.892  84.702 112.258  0.00  0.00     0.028 C 
ATOM     12  C   LIG d   1      -0.278  85.615 111.859  0.00  0.00     0.006 C 
ENDBRANCH   8  11
ENDBRANCH   7   8
ENDBRANCH   1   7
BRANCH   6  13
ATOM     13  N   LIG d   1       3.604  88.615 114.498  0.00  0.00    -0.311 N 
ATOM     14  C   LIG d   1       4.162  89.457 113.630  0.00  0.00     0.210 C 
ATOM     15  C   LIG d   1       5.654  89.225 113.372  0.00  0.00     0.109 C 
ATOM     16  O   LIG d   1       3.570  90.394 113.074  0.00  0.00    -0.276 OA
ATOM     17  H   LIG d   1       4.165  87.905 114.927  0.00  0.00     0.149 HD
ENDBRANCH   6  13
BRANCH   5  18
ATOM     18  N   LIG d   1       2.309  90.791 116.207  0.00  0.00     0.381 N 
ATOM     19  H   LIG d   1       1.575  91.342 116.605  0.00  0.00    -0.090 HD
ATOM     20  H   LIG d   1       2.438  91.081 115.253  0.00  0.00    -0.090 HD
ATOM     21  H   LIG d   1       3.152  90.927 116.720  0.00  0.00    -0.090 HD
ENDBRANCH   5  18
BRANCH   3  22
ATOM     22  C   LIG d   1      -1.128  87.653 117.337  0.00  0.00     0.382 C 
ATOM     23  O   LIG d   1      -0.957  86.814 118.254  0.00  0.00    -0.241 OA
ATOM     24  O   LIG d   1      -2.258  88.146 117.161  0.00  0.00    -0.241 OA
ENDBRANCH   3  22
TORSDOF 7
ENDMDL
MODEL 7
REMARK VINA RESULT:      -5.1     22.371     24.455
REMARK  7 active torsions:
REMARK  status: ('A' for Active; 'I' for Inactive)
REMARK    1  A    between atoms: C_2  and  C_3 
REMARK    2  A    between atoms: C_3  and  O_6 
REMARK    3  A    between atoms: C_3  and  C_4 
REMARK    4  A    between atoms: C_7  and  O_6 
REMARK    5  A    between atoms: C_9  and  C_10 
REMARK    6  A    between atoms: N_15  and  C_14 
REMARK    7  A    between atoms: N_20  and  C_19 
REMARK       I    between atoms: C_22  and  N_20 
ROOT
ATOM      1  C   LIG d   1     -25.680  85.790 113.380  0.00  0.00     0.161 C 
ATOM      2  C   LIG d   1     -24.628  86.703 113.561  0.00  0.00     0.016 C 
ATOM      3  C   LIG d   1     -23.263  86.335 113.526  0.00  0.00     0.038 C 
ATOM      4  C   LIG d   1     -22.852  85.046 113.156  0.00  0.00     0.028 C 
ATOM      5  C   LIG d   1     -23.889  83.969 113.458  0.00  0.00    -0.047 C 
ATOM      6  C   LIG d   1     -25.249  84.401 112.864  0.00  0.00     0.091 C 
ENDROOT
BRANCH   1   7
ATOM      7  O   LIG d   1     -26.677  86.360 112.509  0.00  0.00    -0.368 OA
BRANCH   7   8
ATOM      8  C   LIG d   1     -26.184  87.218 111.451  0.00  0.00     0.119 C 
BRANCH   8   9
ATOM      9  C   LIG d   1     -27.081  88.471 111.415  0.00  0.00     0.028 C 
ATOM     10  C   LIG d   1     -26.614  89.497 110.370  0.00  0.00     0.006 C 
ENDBRANCH   8   9
BRANCH   8  11
ATOM     11  C   LIG d   1     -26.351  86.561 110.078  0.00  0.00     0.028 C 
ATOM     12  C   LIG d   1     -27.462  85.499 110.056  0.00  0.00     0.006 C 
ENDBRANCH   8  11
ENDBRANCH   7   8
ENDBRANCH   1   7
BRANCH   6  13
ATOM     13  N   LIG d   1     -26.339  83.443 113.187  0.00  0.00    -0.311 N 
ATOM     14  C   LIG d   1     -26.714  82.458 112.374  0.00  0.00     0.210 C 
ATOM     15  C   LIG d   1     -27.871  81.597 112.891  0.00  0.00     0.109 C 
ATOM     16  O   LIG d   1     -26.176  82.194 111.288  0.00  0.00    -0.276 OA
ATOM     17  H   LIG d   1     -26.808  83.565 114.063  0.00  0.00     0.149 HD
ENDBRANCH   6  13
BRANCH   5  18
ATOM     18  N   LIG d   1     -23.390  82.700 112.897  0.00  0.00     0.381 N 
ATOM     19  H   LIG d   1     -22.696  82.310 113.504  0.00  0.00    -0.090 HD
ATOM     20  H   LIG d   1     -22.962  82.884 112.007  0.00  0.00    -0.090 HD
ATOM     21  H   LIG d   1     -24.143  82.057 112.785  0.00  0.00    -0.090 HD
ENDBRANCH   5  18
BRANCH   3  22
ATOM     22  C   LIG d   1     -22.294  87.252 113.904  0.00  0.00     0.382 C 
ATOM     23  O   LIG d   1     -21.101  87.082 113.556  0.00  0.00    -0.241 OA
ATOM     24  O   LIG d   1     -22.590  88.223 114.626  0.00  0.00    -0.241 OA
ENDBRANCH   3  22
TORSDOF 7
ENDMDL
MODEL 8
REMARK VINA RESULT:      -5.0      8.009     10.825
REMARK  7 active torsions:
REMARK  status: ('A' for Active; 'I' for Inactive)
REMARK    1  A    between atoms: C_2  and  C_3 
REMARK    2  A    between atoms: C_3  and  O_6 
REMARK    3  A    between atoms: C_3  and  C_4 
REMARK    4  A    between atoms: C_7  and  O_6 
REMARK    5  A    between atoms: C_9  and  C_10 
REMARK    6  A    between atoms: N_15  and  C_14 
REMARK    7  A    between atoms: N_20  and  C_19 
REMARK       I    between atoms: C_22  and  N_20 
ROOT
ATOM      1  C   LIG d   1       2.072  84.345 113.399  0.00  0.00     0.161 C 
ATOM      2  C   LIG d   1       1.231  83.293 112.999  0.00  0.00     0.016 C 
ATOM      3  C   LIG d   1       0.513  83.292 111.781  0.00  0.00     0.038 C 
ATOM      4  C   LIG d   1       0.706  84.282 110.805  0.00  0.00     0.028 C 
ATOM      5  C   LIG d   1       1.162  85.619 111.380  0.00  0.00    -0.047 C 
ATOM      6  C   LIG d   1       2.382  85.380 112.298  0.00  0.00     0.091 C 
ENDROOT
BRANCH   1   7
ATOM      7  O   LIG d   1       3.295  83.811 113.944  0.00  0.00    -0.368 OA
BRANCH   7   8
ATOM      8  C   LIG d   1       3.471  83.954 115.375  0.00  0.00     0.119 C 
BRANCH   8   9
ATOM      9  C   LIG d   1       2.184  84.587 115.939  0.00  0.00     0.028 C 
ATOM     10  C   LIG d   1       1.442  83.647 116.904  0.00  0.00     0.006 C 
ENDBRANCH   8   9
BRANCH   8  11
ATOM     11  C   LIG d   1       4.589  84.948 115.702  0.00  0.00     0.028 C 
ATOM     12  C   LIG d   1       4.070  86.228 116.376  0.00  0.00     0.006 C 
ENDBRANCH   8  11
ENDBRANCH   7   8
ENDBRANCH   1   7
BRANCH   6  13
ATOM     13  N   LIG d   1       2.839  86.626 112.968  0.00  0.00    -0.311 N 
ATOM     14  C   LIG d   1       3.884  87.340 112.554  0.00  0.00     0.210 C 
ATOM     15  C   LIG d   1       4.197  88.578 113.400  0.00  0.00     0.109 C 
ATOM     16  O   LIG d   1       4.563  87.083 111.548  0.00  0.00    -0.276 OA
ATOM     17  H   LIG d   1       2.326  86.925 113.775  0.00  0.00     0.149 HD
ENDBRANCH   6  13
BRANCH   5  18
ATOM     18  N   LIG d   1       1.458  86.514 110.246  0.00  0.00     0.381 N 
ATOM     19  H   LIG d   1       1.943  86.008 109.532  0.00  0.00    -0.090 HD
ATOM     20  H   LIG d   1       2.053  87.257 110.565  0.00  0.00    -0.090 HD
ATOM     21  H   LIG d   1       0.611  86.891 109.879  0.00  0.00    -0.090 HD
ENDBRANCH   5  18
BRANCH   3  22
ATOM     22  C   LIG d   1      -0.441  82.314 111.546  0.00  0.00     0.382 C 
ATOM     23  O   LIG d   1      -1.576  82.405 112.075  0.00  0.00    -0.241 OA
ATOM     24  O   LIG d   1      -0.168  81.319 110.849  0.00  0.00    -0.241 OA
ENDBRANCH   3  22
TORSDOF 7
ENDMDL
MODEL 9
REMARK VINA RESULT:      -5.0      3.404      6.571
REMARK  7 active torsions:
REMARK  status: ('A' for Active; 'I' for Inactive)
REMARK    1  A    between atoms: C_2  and  C_3 
REMARK    2  A    between atoms: C_3  and  O_6 
REMARK    3  A    between atoms: C_3  and  C_4 
REMARK    4  A    between atoms: C_7  and  O_6 
REMARK    5  A    between atoms: C_9  and  C_10 
REMARK    6  A    between atoms: N_15  and  C_14 
REMARK    7  A    between atoms: N_20  and  C_19 
REMARK       I    between atoms: C_22  and  N_20 
ROOT
ATOM      1  C   LIG d   1      -5.438  74.961 116.705  0.00  0.00     0.161 C 
ATOM      2  C   LIG d   1      -6.196  73.823 116.383  0.00  0.00     0.016 C 
ATOM      3  C   LIG d   1      -7.602  73.761 116.518  0.00  0.00     0.038 C 
ATOM      4  C   LIG d   1      -8.366  74.891 116.843  0.00  0.00     0.028 C 
ATOM      5  C   LIG d   1      -7.602  75.923 117.664  0.00  0.00    -0.047 C 
ATOM      6  C   LIG d   1      -6.265  76.239 116.955  0.00  0.00     0.091 C 
ENDROOT
BRANCH   1   7
ATOM      7  O   LIG d   1      -4.450  75.195 115.681  0.00  0.00    -0.368 OA
BRANCH   7   8
ATOM      8  C   LIG d   1      -4.803  76.166 114.666  0.00  0.00     0.119 C 
BRANCH   8   9
ATOM      9  C   LIG d   1      -5.650  75.438 113.603  0.00  0.00     0.028 C 
ATOM     10  C   LIG d   1      -6.036  76.355 112.431  0.00  0.00     0.006 C 
ENDBRANCH   8   9
BRANCH   8  11
ATOM     11  C   LIG d   1      -3.563  76.669 113.921  0.00  0.00     0.028 C 
ATOM     12  C   LIG d   1      -2.614  77.476 114.821  0.00  0.00     0.006 C 
ENDBRANCH   8  11
ENDBRANCH   7   8
ENDBRANCH   1   7
BRANCH   6  13
ATOM     13  N   LIG d   1      -5.417  77.178 117.735  0.00  0.00    -0.311 N 
ATOM     14  C   LIG d   1      -5.183  78.435 117.364  0.00  0.00     0.210 C 
ATOM     15  C   LIG d   1      -4.265  79.226 118.302  0.00  0.00     0.109 C 
ATOM     16  O   LIG d   1      -5.675  78.981 116.365  0.00  0.00    -0.276 OA
ATOM     17  H   LIG d   1      -5.004  76.827 118.577  0.00  0.00     0.149 HD
ENDBRANCH   6  13
BRANCH   5  18
ATOM     18  N   LIG d   1      -8.470  77.106 117.814  0.00  0.00     0.381 N 
ATOM     19  H   LIG d   1      -9.291  76.997 117.252  0.00  0.00    -0.090 HD
ATOM     20  H   LIG d   1      -7.973  77.918 117.491  0.00  0.00    -0.090 HD
ATOM     21  H   LIG d   1      -8.726  77.223 118.770  0.00  0.00    -0.090 HD
ENDBRANCH   5  18
BRANCH   3  22
ATOM     22  C   LIG d   1      -8.254  72.546 116.365  0.00  0.00     0.382 C 
ATOM     23  O   LIG d   1      -7.621  71.541 115.962  0.00  0.00    -0.241 OA
ATOM     24  O   LIG d   1      -9.477  72.454 116.582  0.00  0.00    -0.241 OA
ENDBRANCH   3  22
TORSDOF 7
ENDMDL
