MODEL 1
REMARK VINA RESULT:      -5.6      0.000      0.000
REMARK  7 active torsions:
REMARK  status: ('A' for Active; 'I' for Inactive)
REMARK    1  A    between atoms: C_2  and  C_3 
REMARK    2  A    between atoms: C_3  and  O_6 
REMARK    3  A    between atoms: C_3  and  C_4 
REMARK    4  A    between atoms: C_7  and  O_6 
REMARK    5  A    between atoms: C_9  and  C_10 
REMARK    6  A    between atoms: N_15  and  C_14 
REMARK    7  A    between atoms: N_20  and  C_19 
REMARK       I    between atoms: C_22  and  N_20 
ROOT
ATOM      1  C   LIG d   1       0.151  83.768 112.994  0.00  0.00     0.161 C 
ATOM      2  C   LIG d   1       1.037  84.628 112.324  0.00  0.00     0.016 C 
ATOM      3  C   LIG d   1       1.487  84.406 111.002  0.00  0.00     0.038 C 
ATOM      4  C   LIG d   1       0.960  83.382 110.201  0.00  0.00     0.028 C 
ATOM      5  C   LIG d   1       0.441  82.193 111.003  0.00  0.00    -0.047 C 
ATOM      6  C   LIG d   1      -0.521  82.707 112.098  0.00  0.00     0.091 C 
ENDROOT
BRANCH   1   7
ATOM      7  O   LIG d   1      -0.847  84.541 113.690  0.00  0.00    -0.368 OA
BRANCH   7   8
ATOM      8  C   LIG d   1      -0.739  84.567 115.135  0.00  0.00     0.119 C 
BRANCH   8   9
ATOM      9  C   LIG d   1      -2.074  84.053 115.708  0.00  0.00     0.028 C 
ATOM     10  C   LIG d   1      -1.891  82.817 116.604  0.00  0.00     0.006 C 
ENDBRANCH   8   9
BRANCH   8  11
ATOM     11  C   LIG d   1      -0.598  85.999 115.658  0.00  0.00     0.028 C 
ATOM     12  C   LIG d   1       0.859  86.489 115.668  0.00  0.00     0.006 C 
ENDBRANCH   8  11
ENDBRANCH   7   8
ENDBRANCH   1   7
BRANCH   6  13
ATOM     13  N   LIG d   1      -1.009  81.616 112.982  0.00  0.00    -0.311 N 
ATOM     14  C   LIG d   1      -2.285  81.241 113.048  0.00  0.00     0.210 C 
ATOM     15  C   LIG d   1      -2.576  80.110 114.039  0.00  0.00     0.109 C 
ATOM     16  O   LIG d   1      -3.199  81.717 112.357  0.00  0.00    -0.276 OA
ATOM     17  H   LIG d   1      -0.329  81.155 113.554  0.00  0.00     0.149 HD
ENDBRANCH   6  13
BRANCH   5  18
ATOM     18  N   LIG d   1      -0.204  81.264 110.056  0.00  0.00     0.381 N 
ATOM     19  H   LIG d   1      -0.441  81.750 109.214  0.00  0.00    -0.090 HD
ATOM     20  H   LIG d   1      -1.051  80.915 110.468  0.00  0.00    -0.090 HD
ATOM     21  H   LIG d   1       0.410  80.507 109.849  0.00  0.00    -0.090 HD
ENDBRANCH   5  18
BRANCH   3  22
ATOM     22  C   LIG d   1       2.505  85.190 110.482  0.00  0.00     0.382 C 
ATOM     23  O   LIG d   1       3.642  84.695 110.288  0.00  0.00    -0.241 OA
ATOM     24  O   LIG d   1       2.315  86.398 110.245  0.00  0.00    -0.241 OA
ENDBRANCH   3  22
TORSDOF 7
ENDMDL
MODEL 2
REMARK VINA RESULT:      -5.3      2.506      6.116
REMARK  7 active torsions:
REMARK  status: ('A' for Active; 'I' for Inactive)
REMARK    1  A    between atoms: C_2  and  C_3 
REMARK    2  A    between atoms: C_3  and  O_6 
REMARK    3  A    between atoms: C_3  and  C_4 
REMARK    4  A    between atoms: C_7  and  O_6 
REMARK    5  A    between atoms: C_9  and  C_10 
REMARK    6  A    between atoms: N_15  and  C_14 
REMARK    7  A    between atoms: N_20  and  C_19 
REMARK       I    between atoms: C_22  and  N_20 
ROOT
ATOM      1  C   LIG d   1      -1.012  81.193 112.477  0.00  0.00     0.161 C 
ATOM      2  C   LIG d   1      -1.536  79.962 112.048  0.00  0.00     0.016 C 
ATOM      3  C   LIG d   1      -2.389  79.161 112.841  0.00  0.00     0.038 C 
ATOM      4  C   LIG d   1      -2.900  79.611 114.068  0.00  0.00     0.028 C 
ATOM      5  C   LIG d   1      -1.999  80.625 114.764  0.00  0.00    -0.047 C 
ATOM      6  C   LIG d   1      -1.647  81.752 113.767  0.00  0.00     0.091 C 
ENDROOT
BRANCH   1   7
ATOM      7  O   LIG d   1      -1.104  82.161 111.412  0.00  0.00    -0.368 OA
BRANCH   7   8
ATOM      8  C   LIG d   1       0.057  82.274 110.552  0.00  0.00     0.119 C 
BRANCH   8   9
ATOM      9  C   LIG d   1       1.283  81.817 111.366  0.00  0.00     0.028 C 
ATOM     10  C   LIG d   1       2.452  81.377 110.468  0.00  0.00     0.006 C 
ENDBRANCH   8   9
BRANCH   8  11
ATOM     11  C   LIG d   1       0.336  83.734 110.184  0.00  0.00     0.028 C 
ATOM     12  C   LIG d   1       0.223  84.684 111.387  0.00  0.00     0.006 C 
ENDBRANCH   8  11
ENDBRANCH   7   8
ENDBRANCH   1   7
BRANCH   6  13
ATOM     13  N   LIG d   1      -0.700  82.743 114.342  0.00  0.00    -0.311 N 
ATOM     14  C   LIG d   1      -1.089  83.853 114.966  0.00  0.00     0.210 C 
ATOM     15  C   LIG d   1       0.050  84.747 115.466  0.00  0.00     0.109 C 
ATOM     16  O   LIG d   1      -2.270  84.166 115.182  0.00  0.00    -0.276 OA
ATOM     17  H   LIG d   1       0.278  82.552 114.239  0.00  0.00     0.149 HD
ENDBRANCH   6  13
BRANCH   5  18
ATOM     18  N   LIG d   1      -2.715  81.112 115.958  0.00  0.00     0.381 N 
ATOM     19  H   LIG d   1      -2.185  80.903 116.780  0.00  0.00    -0.090 HD
ATOM     20  H   LIG d   1      -3.598  80.637 116.023  0.00  0.00    -0.090 HD
ATOM     21  H   LIG d   1      -2.862  82.095 115.890  0.00  0.00    -0.090 HD
ENDBRANCH   5  18
BRANCH   3  22
ATOM     22  C   LIG d   1      -2.707  77.876 112.427  0.00  0.00     0.382 C 
ATOM     23  O   LIG d   1      -3.585  77.220 113.037  0.00  0.00    -0.241 OA
ATOM     24  O   LIG d   1      -2.096  77.349 111.478  0.00  0.00    -0.241 OA
ENDBRANCH   3  22
TORSDOF 7
ENDMDL
MODEL 3
REMARK VINA RESULT:      -5.2      1.297      2.073
REMARK  7 active torsions:
REMARK  status: ('A' for Active; 'I' for Inactive)
REMARK    1  A    between atoms: C_2  and  C_3 
REMARK    2  A    between atoms: C_3  and  O_6 
REMARK    3  A    between atoms: C_3  and  C_4 
REMARK    4  A    between atoms: C_7  and  O_6 
REMARK    5  A    between atoms: C_9  and  C_10 
REMARK    6  A    between atoms: N_15  and  C_14 
REMARK    7  A    between atoms: N_20  and  C_19 
REMARK       I    between atoms: C_22  and  N_20 
ROOT
ATOM      1  C   LIG d   1      -0.069  84.100 113.592  0.00  0.00     0.161 C 
ATOM      2  C   LIG d   1       0.553  85.292 113.184  0.00  0.00     0.016 C 
ATOM      3  C   LIG d   1       0.921  85.559 111.846  0.00  0.00     0.038 C 
ATOM      4  C   LIG d   1       0.552  84.710 110.791  0.00  0.00     0.028 C 
ATOM      5  C   LIG d   1       0.369  83.258 111.219  0.00  0.00    -0.047 C 
ATOM      6  C   LIG d   1      -0.580  83.210 112.439  0.00  0.00     0.091 C 
ENDROOT
BRANCH   1   7
ATOM      7  O   LIG d   1      -1.142  84.397 114.508  0.00  0.00    -0.368 OA
BRANCH   7   8
ATOM      8  C   LIG d   1      -0.919  84.027 115.891  0.00  0.00     0.119 C 
BRANCH   8   9
ATOM      9  C   LIG d   1       0.427  83.281 115.960  0.00  0.00     0.028 C 
ATOM     10  C   LIG d   1       0.298  81.897 116.618  0.00  0.00     0.006 C 
ENDBRANCH   8   9
BRANCH   8  11
ATOM     11  C   LIG d   1      -1.966  83.019 116.374  0.00  0.00     0.028 C 
ATOM     12  C   LIG d   1      -3.278  83.094 115.576  0.00  0.00     0.006 C 
ENDBRANCH   8  11
ENDBRANCH   7   8
ENDBRANCH   1   7
BRANCH   6  13
ATOM     13  N   LIG d   1      -0.746  81.833 112.973  0.00  0.00    -0.311 N 
ATOM     14  C   LIG d   1      -1.873  81.132 112.856  0.00  0.00     0.210 C 
ATOM     15  C   LIG d   1      -1.838  79.741 113.495  0.00  0.00     0.109 C 
ATOM     16  O   LIG d   1      -2.886  81.518 112.254  0.00  0.00    -0.276 OA
ATOM     17  H   LIG d   1       0.038  81.430 113.449  0.00  0.00     0.149 HD
ENDBRANCH   6  13
BRANCH   5  18
ATOM     18  N   LIG d   1      -0.148  82.513 110.055  0.00  0.00     0.381 N 
ATOM     19  H   LIG d   1      -1.113  82.292 110.196  0.00  0.00    -0.090 HD
ATOM     20  H   LIG d   1       0.363  81.652 109.968  0.00  0.00    -0.090 HD
ATOM     21  H   LIG d   1      -0.040  83.056 109.227  0.00  0.00    -0.090 HD
ENDBRANCH   5  18
BRANCH   3  22
ATOM     22  C   LIG d   1       1.701  86.668 111.556  0.00  0.00     0.382 C 
ATOM     23  O   LIG d   1       1.753  87.627 112.364  0.00  0.00    -0.241 OA
ATOM     24  O   LIG d   1       2.318  86.742 110.477  0.00  0.00    -0.241 OA
ENDBRANCH   3  22
TORSDOF 7
ENDMDL
MODEL 4
REMARK VINA RESULT:      -5.2      3.728      7.235
REMARK  7 active torsions:
REMARK  status: ('A' for Active; 'I' for Inactive)
REMARK    1  A    between atoms: C_2  and  C_3 
REMARK    2  A    between atoms: C_3  and  O_6 
REMARK    3  A    between atoms: C_3  and  C_4 
REMARK    4  A    between atoms: C_7  and  O_6 
REMARK    5  A    between atoms: C_9  and  C_10 
REMARK    6  A    between atoms: N_15  and  C_14 
REMARK    7  A    between atoms: N_20  and  C_19 
REMARK       I    between atoms: C_22  and  N_20 
ROOT
ATOM      1  C   LIG d   1       1.835  86.443 113.224  0.00  0.00     0.161 C 
ATOM      2  C   LIG d   1       0.686  85.765 113.663  0.00  0.00     0.016 C 
ATOM      3  C   LIG d   1       0.232  85.789 115.002  0.00  0.00     0.038 C 
ATOM      4  C   LIG d   1       0.816  86.622 115.968  0.00  0.00     0.028 C 
ATOM      5  C   LIG d   1       2.283  86.935 115.691  0.00  0.00    -0.047 C 
ATOM      6  C   LIG d   1       2.421  87.447 114.239  0.00  0.00     0.091 C 
ENDROOT
BRANCH   1   7
ATOM      7  O   LIG d   1       1.565  87.100 111.969  0.00  0.00    -0.368 OA
BRANCH   7   8
ATOM      8  C   LIG d   1       2.254  86.569 110.811  0.00  0.00     0.119 C 
BRANCH   8   9
ATOM      9  C   LIG d   1       1.261  85.663 110.056  0.00  0.00     0.028 C 
ATOM     10  C   LIG d   1      -0.190  86.162 110.168  0.00  0.00     0.006 C 
ENDBRANCH   8   9
BRANCH   8  11
ATOM     11  C   LIG d   1       3.408  85.650 111.222  0.00  0.00     0.028 C 
ATOM     12  C   LIG d   1       3.481  84.369 110.375  0.00  0.00     0.006 C 
ENDBRANCH   8  11
ENDBRANCH   7   8
ENDBRANCH   1   7
BRANCH   6  13
ATOM     13  N   LIG d   1       3.836  87.696 113.858  0.00  0.00    -0.311 N 
ATOM     14  C   LIG d   1       4.310  88.902 113.548  0.00  0.00     0.210 C 
ATOM     15  C   LIG d   1       5.793  88.934 113.165  0.00  0.00     0.109 C 
ATOM     16  O   LIG d   1       3.651  89.952 113.585  0.00  0.00    -0.276 OA
ATOM     17  H   LIG d   1       4.448  86.904 113.833  0.00  0.00     0.149 HD
ENDBRANCH   6  13
BRANCH   5  18
ATOM     18  N   LIG d   1       2.726  87.920 116.696  0.00  0.00     0.381 N 
ATOM     19  H   LIG d   1       2.032  88.011 117.410  0.00  0.00    -0.090 HD
ATOM     20  H   LIG d   1       2.838  88.813 116.248  0.00  0.00    -0.090 HD
ATOM     21  H   LIG d   1       3.591  87.631 117.098  0.00  0.00    -0.090 HD
ENDBRANCH   5  18
BRANCH   3  22
ATOM     22  C   LIG d   1      -0.793  84.943 115.396  0.00  0.00     0.382 C 
ATOM     23  O   LIG d   1      -1.942  85.083 114.912  0.00  0.00    -0.241 OA
ATOM     24  O   LIG d   1      -0.595  84.070 116.262  0.00  0.00    -0.241 OA
ENDBRANCH   3  22
TORSDOF 7
ENDMDL
MODEL 5
REMARK VINA RESULT:      -5.2      4.583      6.764
REMARK  7 active torsions:
REMARK  status: ('A' for Active; 'I' for Inactive)
REMARK    1  A    between atoms: C_2  and  C_3 
REMARK    2  A    between atoms: C_3  and  O_6 
REMARK    3  A    between atoms: C_3  and  C_4 
REMARK    4  A    between atoms: C_7  and  O_6 
REMARK    5  A    between atoms: C_9  and  C_10 
REMARK    6  A    between atoms: N_15  and  C_14 
REMARK    7  A    between atoms: N_20  and  C_19 
REMARK       I    between atoms: C_22  and  N_20 
ROOT
ATOM      1  C   LIG d   1       3.150  87.244 114.413  0.00  0.00     0.161 C 
ATOM      2  C   LIG d   1       2.848  86.549 113.230  0.00  0.00     0.016 C 
ATOM      3  C   LIG d   1       3.731  86.467 112.129  0.00  0.00     0.038 C 
ATOM      4  C   LIG d   1       5.046  86.950 112.196  0.00  0.00     0.028 C 
ATOM      5  C   LIG d   1       5.220  88.099 113.183  0.00  0.00    -0.047 C 
ATOM      6  C   LIG d   1       4.623  87.683 114.547  0.00  0.00     0.091 C 
ENDROOT
BRANCH   1   7
ATOM      7  O   LIG d   1       2.755  86.458 115.555  0.00  0.00    -0.368 OA
BRANCH   7   8
ATOM      8  C   LIG d   1       1.425  86.707 116.072  0.00  0.00     0.119 C 
BRANCH   8   9
ATOM      9  C   LIG d   1       1.573  87.588 117.327  0.00  0.00     0.028 C 
ATOM     10  C   LIG d   1       0.661  88.826 117.286  0.00  0.00     0.006 C 
ENDBRANCH   8   9
BRANCH   8  11
ATOM     11  C   LIG d   1       0.765  85.414 116.560  0.00  0.00     0.028 C 
ATOM     12  C   LIG d   1      -0.427  84.988 115.688  0.00  0.00     0.006 C 
ENDBRANCH   8  11
ENDBRANCH   7   8
ENDBRANCH   1   7
BRANCH   6  13
ATOM     13  N   LIG d   1       4.675  88.781 115.547  0.00  0.00    -0.311 N 
ATOM     14  C   LIG d   1       3.935  89.885 115.464  0.00  0.00     0.210 C 
ATOM     15  C   LIG d   1       4.159  90.900 116.589  0.00  0.00     0.109 C 
ATOM     16  O   LIG d   1       3.092  90.106 114.581  0.00  0.00    -0.276 OA
ATOM     17  H   LIG d   1       5.310  88.670 116.314  0.00  0.00     0.149 HD
ENDBRANCH   6  13
BRANCH   5  18
ATOM     18  N   LIG d   1       6.659  88.412 113.254  0.00  0.00     0.381 N 
ATOM     19  H   LIG d   1       6.959  88.825 112.393  0.00  0.00    -0.090 HD
ATOM     20  H   LIG d   1       7.172  87.559 113.389  0.00  0.00    -0.090 HD
ATOM     21  H   LIG d   1       6.836  89.037 114.009  0.00  0.00    -0.090 HD
ENDBRANCH   5  18
BRANCH   3  22
ATOM     22  C   LIG d   1       3.286  85.930 110.930  0.00  0.00     0.382 C 
ATOM     23  O   LIG d   1       2.264  86.399 110.374  0.00  0.00    -0.241 OA
ATOM     24  O   LIG d   1       3.869  84.955 110.420  0.00  0.00    -0.241 OA
ENDBRANCH   3  22
TORSDOF 7
ENDMDL
MODEL 6
REMARK VINA RESULT:      -5.0      4.746      6.770
REMARK  7 active torsions:
REMARK  status: ('A' for Active; 'I' for Inactive)
REMARK    1  A    between atoms: C_2  and  C_3 
REMARK    2  A    between atoms: C_3  and  O_6 
REMARK    3  A    between atoms: C_3  and  C_4 
REMARK    4  A    between atoms: C_7  and  O_6 
REMARK    5  A    between atoms: C_9  and  C_10 
REMARK    6  A    between atoms: N_15  and  C_14 
REMARK    7  A    between atoms: N_20  and  C_19 
REMARK       I    between atoms: C_22  and  N_20 
ROOT
ATOM      1  C   LIG d   1       3.070  87.423 114.359  0.00  0.00     0.161 C 
ATOM      2  C   LIG d   1       3.075  88.473 115.293  0.00  0.00     0.016 C 
ATOM      3  C   LIG d   1       4.110  89.431 115.381  0.00  0.00     0.038 C 
ATOM      4  C   LIG d   1       5.144  89.495 114.435  0.00  0.00     0.028 C 
ATOM      5  C   LIG d   1       5.450  88.153 113.780  0.00  0.00    -0.047 C 
ATOM      6  C   LIG d   1       4.133  87.543 113.247  0.00  0.00     0.091 C 
ENDROOT
BRANCH   1   7
ATOM      7  O   LIG d   1       1.756  87.288 113.783  0.00  0.00    -0.368 OA
BRANCH   7   8
ATOM      8  C   LIG d   1       1.050  86.060 114.088  0.00  0.00     0.119 C 
BRANCH   8   9
ATOM      9  C   LIG d   1       0.070  85.790 112.930  0.00  0.00     0.028 C 
ATOM     10  C   LIG d   1       0.234  84.380 112.338  0.00  0.00     0.006 C 
ENDBRANCH   8   9
BRANCH   8  11
ATOM     11  C   LIG d   1       0.173  86.216 115.333  0.00  0.00     0.028 C 
ATOM     12  C   LIG d   1       0.745  85.488 116.560  0.00  0.00     0.006 C 
ENDBRANCH   8  11
ENDBRANCH   7   8
ENDBRANCH   1   7
BRANCH   6  13
ATOM     13  N   LIG d   1       4.330  86.189 112.665  0.00  0.00    -0.311 N 
ATOM     14  C   LIG d   1       3.731  85.776 111.550  0.00  0.00     0.210 C 
ATOM     15  C   LIG d   1       4.057  84.338 111.136  0.00  0.00     0.109 C 
ATOM     16  O   LIG d   1       2.987  86.475 110.847  0.00  0.00    -0.276 OA
ATOM     17  H   LIG d   1       4.944  85.567 113.155  0.00  0.00     0.149 HD
ENDBRANCH   6  13
BRANCH   5  18
ATOM     18  N   LIG d   1       6.448  88.391 112.720  0.00  0.00     0.381 N 
ATOM     19  H   LIG d   1       6.963  89.224 112.921  0.00  0.00    -0.090 HD
ATOM     20  H   LIG d   1       5.970  88.519 111.846  0.00  0.00    -0.090 HD
ATOM     21  H   LIG d   1       7.069  87.614 112.657  0.00  0.00    -0.090 HD
ENDBRANCH   5  18
BRANCH   3  22
ATOM     22  C   LIG d   1       4.139  90.316 116.449  0.00  0.00     0.382 C 
ATOM     23  O   LIG d   1       3.568  91.429 116.356  0.00  0.00    -0.241 OA
ATOM     24  O   LIG d   1       4.767  90.032 117.487  0.00  0.00    -0.241 OA
ENDBRANCH   3  22
TORSDOF 7
ENDMDL
MODEL 7
REMARK VINA RESULT:      -5.0      2.887      4.095
REMARK  7 active torsions:
REMARK  status: ('A' for Active; 'I' for Inactive)
REMARK    1  A    between atoms: C_2  and  C_3 
REMARK    2  A    between atoms: C_3  and  O_6 
REMARK    3  A    between atoms: C_3  and  C_4 
REMARK    4  A    between atoms: C_7  and  O_6 
REMARK    5  A    between atoms: C_9  and  C_10 
REMARK    6  A    between atoms: N_15  and  C_14 
REMARK    7  A    between atoms: N_20  and  C_19 
REMARK       I    between atoms: C_22  and  N_20 
ROOT
ATOM      1  C   LIG d   1       2.684  84.760 113.362  0.00  0.00     0.161 C 
ATOM      2  C   LIG d   1       3.074  85.999 113.897  0.00  0.00     0.016 C 
ATOM      3  C   LIG d   1       2.893  87.229 113.225  0.00  0.00     0.038 C 
ATOM      4  C   LIG d   1       2.167  87.320 112.028  0.00  0.00     0.028 C 
ATOM      5  C   LIG d   1       2.195  86.038 111.203  0.00  0.00    -0.047 C 
ATOM      6  C   LIG d   1       1.790  84.851 112.107  0.00  0.00     0.091 C 
ENDROOT
BRANCH   1   7
ATOM      7  O   LIG d   1       2.039  83.969 114.380  0.00  0.00    -0.368 OA
BRANCH   7   8
ATOM      8  C   LIG d   1       0.598  84.093 114.467  0.00  0.00     0.119 C 
BRANCH   8   9
ATOM      9  C   LIG d   1       0.272  84.765 115.815  0.00  0.00     0.028 C 
ATOM     10  C   LIG d   1      -0.166  86.230 115.650  0.00  0.00     0.006 C 
ENDBRANCH   8   9
BRANCH   8  11
ATOM     11  C   LIG d   1      -0.077  82.720 114.524  0.00  0.00     0.028 C 
ATOM     12  C   LIG d   1       0.911  81.561 114.315  0.00  0.00     0.006 C 
ENDBRANCH   8  11
ENDBRANCH   7   8
ENDBRANCH   1   7
BRANCH   6  13
ATOM     13  N   LIG d   1       1.873  83.546 111.400  0.00  0.00    -0.311 N 
ATOM     14  C   LIG d   1       0.829  82.960 110.818  0.00  0.00     0.210 C 
ATOM     15  C   LIG d   1       1.128  81.608 110.162  0.00  0.00     0.109 C 
ATOM     16  O   LIG d   1      -0.311  83.446 110.755  0.00  0.00    -0.276 OA
ATOM     17  H   LIG d   1       2.767  83.096 111.377  0.00  0.00     0.149 HD
ENDBRANCH   6  13
BRANCH   5  18
ATOM     18  N   LIG d   1       1.289  86.226 110.055  0.00  0.00     0.381 N 
ATOM     19  H   LIG d   1       0.608  85.493 110.037  0.00  0.00    -0.090 HD
ATOM     20  H   LIG d   1       1.825  86.179 109.206  0.00  0.00    -0.090 HD
ATOM     21  H   LIG d   1       0.834  87.110 110.121  0.00  0.00    -0.090 HD
ENDBRANCH   5  18
BRANCH   3  22
ATOM     22  C   LIG d   1       3.476  88.381 113.730  0.00  0.00     0.382 C 
ATOM     23  O   LIG d   1       3.130  89.504 113.291  0.00  0.00    -0.241 OA
ATOM     24  O   LIG d   1       4.376  88.309 114.589  0.00  0.00    -0.241 OA
ENDBRANCH   3  22
TORSDOF 7
ENDMDL
MODEL 8
REMARK VINA RESULT:      -4.9      2.291      5.739
REMARK  7 active torsions:
REMARK  status: ('A' for Active; 'I' for Inactive)
REMARK    1  A    between atoms: C_2  and  C_3 
REMARK    2  A    between atoms: C_3  and  O_6 
REMARK    3  A    between atoms: C_3  and  C_4 
REMARK    4  A    between atoms: C_7  and  O_6 
REMARK    5  A    between atoms: C_9  and  C_10 
REMARK    6  A    between atoms: N_15  and  C_14 
REMARK    7  A    between atoms: N_20  and  C_19 
REMARK       I    between atoms: C_22  and  N_20 
ROOT
ATOM      1  C   LIG d   1       0.011  83.224 112.245  0.00  0.00     0.161 C 
ATOM      2  C   LIG d   1      -0.834  82.147 111.928  0.00  0.00     0.016 C 
ATOM      3  C   LIG d   1      -1.705  81.540 112.863  0.00  0.00     0.038 C 
ATOM      4  C   LIG d   1      -1.900  82.071 114.147  0.00  0.00     0.028 C 
ATOM      5  C   LIG d   1      -0.697  82.848 114.671  0.00  0.00    -0.047 C 
ATOM      6  C   LIG d   1      -0.270  83.887 113.609  0.00  0.00     0.091 C 
ENDROOT
BRANCH   1   7
ATOM      7  O   LIG d   1      -0.035  84.207 111.191  0.00  0.00    -0.368 OA
BRANCH   7   8
ATOM      8  C   LIG d   1       1.103  84.233 110.294  0.00  0.00     0.119 C 
BRANCH   8   9
ATOM      9  C   LIG d   1       2.268  83.518 111.004  0.00  0.00     0.028 C 
ATOM     10  C   LIG d   1       3.058  82.600 110.056  0.00  0.00     0.006 C 
ENDBRANCH   8   9
BRANCH   8  11
ATOM     11  C   LIG d   1       1.591  85.665 110.056  0.00  0.00     0.028 C 
ATOM     12  C   LIG d   1       0.972  86.676 111.034  0.00  0.00     0.006 C 
ENDBRANCH   8  11
ENDBRANCH   7   8
ENDBRANCH   1   7
BRANCH   6  13
ATOM     13  N   LIG d   1       0.952  84.633 114.006  0.00  0.00    -0.311 N 
ATOM     14  C   LIG d   1       0.923  85.828 114.595  0.00  0.00     0.210 C 
ATOM     15  C   LIG d   1       2.297  86.431 114.902  0.00  0.00     0.109 C 
ATOM     16  O   LIG d   1      -0.111  86.430 114.921  0.00  0.00    -0.276 OA
ATOM     17  H   LIG d   1       1.834  84.203 113.807  0.00  0.00     0.149 HD
ENDBRANCH   6  13
BRANCH   5  18
ATOM     18  N   LIG d   1      -1.087  83.460 115.955  0.00  0.00     0.381 N 
ATOM     19  H   LIG d   1      -0.835  84.428 115.959  0.00  0.00    -0.090 HD
ATOM     20  H   LIG d   1      -0.589  83.001 116.698  0.00  0.00    -0.090 HD
ATOM     21  H   LIG d   1      -2.069  83.364 116.094  0.00  0.00    -0.090 HD
ENDBRANCH   5  18
BRANCH   3  22
ATOM     22  C   LIG d   1      -2.361  80.365 112.529  0.00  0.00     0.382 C 
ATOM     23  O   LIG d   1      -1.885  79.611 111.646  0.00  0.00    -0.241 OA
ATOM     24  O   LIG d   1      -3.445  80.072 113.067  0.00  0.00    -0.241 OA
ENDBRANCH   3  22
TORSDOF 7
ENDMDL
MODEL 9
REMARK VINA RESULT:      -4.8      3.024      4.181
REMARK  7 active torsions:
REMARK  status: ('A' for Active; 'I' for Inactive)
REMARK    1  A    between atoms: C_2  and  C_3 
REMARK    2  A    between atoms: C_3  and  O_6 
REMARK    3  A    between atoms: C_3  and  C_4 
REMARK    4  A    between atoms: C_7  and  O_6 
REMARK    5  A    between atoms: C_9  and  C_10 
REMARK    6  A    between atoms: N_15  and  C_14 
REMARK    7  A    between atoms: N_20  and  C_19 
REMARK       I    between atoms: C_22  and  N_20 
ROOT
ATOM      1  C   LIG d   1       2.285  86.179 113.889  0.00  0.00     0.161 C 
ATOM      2  C   LIG d   1       3.334  87.108 113.981  0.00  0.00     0.016 C 
ATOM      3  C   LIG d   1       4.352  87.232 113.007  0.00  0.00     0.038 C 
ATOM      4  C   LIG d   1       4.304  86.532 111.792  0.00  0.00     0.028 C 
ATOM      5  C   LIG d   1       3.537  85.217 111.880  0.00  0.00    -0.047 C 
ATOM      6  C   LIG d   1       2.155  85.484 112.517  0.00  0.00     0.091 C 
ENDROOT
BRANCH   1   7
ATOM      7  O   LIG d   1       1.041  86.809 114.252  0.00  0.00    -0.368 OA
BRANCH   7   8
ATOM      8  C   LIG d   1       0.375  86.277 115.424  0.00  0.00     0.119 C 
BRANCH   8   9
ATOM      9  C   LIG d   1       0.373  87.383 116.497  0.00  0.00     0.028 C 
ATOM     10  C   LIG d   1       1.657  87.380 117.344  0.00  0.00     0.006 C 
ENDBRANCH   8   9
BRANCH   8  11
ATOM     11  C   LIG d   1       1.166  85.118 116.036  0.00  0.00     0.028 C 
ATOM     12  C   LIG d   1       0.275  83.927 116.423  0.00  0.00     0.006 C 
ENDBRANCH   8  11
ENDBRANCH   7   8
ENDBRANCH   1   7
BRANCH   6  13
ATOM     13  N   LIG d   1       1.373  84.236 112.718  0.00  0.00    -0.311 N 
ATOM     14  C   LIG d   1       0.139  84.060 112.247  0.00  0.00     0.210 C 
ATOM     15  C   LIG d   1      -0.495  82.707 112.584  0.00  0.00     0.109 C 
ATOM     16  O   LIG d   1      -0.478  84.884 111.556  0.00  0.00    -0.276 OA
ATOM     17  H   LIG d   1       1.810  83.503 113.242  0.00  0.00     0.149 HD
ENDBRANCH   6  13
BRANCH   5  18
ATOM     18  N   LIG d   1       3.448  84.661 110.517  0.00  0.00     0.381 N 
ATOM     19  H   LIG d   1       3.858  83.749 110.495  0.00  0.00    -0.090 HD
ATOM     20  H   LIG d   1       3.963  85.253 109.889  0.00  0.00    -0.090 HD
ATOM     21  H   LIG d   1       2.495  84.612 110.230  0.00  0.00    -0.090 HD
ENDBRANCH   5  18
BRANCH   3  22
ATOM     22  C   LIG d   1       5.453  88.035 113.262  0.00  0.00     0.382 C 
ATOM     23  O   LIG d   1       5.550  89.159 112.714  0.00  0.00    -0.241 OA
ATOM     24  O   LIG d   1       6.373  87.630 113.998  0.00  0.00    -0.241 OA
ENDBRANCH   3  22
TORSDOF 7
ENDMDL
