MODEL 1
REMARK VINA RESULT:      -5.4      0.000      0.000
REMARK  7 active torsions:
REMARK  status: ('A' for Active; 'I' for Inactive)
REMARK    1  A    between atoms: C_2  and  C_3 
REMARK    2  A    between atoms: C_3  and  O_6 
REMARK    3  A    between atoms: C_3  and  C_4 
REMARK    4  A    between atoms: C_7  and  O_6 
REMARK    5  A    between atoms: C_9  and  C_10 
REMARK    6  A    between atoms: N_15  and  C_14 
REMARK    7  A    between atoms: N_20  and  C_19 
REMARK       I    between atoms: C_22  and  N_20 
ROOT
ATOM      1  C   LIG d   1       2.734  86.229 113.685  0.00  0.00     0.161 C 
ATOM      2  C   LIG d   1       3.261  87.459 113.256  0.00  0.00     0.016 C 
ATOM      3  C   LIG d   1       4.340  88.110 113.898  0.00  0.00     0.038 C 
ATOM      4  C   LIG d   1       5.067  87.498 114.929  0.00  0.00     0.028 C 
ATOM      5  C   LIG d   1       4.254  86.482 115.724  0.00  0.00    -0.047 C 
ATOM      6  C   LIG d   1       3.587  85.493 114.740  0.00  0.00     0.091 C 
ENDROOT
BRANCH   1   7
ATOM      7  O   LIG d   1       2.498  85.375 112.548  0.00  0.00    -0.368 OA
BRANCH   7   8
ATOM      8  C   LIG d   1       2.949  85.880 111.268  0.00  0.00     0.119 C 
BRANCH   8   9
ATOM      9  C   LIG d   1       1.768  85.767 110.284  0.00  0.00     0.028 C 
ATOM     10  C   LIG d   1       0.476  86.383 110.845  0.00  0.00     0.006 C 
ENDBRANCH   8   9
BRANCH   8  11
ATOM     11  C   LIG d   1       4.053  84.997 110.679  0.00  0.00     0.028 C 
ATOM     12  C   LIG d   1       4.101  83.599 111.315  0.00  0.00     0.006 C 
ENDBRANCH   8  11
ENDBRANCH   7   8
ENDBRANCH   1   7
BRANCH   6  13
ATOM     13  N   LIG d   1       2.705  84.516 115.430  0.00  0.00    -0.311 N 
ATOM     14  C   LIG d   1       3.123  83.328 115.861  0.00  0.00     0.210 C 
ATOM     15  C   LIG d   1       2.046  82.466 116.528  0.00  0.00     0.109 C 
ATOM     16  O   LIG d   1       4.291  82.918 115.784  0.00  0.00    -0.276 OA
ATOM     17  H   LIG d   1       1.748  84.780 115.562  0.00  0.00     0.149 HD
ENDBRANCH   6  13
BRANCH   5  18
ATOM     18  N   LIG d   1       5.171  85.822 116.673  0.00  0.00     0.381 N 
ATOM     19  H   LIG d   1       5.689  85.107 116.203  0.00  0.00    -0.090 HD
ATOM     20  H   LIG d   1       4.629  85.391 117.402  0.00  0.00    -0.090 HD
ATOM     21  H   LIG d   1       5.795  86.492 117.066  0.00  0.00    -0.090 HD
ENDBRANCH   5  18
BRANCH   3  22
ATOM     22  C   LIG d   1       4.674  89.405 113.535  0.00  0.00     0.382 C 
ATOM     23  O   LIG d   1       4.001  90.372 113.968  0.00  0.00    -0.241 OA
ATOM     24  O   LIG d   1       5.613  89.617 112.744  0.00  0.00    -0.241 OA
ENDBRANCH   3  22
TORSDOF 7
ENDMDL
MODEL 2
REMARK VINA RESULT:      -5.1      3.208      4.317
REMARK  7 active torsions:
REMARK  status: ('A' for Active; 'I' for Inactive)
REMARK    1  A    between atoms: C_2  and  C_3 
REMARK    2  A    between atoms: C_3  and  O_6 
REMARK    3  A    between atoms: C_3  and  C_4 
REMARK    4  A    between atoms: C_7  and  O_6 
REMARK    5  A    between atoms: C_9  and  C_10 
REMARK    6  A    between atoms: N_15  and  C_14 
REMARK    7  A    between atoms: N_20  and  C_19 
REMARK       I    between atoms: C_22  and  N_20 
ROOT
ATOM      1  C   LIG d   1       1.352  83.192 113.000  0.00  0.00     0.161 C 
ATOM      2  C   LIG d   1       0.518  83.874 112.099  0.00  0.00     0.016 C 
ATOM      3  C   LIG d   1       0.200  85.246 112.219  0.00  0.00     0.038 C 
ATOM      4  C   LIG d   1       0.819  86.070 113.170  0.00  0.00     0.028 C 
ATOM      5  C   LIG d   1       1.281  85.318 114.414  0.00  0.00    -0.047 C 
ATOM      6  C   LIG d   1       2.126  84.099 113.979  0.00  0.00     0.091 C 
ENDROOT
BRANCH   1   7
ATOM      7  O   LIG d   1       2.265  82.344 112.275  0.00  0.00    -0.368 OA
BRANCH   7   8
ATOM      8  C   LIG d   1       2.553  82.737 110.910  0.00  0.00     0.119 C 
BRANCH   8   9
ATOM      9  C   LIG d   1       2.580  81.455 110.055  0.00  0.00     0.028 C 
ATOM     10  C   LIG d   1       3.339  80.308 110.743  0.00  0.00     0.006 C 
ENDBRANCH   8   9
BRANCH   8  11
ATOM     11  C   LIG d   1       3.956  83.337 110.787  0.00  0.00     0.028 C 
ATOM     12  C   LIG d   1       3.945  84.873 110.740  0.00  0.00     0.006 C 
ENDBRANCH   8  11
ENDBRANCH   7   8
ENDBRANCH   1   7
BRANCH   6  13
ATOM     13  N   LIG d   1       2.547  83.261 115.132  0.00  0.00    -0.311 N 
ATOM     14  C   LIG d   1       3.726  83.387 115.738  0.00  0.00     0.210 C 
ATOM     15  C   LIG d   1       3.967  82.410 116.893  0.00  0.00     0.109 C 
ATOM     16  O   LIG d   1       4.582  84.238 115.450  0.00  0.00    -0.276 OA
ATOM     17  H   LIG d   1       1.900  82.566 115.451  0.00  0.00     0.149 HD
ENDBRANCH   6  13
BRANCH   5  18
ATOM     18  N   LIG d   1       2.030  86.269 115.258  0.00  0.00     0.381 N 
ATOM     19  H   LIG d   1       2.959  86.378 114.903  0.00  0.00    -0.090 HD
ATOM     20  H   LIG d   1       2.090  85.899 116.190  0.00  0.00    -0.090 HD
ATOM     21  H   LIG d   1       1.566  87.151 115.271  0.00  0.00    -0.090 HD
ENDBRANCH   5  18
BRANCH   3  22
ATOM     22  C   LIG d   1      -0.779  85.799 111.407  0.00  0.00     0.382 C 
ATOM     23  O   LIG d   1      -1.605  86.612 111.885  0.00  0.00    -0.241 OA
ATOM     24  O   LIG d   1      -0.873  85.460 110.212  0.00  0.00    -0.241 OA
ENDBRANCH   3  22
TORSDOF 7
ENDMDL
MODEL 3
REMARK VINA RESULT:      -4.9     26.776     29.187
REMARK  7 active torsions:
REMARK  status: ('A' for Active; 'I' for Inactive)
REMARK    1  A    between atoms: C_2  and  C_3 
REMARK    2  A    between atoms: C_3  and  O_6 
REMARK    3  A    between atoms: C_3  and  C_4 
REMARK    4  A    between atoms: C_7  and  O_6 
REMARK    5  A    between atoms: C_9  and  C_10 
REMARK    6  A    between atoms: N_15  and  C_14 
REMARK    7  A    between atoms: N_20  and  C_19 
REMARK       I    between atoms: C_22  and  N_20 
ROOT
ATOM      1  C   LIG d   1     -25.530  85.882 113.112  0.00  0.00     0.161 C 
ATOM      2  C   LIG d   1     -24.431  86.735 113.304  0.00  0.00     0.016 C 
ATOM      3  C   LIG d   1     -23.088  86.293 113.280  0.00  0.00     0.038 C 
ATOM      4  C   LIG d   1     -22.745  84.984 112.910  0.00  0.00     0.028 C 
ATOM      5  C   LIG d   1     -23.842  83.965 113.201  0.00  0.00    -0.047 C 
ATOM      6  C   LIG d   1     -25.171  84.472 112.596  0.00  0.00     0.091 C 
ENDROOT
BRANCH   1   7
ATOM      7  O   LIG d   1     -26.487  86.507 112.234  0.00  0.00    -0.368 OA
BRANCH   7   8
ATOM      8  C   LIG d   1     -27.692  87.012 112.862  0.00  0.00     0.119 C 
BRANCH   8   9
ATOM      9  C   LIG d   1     -27.537  88.539 112.999  0.00  0.00     0.028 C 
ATOM     10  C   LIG d   1     -27.108  89.206 111.682  0.00  0.00     0.006 C 
ENDBRANCH   8   9
BRANCH   8  11
ATOM     11  C   LIG d   1     -27.836  86.488 114.294  0.00  0.00     0.028 C 
ATOM     12  C   LIG d   1     -29.018  85.519 114.458  0.00  0.00     0.006 C 
ENDBRANCH   8  11
ENDBRANCH   7   8
ENDBRANCH   1   7
BRANCH   6  13
ATOM     13  N   LIG d   1     -26.314  83.575 112.908  0.00  0.00    -0.311 N 
ATOM     14  C   LIG d   1     -27.247  83.239 112.019  0.00  0.00     0.210 C 
ATOM     15  C   LIG d   1     -28.349  82.319 112.553  0.00  0.00     0.109 C 
ATOM     16  O   LIG d   1     -27.248  83.590 110.829  0.00  0.00    -0.276 OA
ATOM     17  H   LIG d   1     -26.373  83.219 113.842  0.00  0.00     0.149 HD
ENDBRANCH   6  13
BRANCH   5  18
ATOM     18  N   LIG d   1     -23.408  82.672 112.641  0.00  0.00     0.381 N 
ATOM     19  H   LIG d   1     -23.553  81.946 113.314  0.00  0.00    -0.090 HD
ATOM     20  H   LIG d   1     -22.425  82.719 112.436  0.00  0.00    -0.090 HD
ATOM     21  H   LIG d   1     -23.919  82.471 111.810  0.00  0.00    -0.090 HD
ENDBRANCH   5  18
BRANCH   3  22
ATOM     22  C   LIG d   1     -22.074  87.155 113.668  0.00  0.00     0.382 C 
ATOM     23  O   LIG d   1     -20.958  87.108 113.097  0.00  0.00    -0.241 OA
ATOM     24  O   LIG d   1     -22.246  87.949 114.612  0.00  0.00    -0.241 OA
ENDBRANCH   3  22
TORSDOF 7
ENDMDL
MODEL 4
REMARK VINA RESULT:      -4.9      8.759     11.269
REMARK  7 active torsions:
REMARK  status: ('A' for Active; 'I' for Inactive)
REMARK    1  A    between atoms: C_2  and  C_3 
REMARK    2  A    between atoms: C_3  and  O_6 
REMARK    3  A    between atoms: C_3  and  C_4 
REMARK    4  A    between atoms: C_7  and  O_6 
REMARK    5  A    between atoms: C_9  and  C_10 
REMARK    6  A    between atoms: N_15  and  C_14 
REMARK    7  A    between atoms: N_20  and  C_19 
REMARK       I    between atoms: C_22  and  N_20 
ROOT
ATOM      1  C   LIG d   1      10.922  78.629 114.797  0.00  0.00     0.161 C 
ATOM      2  C   LIG d   1      10.435  77.335 114.547  0.00  0.00     0.016 C 
ATOM      3  C   LIG d   1       9.366  76.753 115.266  0.00  0.00     0.038 C 
ATOM      4  C   LIG d   1       8.606  77.488 116.188  0.00  0.00     0.028 C 
ATOM      5  C   LIG d   1       9.379  78.633 116.834  0.00  0.00    -0.047 C 
ATOM      6  C   LIG d   1      10.034  79.486 115.723  0.00  0.00     0.091 C 
ENDROOT
BRANCH   1   7
ATOM      7  O   LIG d   1      11.152  79.314 113.549  0.00  0.00    -0.368 OA
BRANCH   7   8
ATOM      8  C   LIG d   1      12.521  79.702 113.279  0.00  0.00     0.119 C 
BRANCH   8   9
ATOM      9  C   LIG d   1      12.501  81.166 112.800  0.00  0.00     0.028 C 
ATOM     10  C   LIG d   1      11.188  81.533 112.088  0.00  0.00     0.006 C 
ENDBRANCH   8   9
BRANCH   8  11
ATOM     11  C   LIG d   1      13.107  78.902 112.112  0.00  0.00     0.028 C 
ATOM     12  C   LIG d   1      13.601  77.508 112.533  0.00  0.00     0.006 C 
ENDBRANCH   8  11
ENDBRANCH   7   8
ENDBRANCH   1   7
BRANCH   6  13
ATOM     13  N   LIG d   1      10.879  80.579 116.271  0.00  0.00    -0.311 N 
ATOM     14  C   LIG d   1      10.681  81.867 115.995  0.00  0.00     0.210 C 
ATOM     15  C   LIG d   1      11.679  82.829 116.648  0.00  0.00     0.109 C 
ATOM     16  O   LIG d   1       9.755  82.307 115.298  0.00  0.00    -0.276 OA
ATOM     17  H   LIG d   1      11.634  80.314 116.872  0.00  0.00     0.149 HD
ENDBRANCH   6  13
BRANCH   5  18
ATOM     18  N   LIG d   1       8.431  79.398 117.666  0.00  0.00     0.381 N 
ATOM     19  H   LIG d   1       7.625  79.641 117.126  0.00  0.00    -0.090 HD
ATOM     20  H   LIG d   1       8.876  80.246 117.970  0.00  0.00    -0.090 HD
ATOM     21  H   LIG d   1       8.158  78.856 118.457  0.00  0.00    -0.090 HD
ENDBRANCH   5  18
BRANCH   3  22
ATOM     22  C   LIG d   1       9.072  75.409 115.093  0.00  0.00     0.382 C 
ATOM     23  O   LIG d   1       8.190  75.061 114.272  0.00  0.00    -0.241 OA
ATOM     24  O   LIG d   1       9.647  74.544 115.781  0.00  0.00    -0.241 OA
ENDBRANCH   3  22
TORSDOF 7
ENDMDL
MODEL 5
REMARK VINA RESULT:      -4.8      2.468      4.521
REMARK  7 active torsions:
REMARK  status: ('A' for Active; 'I' for Inactive)
REMARK    1  A    between atoms: C_2  and  C_3 
REMARK    2  A    between atoms: C_3  and  O_6 
REMARK    3  A    between atoms: C_3  and  C_4 
REMARK    4  A    between atoms: C_7  and  O_6 
REMARK    5  A    between atoms: C_9  and  C_10 
REMARK    6  A    between atoms: N_15  and  C_14 
REMARK    7  A    between atoms: N_20  and  C_19 
REMARK       I    between atoms: C_22  and  N_20 
ROOT
ATOM      1  C   LIG d   1       2.729  85.474 114.217  0.00  0.00     0.161 C 
ATOM      2  C   LIG d   1       3.140  86.814 114.300  0.00  0.00     0.016 C 
ATOM      3  C   LIG d   1       3.423  87.613 113.168  0.00  0.00     0.038 C 
ATOM      4  C   LIG d   1       3.166  87.167 111.863  0.00  0.00     0.028 C 
ATOM      5  C   LIG d   1       3.230  85.650 111.718  0.00  0.00    -0.047 C 
ATOM      6  C   LIG d   1       2.336  85.004 112.801  0.00  0.00     0.091 C 
ENDROOT
BRANCH   1   7
ATOM      7  O   LIG d   1       1.649  85.236 115.141  0.00  0.00    -0.368 OA
BRANCH   7   8
ATOM      8  C   LIG d   1       2.032  84.894 116.496  0.00  0.00     0.119 C 
BRANCH   8   9
ATOM      9  C   LIG d   1       1.838  83.374 116.662  0.00  0.00     0.028 C 
ATOM     10  C   LIG d   1       1.083  83.016 117.953  0.00  0.00     0.006 C 
ENDBRANCH   8   9
BRANCH   8  11
ATOM     11  C   LIG d   1       1.093  85.537 117.521  0.00  0.00     0.028 C 
ATOM     12  C   LIG d   1       0.369  86.776 116.970  0.00  0.00     0.006 C 
ENDBRANCH   8  11
ENDBRANCH   7   8
ENDBRANCH   1   7
BRANCH   6  13
ATOM     13  N   LIG d   1       2.407  83.520 112.783  0.00  0.00    -0.311 N 
ATOM     14  C   LIG d   1       1.332  82.734 112.781  0.00  0.00     0.210 C 
ATOM     15  C   LIG d   1       1.629  81.231 112.783  0.00  0.00     0.109 C 
ATOM     16  O   LIG d   1       0.160  83.139 112.746  0.00  0.00    -0.276 OA
ATOM     17  H   LIG d   1       3.319  83.107 112.779  0.00  0.00     0.149 HD
ENDBRANCH   6  13
BRANCH   5  18
ATOM     18  N   LIG d   1       2.808  85.316 110.345  0.00  0.00     0.381 N 
ATOM     19  H   LIG d   1       1.852  85.021 110.346  0.00  0.00    -0.090 HD
ATOM     20  H   LIG d   1       3.372  84.555 110.007  0.00  0.00    -0.090 HD
ATOM     21  H   LIG d   1       2.917  86.109 109.752  0.00  0.00    -0.090 HD
ENDBRANCH   5  18
BRANCH   3  22
ATOM     22  C   LIG d   1       4.007  88.859 113.335  0.00  0.00     0.382 C 
ATOM     23  O   LIG d   1       3.422  89.740 114.010  0.00  0.00    -0.241 OA
ATOM     24  O   LIG d   1       5.090  89.129 112.782  0.00  0.00    -0.241 OA
ENDBRANCH   3  22
TORSDOF 7
ENDMDL
MODEL 6
REMARK VINA RESULT:      -4.8      9.810     12.241
REMARK  7 active torsions:
REMARK  status: ('A' for Active; 'I' for Inactive)
REMARK    1  A    between atoms: C_2  and  C_3 
REMARK    2  A    between atoms: C_3  and  O_6 
REMARK    3  A    between atoms: C_3  and  C_4 
REMARK    4  A    between atoms: C_7  and  O_6 
REMARK    5  A    between atoms: C_9  and  C_10 
REMARK    6  A    between atoms: N_15  and  C_14 
REMARK    7  A    between atoms: N_20  and  C_19 
REMARK       I    between atoms: C_22  and  N_20 
ROOT
ATOM      1  C   LIG d   1      11.260  78.580 114.210  0.00  0.00     0.161 C 
ATOM      2  C   LIG d   1      10.072  77.963 114.638  0.00  0.00     0.016 C 
ATOM      3  C   LIG d   1       9.959  76.575 114.879  0.00  0.00     0.038 C 
ATOM      4  C   LIG d   1      11.075  75.724 114.853  0.00  0.00     0.028 C 
ATOM      5  C   LIG d   1      12.189  76.215 113.935  0.00  0.00    -0.047 C 
ATOM      6  C   LIG d   1      12.515  77.686 114.284  0.00  0.00     0.091 C 
ENDROOT
BRANCH   1   7
ATOM      7  O   LIG d   1      11.470  79.800 114.948  0.00  0.00    -0.368 OA
BRANCH   7   8
ATOM      8  C   LIG d   1      10.918  81.004 114.359  0.00  0.00     0.119 C 
BRANCH   8   9
ATOM      9  C   LIG d   1      11.822  81.396 113.174  0.00  0.00     0.028 C 
ATOM     10  C   LIG d   1      11.038  81.530 111.858  0.00  0.00     0.006 C 
ENDBRANCH   8   9
BRANCH   8  11
ATOM     11  C   LIG d   1      10.991  82.184 115.332  0.00  0.00     0.028 C 
ATOM     12  C   LIG d   1       9.879  83.219 115.097  0.00  0.00     0.006 C 
ENDBRANCH   8  11
ENDBRANCH   7   8
ENDBRANCH   1   7
BRANCH   6  13
ATOM     13  N   LIG d   1      13.538  78.270 113.377  0.00  0.00    -0.311 N 
ATOM     14  C   LIG d   1      14.590  78.962 113.809  0.00  0.00     0.210 C 
ATOM     15  C   LIG d   1      15.511  79.494 112.705  0.00  0.00     0.109 C 
ATOM     16  O   LIG d   1      14.867  79.159 115.001  0.00  0.00    -0.276 OA
ATOM     17  H   LIG d   1      13.408  78.131 112.394  0.00  0.00     0.149 HD
ENDBRANCH   6  13
BRANCH   5  18
ATOM     18  N   LIG d   1      13.341  75.311 114.110  0.00  0.00     0.381 N 
ATOM     19  H   LIG d   1      13.652  75.338 115.060  0.00  0.00    -0.090 HD
ATOM     20  H   LIG d   1      14.093  75.625 113.523  0.00  0.00    -0.090 HD
ATOM     21  H   LIG d   1      13.084  74.380 113.863  0.00  0.00    -0.090 HD
ENDBRANCH   5  18
BRANCH   3  22
ATOM     22  C   LIG d   1       8.711  76.017 115.110  0.00  0.00     0.382 C 
ATOM     23  O   LIG d   1       8.207  75.236 114.267  0.00  0.00    -0.241 OA
ATOM     24  O   LIG d   1       8.063  76.319 116.130  0.00  0.00    -0.241 OA
ENDBRANCH   3  22
TORSDOF 7
ENDMDL
MODEL 7
REMARK VINA RESULT:      -4.6      9.430     11.800
REMARK  7 active torsions:
REMARK  status: ('A' for Active; 'I' for Inactive)
REMARK    1  A    between atoms: C_2  and  C_3 
REMARK    2  A    between atoms: C_3  and  O_6 
REMARK    3  A    between atoms: C_3  and  C_4 
REMARK    4  A    between atoms: C_7  and  O_6 
REMARK    5  A    between atoms: C_9  and  C_10 
REMARK    6  A    between atoms: N_15  and  C_14 
REMARK    7  A    between atoms: N_20  and  C_19 
REMARK       I    between atoms: C_22  and  N_20 
ROOT
ATOM      1  C   LIG d   1      10.740  78.529 114.288  0.00  0.00     0.161 C 
ATOM      2  C   LIG d   1       9.483  78.493 114.914  0.00  0.00     0.016 C 
ATOM      3  C   LIG d   1       8.919  77.318 115.462  0.00  0.00     0.038 C 
ATOM      4  C   LIG d   1       9.645  76.121 115.555  0.00  0.00     0.028 C 
ATOM      5  C   LIG d   1      10.722  75.981 114.484  0.00  0.00    -0.047 C 
ATOM      6  C   LIG d   1      11.594  77.258 114.479  0.00  0.00     0.091 C 
ENDROOT
BRANCH   1   7
ATOM      7  O   LIG d   1      11.470  79.693 114.723  0.00  0.00    -0.368 OA
BRANCH   7   8
ATOM      8  C   LIG d   1      11.011  80.965 114.202  0.00  0.00     0.119 C 
BRANCH   8   9
ATOM      9  C   LIG d   1      11.871  81.296 112.967  0.00  0.00     0.028 C 
ATOM     10  C   LIG d   1      11.020  81.593 111.721  0.00  0.00     0.006 C 
ENDBRANCH   8   9
BRANCH   8  11
ATOM     11  C   LIG d   1      11.273  82.101 115.195  0.00  0.00     0.028 C 
ATOM     12  C   LIG d   1      10.073  83.050 115.344  0.00  0.00     0.006 C 
ENDBRANCH   8  11
ENDBRANCH   7   8
ENDBRANCH   1   7
BRANCH   6  13
ATOM     13  N   LIG d   1      12.619  77.239 113.403  0.00  0.00    -0.311 N 
ATOM     14  C   LIG d   1      13.867  76.811 113.587  0.00  0.00     0.210 C 
ATOM     15  C   LIG d   1      14.769  76.895 112.352  0.00  0.00     0.109 C 
ATOM     16  O   LIG d   1      14.303  76.338 114.648  0.00  0.00    -0.276 OA
ATOM     17  H   LIG d   1      12.342  77.576 112.502  0.00  0.00     0.149 HD
ENDBRANCH   6  13
BRANCH   5  18
ATOM     18  N   LIG d   1      11.490  74.758 114.782  0.00  0.00     0.381 N 
ATOM     19  H   LIG d   1      12.148  74.584 114.049  0.00  0.00    -0.090 HD
ATOM     20  H   LIG d   1      10.857  73.979 114.828  0.00  0.00    -0.090 HD
ATOM     21  H   LIG d   1      11.969  74.858 115.650  0.00  0.00    -0.090 HD
ENDBRANCH   5  18
BRANCH   3  22
ATOM     22  C   LIG d   1       7.600  77.323 115.888  0.00  0.00     0.382 C 
ATOM     23  O   LIG d   1       7.277  76.710 116.934  0.00  0.00    -0.241 OA
ATOM     24  O   LIG d   1       6.721  77.895 115.215  0.00  0.00    -0.241 OA
ENDBRANCH   3  22
TORSDOF 7
ENDMDL
MODEL 8
REMARK VINA RESULT:      -4.4     10.905     13.362
REMARK  7 active torsions:
REMARK  status: ('A' for Active; 'I' for Inactive)
REMARK    1  A    between atoms: C_2  and  C_3 
REMARK    2  A    between atoms: C_3  and  O_6 
REMARK    3  A    between atoms: C_3  and  C_4 
REMARK    4  A    between atoms: C_7  and  O_6 
REMARK    5  A    between atoms: C_9  and  C_10 
REMARK    6  A    between atoms: N_15  and  C_14 
REMARK    7  A    between atoms: N_20  and  C_19 
REMARK       I    between atoms: C_22  and  N_20 
ROOT
ATOM      1  C   LIG d   1      12.705  77.244 113.903  0.00  0.00     0.161 C 
ATOM      2  C   LIG d   1      11.722  76.281 114.185  0.00  0.00     0.016 C 
ATOM      3  C   LIG d   1      10.419  76.605 114.627  0.00  0.00     0.038 C 
ATOM      4  C   LIG d   1       9.960  77.930 114.672  0.00  0.00     0.028 C 
ATOM      5  C   LIG d   1      11.074  78.950 114.881  0.00  0.00    -0.047 C 
ATOM      6  C   LIG d   1      12.189  78.696 113.840  0.00  0.00     0.091 C 
ENDROOT
BRANCH   1   7
ATOM      7  O   LIG d   1      13.388  76.901 112.681  0.00  0.00    -0.368 OA
BRANCH   7   8
ATOM      8  C   LIG d   1      14.836  76.882 112.743  0.00  0.00     0.119 C 
BRANCH   8   9
ATOM      9  C   LIG d   1      15.363  76.972 111.298  0.00  0.00     0.028 C 
ATOM     10  C   LIG d   1      14.347  77.620 110.342  0.00  0.00     0.006 C 
ENDBRANCH   8   9
BRANCH   8  11
ATOM     11  C   LIG d   1      15.352  75.543 113.280  0.00  0.00     0.028 C 
ATOM     12  C   LIG d   1      16.484  75.710 114.306  0.00  0.00     0.006 C 
ENDBRANCH   8  11
ENDBRANCH   7   8
ENDBRANCH   1   7
BRANCH   6  13
ATOM     13  N   LIG d   1      13.356  79.597 114.027  0.00  0.00    -0.311 N 
ATOM     14  C   LIG d   1      13.524  80.729 113.346  0.00  0.00     0.210 C 
ATOM     15  C   LIG d   1      14.807  81.499 113.679  0.00  0.00     0.109 C 
ATOM     16  O   LIG d   1      12.719  81.185 112.521  0.00  0.00    -0.276 OA
ATOM     17  H   LIG d   1      14.043  79.319 114.700  0.00  0.00     0.149 HD
ENDBRANCH   6  13
BRANCH   5  18
ATOM     18  N   LIG d   1      10.475  80.294 114.770  0.00  0.00     0.381 N 
ATOM     19  H   LIG d   1      11.191  80.970 114.595  0.00  0.00    -0.090 HD
ATOM     20  H   LIG d   1      10.029  80.523 115.641  0.00  0.00    -0.090 HD
ATOM     21  H   LIG d   1       9.806  80.309 114.032  0.00  0.00    -0.090 HD
ENDBRANCH   5  18
BRANCH   3  22
ATOM     22  C   LIG d   1       9.572  75.599 115.068  0.00  0.00     0.382 C 
ATOM     23  O   LIG d   1       8.576  75.273 114.379  0.00  0.00    -0.241 OA
ATOM     24  O   LIG d   1       9.768  75.045 116.166  0.00  0.00    -0.241 OA
ENDBRANCH   3  22
TORSDOF 7
ENDMDL
MODEL 9
REMARK VINA RESULT:      -4.4     26.635     29.020
REMARK  7 active torsions:
REMARK  status: ('A' for Active; 'I' for Inactive)
REMARK    1  A    between atoms: C_2  and  C_3 
REMARK    2  A    between atoms: C_3  and  O_6 
REMARK    3  A    between atoms: C_3  and  C_4 
REMARK    4  A    between atoms: C_7  and  O_6 
REMARK    5  A    between atoms: C_9  and  C_10 
REMARK    6  A    between atoms: N_15  and  C_14 
REMARK    7  A    between atoms: N_20  and  C_19 
REMARK       I    between atoms: C_22  and  N_20 
ROOT
ATOM      1  C   LIG d   1     -25.409  86.057 112.960  0.00  0.00     0.161 C 
ATOM      2  C   LIG d   1     -24.295  86.856 113.267  0.00  0.00     0.016 C 
ATOM      3  C   LIG d   1     -22.970  86.365 113.297  0.00  0.00     0.038 C 
ATOM      4  C   LIG d   1     -22.650  85.067 112.870  0.00  0.00     0.028 C 
ATOM      5  C   LIG d   1     -23.797  84.076 113.035  0.00  0.00    -0.047 C 
ATOM      6  C   LIG d   1     -25.069  84.667 112.384  0.00  0.00     0.091 C 
ENDROOT
BRANCH   1   7
ATOM      7  O   LIG d   1     -26.289  86.768 112.066  0.00  0.00    -0.368 OA
BRANCH   7   8
ATOM      8  C   LIG d   1     -27.122  87.788 112.670  0.00  0.00     0.119 C 
BRANCH   8   9
ATOM      9  C   LIG d   1     -28.572  87.265 112.662  0.00  0.00     0.028 C 
ATOM     10  C   LIG d   1     -28.951  86.568 113.980  0.00  0.00     0.006 C 
ENDBRANCH   8   9
BRANCH   8  11
ATOM     11  C   LIG d   1     -27.147  89.062 111.821  0.00  0.00     0.028 C 
ATOM     12  C   LIG d   1     -27.524  90.312 112.632  0.00  0.00     0.006 C 
ENDBRANCH   8  11
ENDBRANCH   7   8
ENDBRANCH   1   7
BRANCH   6  13
ATOM     13  N   LIG d   1     -26.259  83.797 112.574  0.00  0.00    -0.311 N 
ATOM     14  C   LIG d   1     -26.755  83.483 113.770  0.00  0.00     0.210 C 
ATOM     15  C   LIG d   1     -27.975  82.558 113.742  0.00  0.00     0.109 C 
ATOM     16  O   LIG d   1     -26.319  83.910 114.850  0.00  0.00    -0.276 OA
ATOM     17  H   LIG d   1     -26.694  83.433 111.749  0.00  0.00     0.149 HD
ENDBRANCH   6  13
BRANCH   5  18
ATOM     18  N   LIG d   1     -23.375  82.800 112.426  0.00  0.00     0.381 N 
ATOM     19  H   LIG d   1     -24.080  82.105 112.572  0.00  0.00    -0.090 HD
ATOM     20  H   LIG d   1     -22.530  82.491 112.873  0.00  0.00    -0.090 HD
ATOM     21  H   LIG d   1     -23.218  82.924 111.450  0.00  0.00    -0.090 HD
ENDBRANCH   5  18
BRANCH   3  22
ATOM     22  C   LIG d   1     -21.952  87.164 113.795  0.00  0.00     0.382 C 
ATOM     23  O   LIG d   1     -20.903  87.332 113.127  0.00  0.00    -0.241 OA
ATOM     24  O   LIG d   1     -22.050  87.682 114.923  0.00  0.00    -0.241 OA
ENDBRANCH   3  22
TORSDOF 7
ENDMDL
