MODEL 1
REMARK VINA RESULT:      -5.7      0.000      0.000
REMARK  7 active torsions:
REMARK  status: ('A' for Active; 'I' for Inactive)
REMARK    1  A    between atoms: C_2  and  C_3 
REMARK    2  A    between atoms: C_3  and  O_6 
REMARK    3  A    between atoms: C_3  and  C_4 
REMARK    4  A    between atoms: C_7  and  O_6 
REMARK    5  A    between atoms: C_9  and  C_10 
REMARK    6  A    between atoms: N_15  and  C_14 
REMARK    7  A    between atoms: N_20  and  C_19 
REMARK       I    between atoms: C_22  and  N_20 
ROOT
ATOM      1  C   LIG d   1       1.737  86.282 114.385  0.00  0.00     0.161 C 
ATOM      2  C   LIG d   1       2.120  87.596 114.069  0.00  0.00     0.016 C 
ATOM      3  C   LIG d   1       3.349  88.166 114.473  0.00  0.00     0.038 C 
ATOM      4  C   LIG d   1       4.350  87.406 115.096  0.00  0.00     0.028 C 
ATOM      5  C   LIG d   1       3.807  86.218 115.882  0.00  0.00    -0.047 C 
ATOM      6  C   LIG d   1       2.862  85.403 114.970  0.00  0.00     0.091 C 
ENDROOT
BRANCH   1   7
ATOM      7  O   LIG d   1       1.157  85.649 113.227  0.00  0.00    -0.368 OA
BRANCH   7   8
ATOM      8  C   LIG d   1       1.104  86.452 112.022  0.00  0.00     0.119 C 
BRANCH   8   9
ATOM      9  C   LIG d   1      -0.353  86.441 111.522  0.00  0.00     0.028 C 
ATOM     10  C   LIG d   1      -0.506  85.714 110.175  0.00  0.00     0.006 C 
ENDBRANCH   8   9
BRANCH   8  11
ATOM     11  C   LIG d   1       1.925  85.819 110.895  0.00  0.00     0.028 C 
ATOM     12  C   LIG d   1       3.436  85.836 111.175  0.00  0.00     0.006 C 
ENDBRANCH   8  11
ENDBRANCH   7   8
ENDBRANCH   1   7
BRANCH   6  13
ATOM     13  N   LIG d   1       2.221  84.269 115.685  0.00  0.00    -0.311 N 
ATOM     14  C   LIG d   1       2.700  83.026 115.667  0.00  0.00     0.210 C 
ATOM     15  C   LIG d   1       1.875  82.004 116.455  0.00  0.00     0.109 C 
ATOM     16  O   LIG d   1       3.746  82.679 115.099  0.00  0.00    -0.276 OA
ATOM     17  H   LIG d   1       1.384  84.467 116.198  0.00  0.00     0.149 HD
ENDBRANCH   6  13
BRANCH   5  18
ATOM     18  N   LIG d   1       4.962  85.437 116.364  0.00  0.00     0.381 N 
ATOM     19  H   LIG d   1       5.743  85.578 115.756  0.00  0.00    -0.090 HD
ATOM     20  H   LIG d   1       4.723  84.461 116.349  0.00  0.00    -0.090 HD
ATOM     21  H   LIG d   1       5.198  85.714 117.291  0.00  0.00    -0.090 HD
ENDBRANCH   5  18
BRANCH   3  22
ATOM     22  C   LIG d   1       3.571  89.523 114.288  0.00  0.00     0.382 C 
ATOM     23  O   LIG d   1       3.273  90.335 115.197  0.00  0.00    -0.241 OA
ATOM     24  O   LIG d   1       4.023  89.948 113.208  0.00  0.00    -0.241 OA
ENDBRANCH   3  22
TORSDOF 7
ENDMDL
MODEL 2
REMARK VINA RESULT:      -5.6      1.798      2.123
REMARK  7 active torsions:
REMARK  status: ('A' for Active; 'I' for Inactive)
REMARK    1  A    between atoms: C_2  and  C_3 
REMARK    2  A    between atoms: C_3  and  O_6 
REMARK    3  A    between atoms: C_3  and  C_4 
REMARK    4  A    between atoms: C_7  and  O_6 
REMARK    5  A    between atoms: C_9  and  C_10 
REMARK    6  A    between atoms: N_15  and  C_14 
REMARK    7  A    between atoms: N_20  and  C_19 
REMARK       I    between atoms: C_22  and  N_20 
ROOT
ATOM      1  C   LIG d   1       2.629  85.934 112.422  0.00  0.00     0.161 C 
ATOM      2  C   LIG d   1       2.901  87.287 112.680  0.00  0.00     0.016 C 
ATOM      3  C   LIG d   1       2.964  87.834 113.983  0.00  0.00     0.038 C 
ATOM      4  C   LIG d   1       2.908  87.027 115.129  0.00  0.00     0.028 C 
ATOM      5  C   LIG d   1       2.131  85.732 114.920  0.00  0.00    -0.047 C 
ATOM      6  C   LIG d   1       2.675  85.017 113.663  0.00  0.00     0.091 C 
ENDROOT
BRANCH   1   7
ATOM      7  O   LIG d   1       3.521  85.442 111.402  0.00  0.00    -0.368 OA
BRANCH   7   8
ATOM      8  C   LIG d   1       2.899  85.000 110.171  0.00  0.00     0.119 C 
BRANCH   8   9
ATOM      9  C   LIG d   1       1.437  85.489 110.189  0.00  0.00     0.028 C 
ATOM     10  C   LIG d   1       0.431  84.334 110.057  0.00  0.00     0.006 C 
ENDBRANCH   8   9
BRANCH   8  11
ATOM     11  C   LIG d   1       2.814  83.472 110.106  0.00  0.00     0.028 C 
ATOM     12  C   LIG d   1       4.111  82.784 110.562  0.00  0.00     0.006 C 
ENDBRANCH   8  11
ENDBRANCH   7   8
ENDBRANCH   1   7
BRANCH   6  13
ATOM     13  N   LIG d   1       1.914  83.782 113.338  0.00  0.00    -0.311 N 
ATOM     14  C   LIG d   1       2.265  82.571 113.766  0.00  0.00     0.210 C 
ATOM     15  C   LIG d   1       1.354  81.431 113.300  0.00  0.00     0.109 C 
ATOM     16  O   LIG d   1       3.226  82.336 114.514  0.00  0.00    -0.276 OA
ATOM     17  H   LIG d   1       1.102  83.885 112.761  0.00  0.00     0.149 HD
ENDBRANCH   6  13
BRANCH   5  18
ATOM     18  N   LIG d   1       2.269  84.926 116.148  0.00  0.00     0.381 N 
ATOM     19  H   LIG d   1       3.039  85.264 116.690  0.00  0.00    -0.090 HD
ATOM     20  H   LIG d   1       2.457  83.973 115.893  0.00  0.00    -0.090 HD
ATOM     21  H   LIG d   1       1.430  84.975 116.684  0.00  0.00    -0.090 HD
ENDBRANCH   5  18
BRANCH   3  22
ATOM     22  C   LIG d   1       3.045  89.208 114.148  0.00  0.00     0.382 C 
ATOM     23  O   LIG d   1       2.220  89.800 114.886  0.00  0.00    -0.241 OA
ATOM     24  O   LIG d   1       3.903  89.869 113.534  0.00  0.00    -0.241 OA
ENDBRANCH   3  22
TORSDOF 7
ENDMDL
MODEL 3
REMARK VINA RESULT:      -5.5      7.751     10.269
REMARK  7 active torsions:
REMARK  status: ('A' for Active; 'I' for Inactive)
REMARK    1  A    between atoms: C_2  and  C_3 
REMARK    2  A    between atoms: C_3  and  O_6 
REMARK    3  A    between atoms: C_3  and  C_4 
REMARK    4  A    between atoms: C_7  and  O_6 
REMARK    5  A    between atoms: C_9  and  C_10 
REMARK    6  A    between atoms: N_15  and  C_14 
REMARK    7  A    between atoms: N_20  and  C_19 
REMARK       I    between atoms: C_22  and  N_20 
ROOT
ATOM      1  C   LIG d   1      -2.396  78.759 115.910  0.00  0.00     0.161 C 
ATOM      2  C   LIG d   1      -2.606  79.921 115.149  0.00  0.00     0.016 C 
ATOM      3  C   LIG d   1      -2.316  80.010 113.768  0.00  0.00     0.038 C 
ATOM      4  C   LIG d   1      -1.935  78.889 113.017  0.00  0.00     0.028 C 
ATOM      5  C   LIG d   1      -1.227  77.819 113.841  0.00  0.00    -0.047 C 
ATOM      6  C   LIG d   1      -2.086  77.493 115.084  0.00  0.00     0.091 C 
ENDROOT
BRANCH   1   7
ATOM      7  O   LIG d   1      -3.527  78.529 116.773  0.00  0.00    -0.368 OA
BRANCH   7   8
ATOM      8  C   LIG d   1      -4.777  78.210 116.115  0.00  0.00     0.119 C 
BRANCH   8   9
ATOM      9  C   LIG d   1      -5.892  78.998 116.830  0.00  0.00     0.028 C 
ATOM     10  C   LIG d   1      -5.491  80.456 117.112  0.00  0.00     0.006 C 
ENDBRANCH   8   9
BRANCH   8  11
ATOM     11  C   LIG d   1      -5.143  76.734 116.298  0.00  0.00     0.028 C 
ATOM     12  C   LIG d   1      -5.770  76.115 115.039  0.00  0.00     0.006 C 
ENDBRANCH   8  11
ENDBRANCH   7   8
ENDBRANCH   1   7
BRANCH   6  13
ATOM     13  N   LIG d   1      -1.426  76.516 115.989  0.00  0.00    -0.311 N 
ATOM     14  C   LIG d   1      -1.670  75.207 115.958  0.00  0.00     0.210 C 
ATOM     15  C   LIG d   1      -0.897  74.380 116.990  0.00  0.00     0.109 C 
ATOM     16  O   LIG d   1      -2.429  74.648 115.152  0.00  0.00    -0.276 OA
ATOM     17  H   LIG d   1      -0.772  76.880 116.654  0.00  0.00     0.149 HD
ENDBRANCH   6  13
BRANCH   5  18
ATOM     18  N   LIG d   1      -1.010  76.652 112.965  0.00  0.00     0.381 N 
ATOM     19  H   LIG d   1      -0.491  76.928 112.156  0.00  0.00    -0.090 HD
ATOM     20  H   LIG d   1      -1.902  76.302 112.663  0.00  0.00    -0.090 HD
ATOM     21  H   LIG d   1      -0.517  75.942 113.460  0.00  0.00    -0.090 HD
ENDBRANCH   5  18
BRANCH   3  22
ATOM     22  C   LIG d   1      -2.367  81.242 113.133  0.00  0.00     0.382 C 
ATOM     23  O   LIG d   1      -3.415  81.599 112.543  0.00  0.00    -0.241 OA
ATOM     24  O   LIG d   1      -1.365  81.981 113.106  0.00  0.00    -0.241 OA
ENDBRANCH   3  22
TORSDOF 7
ENDMDL
MODEL 4
REMARK VINA RESULT:      -5.3      6.260      9.583
REMARK  7 active torsions:
REMARK  status: ('A' for Active; 'I' for Inactive)
REMARK    1  A    between atoms: C_2  and  C_3 
REMARK    2  A    between atoms: C_3  and  O_6 
REMARK    3  A    between atoms: C_3  and  C_4 
REMARK    4  A    between atoms: C_7  and  O_6 
REMARK    5  A    between atoms: C_9  and  C_10 
REMARK    6  A    between atoms: N_15  and  C_14 
REMARK    7  A    between atoms: N_20  and  C_19 
REMARK       I    between atoms: C_22  and  N_20 
ROOT
ATOM      1  C   LIG d   1      -1.670  80.264 113.352  0.00  0.00     0.161 C 
ATOM      2  C   LIG d   1      -2.490  79.300 113.962  0.00  0.00     0.016 C 
ATOM      3  C   LIG d   1      -2.665  77.993 113.452  0.00  0.00     0.038 C 
ATOM      4  C   LIG d   1      -1.908  77.510 112.374  0.00  0.00     0.028 C 
ATOM      5  C   LIG d   1      -1.442  78.606 111.422  0.00  0.00    -0.047 C 
ATOM      6  C   LIG d   1      -0.750  79.720 112.239  0.00  0.00     0.091 C 
ENDROOT
BRANCH   1   7
ATOM      7  O   LIG d   1      -0.892  80.948 114.355  0.00  0.00    -0.368 OA
BRANCH   7   8
ATOM      8  C   LIG d   1      -0.476  80.152 115.492  0.00  0.00     0.119 C 
BRANCH   8   9
ATOM      9  C   LIG d   1      -0.731  80.989 116.761  0.00  0.00     0.028 C 
ATOM     10  C   LIG d   1      -2.041  80.600 117.466  0.00  0.00     0.006 C 
ENDBRANCH   8   9
BRANCH   8  11
ATOM     11  C   LIG d   1       1.034  79.898 115.470  0.00  0.00     0.028 C 
ATOM     12  C   LIG d   1       1.802  80.934 114.634  0.00  0.00     0.006 C 
ENDBRANCH   8  11
ENDBRANCH   7   8
ENDBRANCH   1   7
BRANCH   6  13
ATOM     13  N   LIG d   1      -0.339  80.871 111.393  0.00  0.00    -0.311 N 
ATOM     14  C   LIG d   1       0.884  81.005 110.881  0.00  0.00     0.210 C 
ATOM     15  C   LIG d   1       1.103  82.276 110.055  0.00  0.00     0.109 C 
ATOM     16  O   LIG d   1       1.797  80.175 111.006  0.00  0.00    -0.276 OA
ATOM     17  H   LIG d   1      -1.027  81.576 111.216  0.00  0.00     0.149 HD
ENDBRANCH   6  13
BRANCH   5  18
ATOM     18  N   LIG d   1      -0.552  77.982 110.425  0.00  0.00     0.381 N 
ATOM     19  H   LIG d   1      -0.621  76.985 110.486  0.00  0.00    -0.090 HD
ATOM     20  H   LIG d   1       0.397  78.245 110.627  0.00  0.00    -0.090 HD
ATOM     21  H   LIG d   1      -0.800  78.284 109.509  0.00  0.00    -0.090 HD
ENDBRANCH   5  18
BRANCH   3  22
ATOM     22  C   LIG d   1      -3.636  77.167 113.998  0.00  0.00     0.382 C 
ATOM     23  O   LIG d   1      -4.555  77.657 114.696  0.00  0.00    -0.241 OA
ATOM     24  O   LIG d   1      -3.578  75.933 113.838  0.00  0.00    -0.241 OA
ENDBRANCH   3  22
TORSDOF 7
ENDMDL
MODEL 5
REMARK VINA RESULT:      -5.2      2.630      4.704
REMARK  7 active torsions:
REMARK  status: ('A' for Active; 'I' for Inactive)
REMARK    1  A    between atoms: C_2  and  C_3 
REMARK    2  A    between atoms: C_3  and  O_6 
REMARK    3  A    between atoms: C_3  and  C_4 
REMARK    4  A    between atoms: C_7  and  O_6 
REMARK    5  A    between atoms: C_9  and  C_10 
REMARK    6  A    between atoms: N_15  and  C_14 
REMARK    7  A    between atoms: N_20  and  C_19 
REMARK       I    between atoms: C_22  and  N_20 
ROOT
ATOM      1  C   LIG d   1       2.621  84.653 113.330  0.00  0.00     0.161 C 
ATOM      2  C   LIG d   1       3.216  85.899 113.586  0.00  0.00     0.016 C 
ATOM      3  C   LIG d   1       3.010  87.041 112.777  0.00  0.00     0.038 C 
ATOM      4  C   LIG d   1       2.069  87.052 111.737  0.00  0.00     0.028 C 
ATOM      5  C   LIG d   1       1.822  85.676 111.129  0.00  0.00    -0.047 C 
ATOM      6  C   LIG d   1       1.505  84.676 112.264  0.00  0.00     0.091 C 
ENDROOT
BRANCH   1   7
ATOM      7  O   LIG d   1       2.128  84.085 114.559  0.00  0.00    -0.368 OA
BRANCH   7   8
ATOM      8  C   LIG d   1       2.938  84.317 115.738  0.00  0.00     0.119 C 
BRANCH   8   9
ATOM      9  C   LIG d   1       3.583  82.973 116.129  0.00  0.00     0.028 C 
ATOM     10  C   LIG d   1       2.686  81.770 115.787  0.00  0.00     0.006 C 
ENDBRANCH   8   9
BRANCH   8  11
ATOM     11  C   LIG d   1       2.073  84.715 116.938  0.00  0.00     0.028 C 
ATOM     12  C   LIG d   1       2.077  86.230 117.198  0.00  0.00     0.006 C 
ENDBRANCH   8  11
ENDBRANCH   7   8
ENDBRANCH   1   7
BRANCH   6  13
ATOM     13  N   LIG d   1       1.332  83.287 111.764  0.00  0.00    -0.311 N 
ATOM     14  C   LIG d   1       0.178  82.625 111.823  0.00  0.00     0.210 C 
ATOM     15  C   LIG d   1       0.223  81.197 111.270  0.00  0.00     0.109 C 
ATOM     16  O   LIG d   1      -0.886  83.095 112.252  0.00  0.00    -0.276 OA
ATOM     17  H   LIG d   1       2.138  82.840 111.372  0.00  0.00     0.149 HD
ENDBRANCH   6  13
BRANCH   5  18
ATOM     18  N   LIG d   1       0.723  85.811 110.154  0.00  0.00     0.381 N 
ATOM     19  H   LIG d   1       0.670  84.987 109.588  0.00  0.00    -0.090 HD
ATOM     20  H   LIG d   1       0.914  86.594 109.555  0.00  0.00    -0.090 HD
ATOM     21  H   LIG d   1      -0.141  85.951 110.631  0.00  0.00    -0.090 HD
ENDBRANCH   5  18
BRANCH   3  22
ATOM     22  C   LIG d   1       3.780  88.176 112.982  0.00  0.00     0.382 C 
ATOM     23  O   LIG d   1       3.250  89.220 113.431  0.00  0.00    -0.241 OA
ATOM     24  O   LIG d   1       4.989  88.182 112.682  0.00  0.00    -0.241 OA
ENDBRANCH   3  22
TORSDOF 7
ENDMDL
MODEL 6
REMARK VINA RESULT:      -4.9      3.165      5.609
REMARK  7 active torsions:
REMARK  status: ('A' for Active; 'I' for Inactive)
REMARK    1  A    between atoms: C_2  and  C_3 
REMARK    2  A    between atoms: C_3  and  O_6 
REMARK    3  A    between atoms: C_3  and  C_4 
REMARK    4  A    between atoms: C_7  and  O_6 
REMARK    5  A    between atoms: C_9  and  C_10 
REMARK    6  A    between atoms: N_15  and  C_14 
REMARK    7  A    between atoms: N_20  and  C_19 
REMARK       I    between atoms: C_22  and  N_20 
ROOT
ATOM      1  C   LIG d   1       3.429  83.317 112.117  0.00  0.00     0.161 C 
ATOM      2  C   LIG d   1       2.909  82.428 111.161  0.00  0.00     0.016 C 
ATOM      3  C   LIG d   1       1.950  81.435 111.462  0.00  0.00     0.038 C 
ATOM      4  C   LIG d   1       1.328  81.361 112.717  0.00  0.00     0.028 C 
ATOM      5  C   LIG d   1       2.186  81.911 113.851  0.00  0.00    -0.047 C 
ATOM      6  C   LIG d   1       2.681  83.324 113.466  0.00  0.00     0.091 C 
ENDROOT
BRANCH   1   7
ATOM      7  O   LIG d   1       3.484  84.648 111.567  0.00  0.00    -0.368 OA
BRANCH   7   8
ATOM      8  C   LIG d   1       2.270  85.433 111.675  0.00  0.00     0.119 C 
BRANCH   8   9
ATOM      9  C   LIG d   1       1.739  85.662 110.247  0.00  0.00     0.028 C 
ATOM     10  C   LIG d   1       0.316  85.111 110.055  0.00  0.00     0.006 C 
ENDBRANCH   8   9
BRANCH   8  11
ATOM     11  C   LIG d   1       2.558  86.831 112.230  0.00  0.00     0.028 C 
ATOM     12  C   LIG d   1       4.056  87.079 112.472  0.00  0.00     0.006 C 
ENDBRANCH   8  11
ENDBRANCH   7   8
ENDBRANCH   1   7
BRANCH   6  13
ATOM     13  N   LIG d   1       3.596  83.901 114.485  0.00  0.00    -0.311 N 
ATOM     14  C   LIG d   1       3.217  84.814 115.378  0.00  0.00     0.210 C 
ATOM     15  C   LIG d   1       4.323  85.290 116.325  0.00  0.00     0.109 C 
ATOM     16  O   LIG d   1       2.062  85.250 115.497  0.00  0.00    -0.276 OA
ATOM     17  H   LIG d   1       4.544  83.580 114.480  0.00  0.00     0.149 HD
ENDBRANCH   6  13
BRANCH   5  18
ATOM     18  N   LIG d   1       1.365  81.900 115.077  0.00  0.00     0.381 N 
ATOM     19  H   LIG d   1       1.865  82.339 115.824  0.00  0.00    -0.090 HD
ATOM     20  H   LIG d   1       1.183  80.946 115.338  0.00  0.00    -0.090 HD
ATOM     21  H   LIG d   1       0.506  82.377 114.916  0.00  0.00    -0.090 HD
ENDBRANCH   5  18
BRANCH   3  22
ATOM     22  C   LIG d   1       1.632  80.475 110.512  0.00  0.00     0.382 C 
ATOM     23  O   LIG d   1       0.443  80.331 110.140  0.00  0.00    -0.241 OA
ATOM     24  O   LIG d   1       2.513  79.723 110.055  0.00  0.00    -0.241 OA
ENDBRANCH   3  22
TORSDOF 7
ENDMDL
MODEL 7
REMARK VINA RESULT:      -4.9      3.030      4.297
REMARK  7 active torsions:
REMARK  status: ('A' for Active; 'I' for Inactive)
REMARK    1  A    between atoms: C_2  and  C_3 
REMARK    2  A    between atoms: C_3  and  O_6 
REMARK    3  A    between atoms: C_3  and  C_4 
REMARK    4  A    between atoms: C_7  and  O_6 
REMARK    5  A    between atoms: C_9  and  C_10 
REMARK    6  A    between atoms: N_15  and  C_14 
REMARK    7  A    between atoms: N_20  and  C_19 
REMARK       I    between atoms: C_22  and  N_20 
ROOT
ATOM      1  C   LIG d   1       2.526  82.837 112.879  0.00  0.00     0.161 C 
ATOM      2  C   LIG d   1       2.808  83.920 112.030  0.00  0.00     0.016 C 
ATOM      3  C   LIG d   1       3.193  85.197 112.499  0.00  0.00     0.038 C 
ATOM      4  C   LIG d   1       3.469  85.437 113.853  0.00  0.00     0.028 C 
ATOM      5  C   LIG d   1       2.711  84.512 114.799  0.00  0.00    -0.047 C 
ATOM      6  C   LIG d   1       2.929  83.049 114.353  0.00  0.00     0.091 C 
ENDROOT
BRANCH   1   7
ATOM      7  O   LIG d   1       3.134  81.638 112.360  0.00  0.00    -0.368 OA
BRANCH   7   8
ATOM      8  C   LIG d   1       2.223  80.610 111.897  0.00  0.00     0.119 C 
BRANCH   8   9
ATOM      9  C   LIG d   1       2.517  80.370 110.404  0.00  0.00     0.028 C 
ATOM     10  C   LIG d   1       4.004  80.562 110.060  0.00  0.00     0.006 C 
ENDBRANCH   8   9
BRANCH   8  11
ATOM     11  C   LIG d   1       0.769  81.088 111.952  0.00  0.00     0.028 C 
ATOM     12  C   LIG d   1      -0.131  80.164 112.787  0.00  0.00     0.006 C 
ENDBRANCH   8  11
ENDBRANCH   7   8
ENDBRANCH   1   7
BRANCH   6  13
ATOM     13  N   LIG d   1       2.154  82.084 115.175  0.00  0.00    -0.311 N 
ATOM     14  C   LIG d   1       2.700  81.321 116.120  0.00  0.00     0.210 C 
ATOM     15  C   LIG d   1       1.725  80.380 116.835  0.00  0.00     0.109 C 
ATOM     16  O   LIG d   1       3.893  81.357 116.456  0.00  0.00    -0.276 OA
ATOM     17  H   LIG d   1       1.172  82.012 114.990  0.00  0.00     0.149 HD
ENDBRANCH   6  13
BRANCH   5  18
ATOM     18  N   LIG d   1       3.196  84.779 116.167  0.00  0.00     0.381 N 
ATOM     19  H   LIG d   1       3.911  84.122 116.406  0.00  0.00    -0.090 HD
ATOM     20  H   LIG d   1       2.433  84.663 116.811  0.00  0.00    -0.090 HD
ATOM     21  H   LIG d   1       3.553  85.707 116.227  0.00  0.00    -0.090 HD
ENDBRANCH   5  18
BRANCH   3  22
ATOM     22  C   LIG d   1       3.266  86.261 111.613  0.00  0.00     0.382 C 
ATOM     23  O   LIG d   1       2.684  86.194 110.504  0.00  0.00    -0.241 OA
ATOM     24  O   LIG d   1       3.942  87.270 111.891  0.00  0.00    -0.241 OA
ENDBRANCH   3  22
TORSDOF 7
ENDMDL
MODEL 8
REMARK VINA RESULT:      -4.9     25.456     27.792
REMARK  7 active torsions:
REMARK  status: ('A' for Active; 'I' for Inactive)
REMARK    1  A    between atoms: C_2  and  C_3 
REMARK    2  A    between atoms: C_3  and  O_6 
REMARK    3  A    between atoms: C_3  and  C_4 
REMARK    4  A    between atoms: C_7  and  O_6 
REMARK    5  A    between atoms: C_9  and  C_10 
REMARK    6  A    between atoms: N_15  and  C_14 
REMARK    7  A    between atoms: N_20  and  C_19 
REMARK       I    between atoms: C_22  and  N_20 
ROOT
ATOM      1  C   LIG d   1     -25.334  85.904 113.992  0.00  0.00     0.161 C 
ATOM      2  C   LIG d   1     -24.232  86.773 113.957  0.00  0.00     0.016 C 
ATOM      3  C   LIG d   1     -22.937  86.372 113.552  0.00  0.00     0.038 C 
ATOM      4  C   LIG d   1     -22.691  85.104 113.008  0.00  0.00     0.028 C 
ATOM      5  C   LIG d   1     -23.664  84.035 113.495  0.00  0.00    -0.047 C 
ATOM      6  C   LIG d   1     -25.109  84.545 113.296  0.00  0.00     0.091 C 
ENDROOT
BRANCH   1   7
ATOM      7  O   LIG d   1     -26.493  86.562 113.444  0.00  0.00    -0.368 OA
BRANCH   7   8
ATOM      8  C   LIG d   1     -26.259  87.413 112.295  0.00  0.00     0.119 C 
BRANCH   8   9
ATOM      9  C   LIG d   1     -27.106  88.686 112.482  0.00  0.00     0.028 C 
ATOM     10  C   LIG d   1     -28.060  88.585 113.684  0.00  0.00     0.006 C 
ENDBRANCH   8   9
BRANCH   8  11
ATOM     11  C   LIG d   1     -26.776  86.767 111.007  0.00  0.00     0.028 C 
ATOM     12  C   LIG d   1     -27.434  87.778 110.055  0.00  0.00     0.006 C 
ENDBRANCH   8  11
ENDBRANCH   7   8
ENDBRANCH   1   7
BRANCH   6  13
ATOM     13  N   LIG d   1     -26.123  83.595 113.825  0.00  0.00    -0.311 N 
ATOM     14  C   LIG d   1     -26.710  82.660 113.081  0.00  0.00     0.210 C 
ATOM     15  C   LIG d   1     -27.740  81.799 113.818  0.00  0.00     0.109 C 
ATOM     16  O   LIG d   1     -26.451  82.440 111.888  0.00  0.00    -0.276 OA
ATOM     17  H   LIG d   1     -26.369  83.683 114.792  0.00  0.00     0.149 HD
ENDBRANCH   6  13
BRANCH   5  18
ATOM     18  N   LIG d   1     -23.379  82.797 112.746  0.00  0.00     0.381 N 
ATOM     19  H   LIG d   1     -22.393  82.708 112.602  0.00  0.00    -0.090 HD
ATOM     20  H   LIG d   1     -23.825  82.851 111.847  0.00  0.00    -0.090 HD
ATOM     21  H   LIG d   1     -23.721  82.008 113.248  0.00  0.00    -0.090 HD
ENDBRANCH   5  18
BRANCH   3  22
ATOM     22  C   LIG d   1     -21.865  87.234 113.728  0.00  0.00     0.382 C 
ATOM     23  O   LIG d   1     -21.504  87.984 112.790  0.00  0.00    -0.241 OA
ATOM     24  O   LIG d   1     -21.227  87.238 114.798  0.00  0.00    -0.241 OA
ENDBRANCH   3  22
TORSDOF 7
ENDMDL
MODEL 9
REMARK VINA RESULT:      -4.7     11.702     14.637
REMARK  7 active torsions:
REMARK  status: ('A' for Active; 'I' for Inactive)
REMARK    1  A    between atoms: C_2  and  C_3 
REMARK    2  A    between atoms: C_3  and  O_6 
REMARK    3  A    between atoms: C_3  and  C_4 
REMARK    4  A    between atoms: C_7  and  O_6 
REMARK    5  A    between atoms: C_9  and  C_10 
REMARK    6  A    between atoms: N_15  and  C_14 
REMARK    7  A    between atoms: N_20  and  C_19 
REMARK       I    between atoms: C_22  and  N_20 
ROOT
ATOM      1  C   LIG d   1      11.375  75.616 115.372  0.00  0.00     0.161 C 
ATOM      2  C   LIG d   1      10.041  76.004 115.577  0.00  0.00     0.016 C 
ATOM      3  C   LIG d   1       9.523  77.254 115.169  0.00  0.00     0.038 C 
ATOM      4  C   LIG d   1      10.270  78.147 114.386  0.00  0.00     0.028 C 
ATOM      5  C   LIG d   1      11.776  78.015 114.588  0.00  0.00    -0.047 C 
ATOM      6  C   LIG d   1      12.176  76.531 114.421  0.00  0.00     0.091 C 
ENDROOT
BRANCH   1   7
ATOM      7  O   LIG d   1      11.421  74.251 114.910  0.00  0.00    -0.368 OA
BRANCH   7   8
ATOM      8  C   LIG d   1      11.968  73.282 115.838  0.00  0.00     0.119 C 
BRANCH   8   9
ATOM      9  C   LIG d   1      12.890  72.343 115.038  0.00  0.00     0.028 C 
ATOM     10  C   LIG d   1      14.374  72.721 115.174  0.00  0.00     0.006 C 
ENDBRANCH   8   9
BRANCH   8  11
ATOM     11  C   LIG d   1      10.871  72.381 116.413  0.00  0.00     0.028 C 
ATOM     12  C   LIG d   1      10.126  71.585 115.329  0.00  0.00     0.006 C 
ENDBRANCH   8  11
ENDBRANCH   7   8
ENDBRANCH   1   7
BRANCH   6  13
ATOM     13  N   LIG d   1      13.620  76.300 114.686  0.00  0.00    -0.311 N 
ATOM     14  C   LIG d   1      14.551  76.312 113.733  0.00  0.00     0.210 C 
ATOM     15  C   LIG d   1      15.977  76.031 114.218  0.00  0.00     0.109 C 
ATOM     16  O   LIG d   1      14.336  76.560 112.537  0.00  0.00    -0.276 OA
ATOM     17  H   LIG d   1      13.888  76.122 115.634  0.00  0.00     0.149 HD
ENDBRANCH   6  13
BRANCH   5  18
ATOM     18  N   LIG d   1      12.436  78.904 113.613  0.00  0.00     0.381 N 
ATOM     19  H   LIG d   1      12.499  79.830 113.988  0.00  0.00    -0.090 HD
ATOM     20  H   LIG d   1      11.880  78.939 112.777  0.00  0.00    -0.090 HD
ATOM     21  H   LIG d   1      13.347  78.561 113.401  0.00  0.00    -0.090 HD
ENDBRANCH   5  18
BRANCH   3  22
ATOM     22  C   LIG d   1       8.255  77.640 115.577  0.00  0.00     0.382 C 
ATOM     23  O   LIG d   1       7.278  77.505 114.801  0.00  0.00    -0.241 OA
ATOM     24  O   LIG d   1       8.083  78.161 116.695  0.00  0.00    -0.241 OA
ENDBRANCH   3  22
TORSDOF 7
ENDMDL
