MODEL 1
REMARK VINA RESULT:      -5.8      0.000      0.000
REMARK  7 active torsions:
REMARK  status: ('A' for Active; 'I' for Inactive)
REMARK    1  A    between atoms: C_2  and  C_3 
REMARK    2  A    between atoms: C_3  and  O_6 
REMARK    3  A    between atoms: C_3  and  C_4 
REMARK    4  A    between atoms: C_7  and  O_6 
REMARK    5  A    between atoms: C_9  and  C_10 
REMARK    6  A    between atoms: N_15  and  C_14 
REMARK    7  A    between atoms: N_20  and  C_19 
REMARK       I    between atoms: C_22  and  N_20 
ROOT
ATOM      1  C   LIG d   1       0.044  83.352 112.082  0.00  0.00     0.161 C 
ATOM      2  C   LIG d   1      -1.159  82.785 112.533  0.00  0.00     0.016 C 
ATOM      3  C   LIG d   1      -1.533  81.446 112.277  0.00  0.00     0.038 C 
ATOM      4  C   LIG d   1      -0.653  80.533 111.677  0.00  0.00     0.028 C 
ATOM      5  C   LIG d   1       0.369  81.191 110.757  0.00  0.00    -0.047 C 
ATOM      6  C   LIG d   1       1.066  82.340 111.522  0.00  0.00     0.091 C 
ENDROOT
BRANCH   1   7
ATOM      7  O   LIG d   1       0.641  84.135 113.134  0.00  0.00    -0.368 OA
BRANCH   7   8
ATOM      8  C   LIG d   1       0.530  85.573 113.000  0.00  0.00     0.119 C 
BRANCH   8   9
ATOM      9  C   LIG d   1       0.110  85.871 111.547  0.00  0.00     0.028 C 
ATOM     10  C   LIG d   1       1.084  86.827 110.838  0.00  0.00     0.006 C 
ENDBRANCH   8   9
BRANCH   8  11
ATOM     11  C   LIG d   1       1.891  86.255 113.175  0.00  0.00     0.028 C 
ATOM     12  C   LIG d   1       2.603  85.839 114.472  0.00  0.00     0.006 C 
ENDBRANCH   8  11
ENDBRANCH   7   8
ENDBRANCH   1   7
BRANCH   6  13
ATOM     13  N   LIG d   1       2.022  83.092 110.667  0.00  0.00    -0.311 N 
ATOM     14  C   LIG d   1       3.207  83.521 111.097  0.00  0.00     0.210 C 
ATOM     15  C   LIG d   1       4.029  84.293 110.060  0.00  0.00     0.109 C 
ATOM     16  O   LIG d   1       3.669  83.309 112.228  0.00  0.00    -0.276 OA
ATOM     17  H   LIG d   1       1.740  83.281 109.725  0.00  0.00     0.149 HD
ENDBRANCH   6  13
BRANCH   5  18
ATOM     18  N   LIG d   1       1.306  80.143 110.309  0.00  0.00     0.381 N 
ATOM     19  H   LIG d   1       1.322  79.397 110.975  0.00  0.00    -0.090 HD
ATOM     20  H   LIG d   1       2.229  80.535 110.252  0.00  0.00    -0.090 HD
ATOM     21  H   LIG d   1       1.029  79.797 109.417  0.00  0.00    -0.090 HD
ENDBRANCH   5  18
BRANCH   3  22
ATOM     22  C   LIG d   1      -2.815  81.019 112.587  0.00  0.00     0.382 C 
ATOM     23  O   LIG d   1      -3.747  81.854 112.687  0.00  0.00    -0.241 OA
ATOM     24  O   LIG d   1      -3.043  79.815 112.812  0.00  0.00    -0.241 OA
ENDBRANCH   3  22
TORSDOF 7
ENDMDL
MODEL 2
REMARK VINA RESULT:      -5.5      2.627      5.396
REMARK  7 active torsions:
REMARK  status: ('A' for Active; 'I' for Inactive)
REMARK    1  A    between atoms: C_2  and  C_3 
REMARK    2  A    between atoms: C_3  and  O_6 
REMARK    3  A    between atoms: C_3  and  C_4 
REMARK    4  A    between atoms: C_7  and  O_6 
REMARK    5  A    between atoms: C_9  and  C_10 
REMARK    6  A    between atoms: N_15  and  C_14 
REMARK    7  A    between atoms: N_20  and  C_19 
REMARK       I    between atoms: C_22  and  N_20 
ROOT
ATOM      1  C   LIG d   1       0.208  84.475 113.622  0.00  0.00     0.161 C 
ATOM      2  C   LIG d   1       0.892  85.601 113.135  0.00  0.00     0.016 C 
ATOM      3  C   LIG d   1       1.172  85.808 111.764  0.00  0.00     0.038 C 
ATOM      4  C   LIG d   1       0.651  84.972 110.766  0.00  0.00     0.028 C 
ATOM      5  C   LIG d   1       0.383  83.549 111.247  0.00  0.00    -0.047 C 
ATOM      6  C   LIG d   1      -0.465  83.607 112.538  0.00  0.00     0.091 C 
ENDROOT
BRANCH   1   7
ATOM      7  O   LIG d   1      -0.759  84.880 114.611  0.00  0.00    -0.368 OA
BRANCH   7   8
ATOM      8  C   LIG d   1      -0.413  84.605 115.991  0.00  0.00     0.119 C 
BRANCH   8   9
ATOM      9  C   LIG d   1       0.206  85.889 116.578  0.00  0.00     0.028 C 
ATOM     10  C   LIG d   1      -0.843  86.987 116.824  0.00  0.00     0.006 C 
ENDBRANCH   8   9
BRANCH   8  11
ATOM     11  C   LIG d   1       0.686  83.543 116.089  0.00  0.00     0.028 C 
ATOM     12  C   LIG d   1       0.180  82.214 116.671  0.00  0.00     0.006 C 
ENDBRANCH   8  11
ENDBRANCH   7   8
ENDBRANCH   1   7
BRANCH   6  13
ATOM     13  N   LIG d   1      -0.701  82.261 113.122  0.00  0.00    -0.311 N 
ATOM     14  C   LIG d   1      -1.777  81.524 112.852  0.00  0.00     0.210 C 
ATOM     15  C   LIG d   1      -1.835  80.175 113.575  0.00  0.00     0.109 C 
ATOM     16  O   LIG d   1      -2.674  81.845 112.058  0.00  0.00    -0.276 OA
ATOM     17  H   LIG d   1      -0.008  81.909 113.753  0.00  0.00     0.149 HD
ENDBRANCH   6  13
BRANCH   5  18
ATOM     18  N   LIG d   1      -0.285  82.826 110.148  0.00  0.00     0.381 N 
ATOM     19  H   LIG d   1      -1.060  83.362 109.812  0.00  0.00    -0.090 HD
ATOM     20  H   LIG d   1      -0.634  81.952 110.500  0.00  0.00    -0.090 HD
ATOM     21  H   LIG d   1       0.360  82.661 109.407  0.00  0.00    -0.090 HD
ENDBRANCH   5  18
BRANCH   3  22
ATOM     22  C   LIG d   1       2.016  86.841 111.384  0.00  0.00     0.382 C 
ATOM     23  O   LIG d   1       3.210  86.597 111.086  0.00  0.00    -0.241 OA
ATOM     24  O   LIG d   1       1.610  88.018 111.379  0.00  0.00    -0.241 OA
ENDBRANCH   3  22
TORSDOF 7
ENDMDL
MODEL 3
REMARK VINA RESULT:      -5.5      2.891      6.154
REMARK  7 active torsions:
REMARK  status: ('A' for Active; 'I' for Inactive)
REMARK    1  A    between atoms: C_2  and  C_3 
REMARK    2  A    between atoms: C_3  and  O_6 
REMARK    3  A    between atoms: C_3  and  C_4 
REMARK    4  A    between atoms: C_7  and  O_6 
REMARK    5  A    between atoms: C_9  and  C_10 
REMARK    6  A    between atoms: N_15  and  C_14 
REMARK    7  A    between atoms: N_20  and  C_19 
REMARK       I    between atoms: C_22  and  N_20 
ROOT
ATOM      1  C   LIG d   1       1.723  85.840 113.744  0.00  0.00     0.161 C 
ATOM      2  C   LIG d   1       2.487  87.007 113.912  0.00  0.00     0.016 C 
ATOM      3  C   LIG d   1       3.474  87.429 112.992  0.00  0.00     0.038 C 
ATOM      4  C   LIG d   1       3.659  86.789 111.757  0.00  0.00     0.028 C 
ATOM      5  C   LIG d   1       3.262  85.317 111.773  0.00  0.00    -0.047 C 
ATOM      6  C   LIG d   1       1.833  85.189 112.350  0.00  0.00     0.091 C 
ENDROOT
BRANCH   1   7
ATOM      7  O   LIG d   1       0.344  86.109 114.064  0.00  0.00    -0.368 OA
BRANCH   7   8
ATOM      8  C   LIG d   1      -0.168  85.477 115.263  0.00  0.00     0.119 C 
BRANCH   8   9
ATOM      9  C   LIG d   1      -1.573  84.934 114.936  0.00  0.00     0.028 C 
ATOM     10  C   LIG d   1      -1.681  83.416 115.158  0.00  0.00     0.006 C 
ENDBRANCH   8   9
BRANCH   8  11
ATOM     11  C   LIG d   1      -0.380  86.499 116.384  0.00  0.00     0.028 C 
ATOM     12  C   LIG d   1       0.722  86.445 117.454  0.00  0.00     0.006 C 
ENDBRANCH   8  11
ENDBRANCH   7   8
ENDBRANCH   1   7
BRANCH   6  13
ATOM     13  N   LIG d   1       1.399  83.774 112.478  0.00  0.00    -0.311 N 
ATOM     14  C   LIG d   1       0.240  83.317 112.006  0.00  0.00     0.210 C 
ATOM     15  C   LIG d   1      -0.022  81.830 112.263  0.00  0.00     0.109 C 
ATOM     16  O   LIG d   1      -0.582  83.995 111.372  0.00  0.00    -0.276 OA
ATOM     17  H   LIG d   1       2.019  83.147 112.952  0.00  0.00     0.149 HD
ENDBRANCH   6  13
BRANCH   5  18
ATOM     18  N   LIG d   1       3.375  84.811 110.392  0.00  0.00     0.381 N 
ATOM     19  H   LIG d   1       2.984  83.891 110.335  0.00  0.00    -0.090 HD
ATOM     20  H   LIG d   1       4.347  84.756 110.144  0.00  0.00    -0.090 HD
ATOM     21  H   LIG d   1       2.898  85.421 109.765  0.00  0.00    -0.090 HD
ENDBRANCH   5  18
BRANCH   3  22
ATOM     22  C   LIG d   1       4.316  88.481 113.321  0.00  0.00     0.382 C 
ATOM     23  O   LIG d   1       5.301  88.283 114.073  0.00  0.00    -0.241 OA
ATOM     24  O   LIG d   1       4.077  89.633 112.913  0.00  0.00    -0.241 OA
ENDBRANCH   3  22
TORSDOF 7
ENDMDL
MODEL 4
REMARK VINA RESULT:      -5.4      1.616      2.155
REMARK  7 active torsions:
REMARK  status: ('A' for Active; 'I' for Inactive)
REMARK    1  A    between atoms: C_2  and  C_3 
REMARK    2  A    between atoms: C_3  and  O_6 
REMARK    3  A    between atoms: C_3  and  C_4 
REMARK    4  A    between atoms: C_7  and  O_6 
REMARK    5  A    between atoms: C_9  and  C_10 
REMARK    6  A    between atoms: N_15  and  C_14 
REMARK    7  A    between atoms: N_20  and  C_19 
REMARK       I    between atoms: C_22  and  N_20 
ROOT
ATOM      1  C   LIG d   1      -0.051  83.448 112.376  0.00  0.00     0.161 C 
ATOM      2  C   LIG d   1      -1.231  82.809 112.790  0.00  0.00     0.016 C 
ATOM      3  C   LIG d   1      -1.553  81.475 112.451  0.00  0.00     0.038 C 
ATOM      4  C   LIG d   1      -0.640  80.635 111.796  0.00  0.00     0.028 C 
ATOM      5  C   LIG d   1       0.355  81.388 110.920  0.00  0.00    -0.047 C 
ATOM      6  C   LIG d   1       1.008  82.513 111.755  0.00  0.00     0.091 C 
ENDROOT
BRANCH   1   7
ATOM      7  O   LIG d   1       0.517  84.187 113.476  0.00  0.00    -0.368 OA
BRANCH   7   8
ATOM      8  C   LIG d   1       0.280  83.643 114.798  0.00  0.00     0.119 C 
BRANCH   8   9
ATOM      9  C   LIG d   1      -0.070  84.822 115.727  0.00  0.00     0.028 C 
ATOM     10  C   LIG d   1      -1.454  85.419 115.420  0.00  0.00     0.006 C 
ENDBRANCH   8   9
BRANCH   8  11
ATOM     11  C   LIG d   1       1.555  83.030 115.385  0.00  0.00     0.028 C 
ATOM     12  C   LIG d   1       1.553  81.494 115.340  0.00  0.00     0.006 C 
ENDBRANCH   8  11
ENDBRANCH   7   8
ENDBRANCH   1   7
BRANCH   6  13
ATOM     13  N   LIG d   1       1.933  83.353 110.949  0.00  0.00    -0.311 N 
ATOM     14  C   LIG d   1       3.121  83.763 111.389  0.00  0.00     0.210 C 
ATOM     15  C   LIG d   1       3.908  84.637 110.407  0.00  0.00     0.109 C 
ATOM     16  O   LIG d   1       3.612  83.460 112.487  0.00  0.00    -0.276 OA
ATOM     17  H   LIG d   1       1.627  83.619 110.034  0.00  0.00     0.149 HD
ENDBRANCH   6  13
BRANCH   5  18
ATOM     18  N   LIG d   1       1.330  80.407 110.408  0.00  0.00     0.381 N 
ATOM     19  H   LIG d   1       1.466  80.545 109.426  0.00  0.00    -0.090 HD
ATOM     20  H   LIG d   1       0.965  79.482 110.549  0.00  0.00    -0.090 HD
ATOM     21  H   LIG d   1       2.197  80.506 110.888  0.00  0.00    -0.090 HD
ENDBRANCH   5  18
BRANCH   3  22
ATOM     22  C   LIG d   1      -2.818  80.980 112.733  0.00  0.00     0.382 C 
ATOM     23  O   LIG d   1      -3.834  81.649 112.429  0.00  0.00    -0.241 OA
ATOM     24  O   LIG d   1      -2.953  79.894 113.328  0.00  0.00    -0.241 OA
ENDBRANCH   3  22
TORSDOF 7
ENDMDL
MODEL 5
REMARK VINA RESULT:      -5.4      2.913      6.376
REMARK  7 active torsions:
REMARK  status: ('A' for Active; 'I' for Inactive)
REMARK    1  A    between atoms: C_2  and  C_3 
REMARK    2  A    between atoms: C_3  and  O_6 
REMARK    3  A    between atoms: C_3  and  C_4 
REMARK    4  A    between atoms: C_7  and  O_6 
REMARK    5  A    between atoms: C_9  and  C_10 
REMARK    6  A    between atoms: N_15  and  C_14 
REMARK    7  A    between atoms: N_20  and  C_19 
REMARK       I    between atoms: C_22  and  N_20 
ROOT
ATOM      1  C   LIG d   1       2.587  85.359 113.735  0.00  0.00     0.161 C 
ATOM      2  C   LIG d   1       3.367  86.510 113.937  0.00  0.00     0.016 C 
ATOM      3  C   LIG d   1       3.418  87.586 113.022  0.00  0.00     0.038 C 
ATOM      4  C   LIG d   1       2.570  87.651 111.907  0.00  0.00     0.028 C 
ATOM      5  C   LIG d   1       2.134  86.282 111.396  0.00  0.00    -0.047 C 
ATOM      6  C   LIG d   1       1.571  85.462 112.579  0.00  0.00     0.091 C 
ENDROOT
BRANCH   1   7
ATOM      7  O   LIG d   1       1.918  85.001 114.961  0.00  0.00    -0.368 OA
BRANCH   7   8
ATOM      8  C   LIG d   1       0.615  85.598 115.173  0.00  0.00     0.119 C 
BRANCH   8   9
ATOM      9  C   LIG d   1       0.730  86.539 116.388  0.00  0.00     0.028 C 
ATOM     10  C   LIG d   1       1.219  85.811 117.651  0.00  0.00     0.006 C 
ENDBRANCH   8   9
BRANCH   8  11
ATOM     11  C   LIG d   1      -0.422  84.545 115.573  0.00  0.00     0.028 C 
ATOM     12  C   LIG d   1      -1.844  84.906 115.118  0.00  0.00     0.006 C 
ENDBRANCH   8  11
ENDBRANCH   7   8
ENDBRANCH   1   7
BRANCH   6  13
ATOM     13  N   LIG d   1       1.198  84.079 112.183  0.00  0.00    -0.311 N 
ATOM     14  C   LIG d   1      -0.028  83.731 111.798  0.00  0.00     0.210 C 
ATOM     15  C   LIG d   1      -0.202  82.249 111.452  0.00  0.00     0.109 C 
ATOM     16  O   LIG d   1      -0.981  84.516 111.679  0.00  0.00    -0.276 OA
ATOM     17  H   LIG d   1       1.918  83.384 112.221  0.00  0.00     0.149 HD
ENDBRANCH   6  13
BRANCH   5  18
ATOM     18  N   LIG d   1       1.146  86.501 110.322  0.00  0.00     0.381 N 
ATOM     19  H   LIG d   1       0.587  87.303 110.534  0.00  0.00    -0.090 HD
ATOM     20  H   LIG d   1       0.542  85.700 110.269  0.00  0.00    -0.090 HD
ATOM     21  H   LIG d   1       1.613  86.633 109.452  0.00  0.00    -0.090 HD
ENDBRANCH   5  18
BRANCH   3  22
ATOM     22  C   LIG d   1       4.355  88.594 113.197  0.00  0.00     0.382 C 
ATOM     23  O   LIG d   1       4.049  89.784 112.945  0.00  0.00    -0.241 OA
ATOM     24  O   LIG d   1       5.514  88.322 113.561  0.00  0.00    -0.241 OA
ENDBRANCH   3  22
TORSDOF 7
ENDMDL
MODEL 6
REMARK VINA RESULT:      -5.2      3.145      6.769
REMARK  7 active torsions:
REMARK  status: ('A' for Active; 'I' for Inactive)
REMARK    1  A    between atoms: C_2  and  C_3 
REMARK    2  A    between atoms: C_3  and  O_6 
REMARK    3  A    between atoms: C_3  and  C_4 
REMARK    4  A    between atoms: C_7  and  O_6 
REMARK    5  A    between atoms: C_9  and  C_10 
REMARK    6  A    between atoms: N_15  and  C_14 
REMARK    7  A    between atoms: N_20  and  C_19 
REMARK       I    between atoms: C_22  and  N_20 
ROOT
ATOM      1  C   LIG d   1       1.728  86.103 112.707  0.00  0.00     0.161 C 
ATOM      2  C   LIG d   1       2.788  86.975 112.408  0.00  0.00     0.016 C 
ATOM      3  C   LIG d   1       3.544  87.648 113.395  0.00  0.00     0.038 C 
ATOM      4  C   LIG d   1       3.388  87.376 114.762  0.00  0.00     0.028 C 
ATOM      5  C   LIG d   1       1.991  86.883 115.126  0.00  0.00    -0.047 C 
ATOM      6  C   LIG d   1       1.615  85.709 114.194  0.00  0.00     0.091 C 
ENDROOT
BRANCH   1   7
ATOM      7  O   LIG d   1       1.816  84.925 111.881  0.00  0.00    -0.368 OA
BRANCH   7   8
ATOM      8  C   LIG d   1       0.702  84.690 110.985  0.00  0.00     0.119 C 
BRANCH   8   9
ATOM      9  C   LIG d   1       1.092  83.522 110.059  0.00  0.00     0.028 C 
ATOM     10  C   LIG d   1       0.378  82.213 110.433  0.00  0.00     0.006 C 
ENDBRANCH   8   9
BRANCH   8  11
ATOM     11  C   LIG d   1       0.474  85.886 110.055  0.00  0.00     0.028 C 
ATOM     12  C   LIG d   1      -0.936  86.484 110.189  0.00  0.00     0.006 C 
ENDBRANCH   8  11
ENDBRANCH   7   8
ENDBRANCH   1   7
BRANCH   6  13
ATOM     13  N   LIG d   1       0.230  85.222 114.427  0.00  0.00    -0.311 N 
ATOM     14  C   LIG d   1      -0.064  83.952 114.700  0.00  0.00     0.210 C 
ATOM     15  C   LIG d   1      -1.556  83.660 114.885  0.00  0.00     0.109 C 
ATOM     16  O   LIG d   1       0.771  83.046 114.837  0.00  0.00    -0.276 OA
ATOM     17  H   LIG d   1      -0.507  85.897 114.365  0.00  0.00     0.149 HD
ENDBRANCH   6  13
BRANCH   5  18
ATOM     18  N   LIG d   1       2.009  86.508 116.552  0.00  0.00     0.381 N 
ATOM     19  H   LIG d   1       2.539  87.178 117.073  0.00  0.00    -0.090 HD
ATOM     20  H   LIG d   1       2.454  85.612 116.647  0.00  0.00    -0.090 HD
ATOM     21  H   LIG d   1       1.078  86.463 116.904  0.00  0.00    -0.090 HD
ENDBRANCH   5  18
BRANCH   3  22
ATOM     22  C   LIG d   1       4.442  88.635 113.018  0.00  0.00     0.382 C 
ATOM     23  O   LIG d   1       4.076  89.834 112.980  0.00  0.00    -0.241 OA
ATOM     24  O   LIG d   1       5.601  88.336 112.673  0.00  0.00    -0.241 OA
ENDBRANCH   3  22
TORSDOF 7
ENDMDL
MODEL 7
REMARK VINA RESULT:      -5.1      2.728      5.881
REMARK  7 active torsions:
REMARK  status: ('A' for Active; 'I' for Inactive)
REMARK    1  A    between atoms: C_2  and  C_3 
REMARK    2  A    between atoms: C_3  and  O_6 
REMARK    3  A    between atoms: C_3  and  C_4 
REMARK    4  A    between atoms: C_7  and  O_6 
REMARK    5  A    between atoms: C_9  and  C_10 
REMARK    6  A    between atoms: N_15  and  C_14 
REMARK    7  A    between atoms: N_20  and  C_19 
REMARK       I    between atoms: C_22  and  N_20 
ROOT
ATOM      1  C   LIG d   1      -0.577  84.366 112.801  0.00  0.00     0.161 C 
ATOM      2  C   LIG d   1       0.051  85.332 111.997  0.00  0.00     0.016 C 
ATOM      3  C   LIG d   1       1.288  85.933 112.326  0.00  0.00     0.038 C 
ATOM      4  C   LIG d   1       2.059  85.495 113.412  0.00  0.00     0.028 C 
ATOM      5  C   LIG d   1       1.231  84.876 114.533  0.00  0.00    -0.047 C 
ATOM      6  C   LIG d   1       0.302  83.795 113.932  0.00  0.00     0.091 C 
ENDROOT
BRANCH   1   7
ATOM      7  O   LIG d   1      -1.086  83.300 111.975  0.00  0.00    -0.368 OA
BRANCH   7   8
ATOM      8  C   LIG d   1      -0.235  82.135 111.843  0.00  0.00     0.119 C 
BRANCH   8   9
ATOM      9  C   LIG d   1       0.264  82.088 110.386  0.00  0.00     0.028 C 
ATOM     10  C   LIG d   1       0.996  80.776 110.058  0.00  0.00     0.006 C 
ENDBRANCH   8   9
BRANCH   8  11
ATOM     11  C   LIG d   1      -1.029  80.840 112.041  0.00  0.00     0.028 C 
ATOM     12  C   LIG d   1      -2.450  81.087 112.573  0.00  0.00     0.006 C 
ENDBRANCH   8  11
ENDBRANCH   7   8
ENDBRANCH   1   7
BRANCH   6  13
ATOM     13  N   LIG d   1      -0.603  83.198 114.948  0.00  0.00    -0.311 N 
ATOM     14  C   LIG d   1      -0.352  82.045 115.567  0.00  0.00     0.210 C 
ATOM     15  C   LIG d   1      -1.426  81.599 116.564  0.00  0.00     0.109 C 
ATOM     16  O   LIG d   1       0.674  81.366 115.408  0.00  0.00    -0.276 OA
ATOM     17  H   LIG d   1      -1.444  83.698 115.161  0.00  0.00     0.149 HD
ENDBRANCH   6  13
BRANCH   5  18
ATOM     18  N   LIG d   1       2.169  84.339 115.537  0.00  0.00     0.381 N 
ATOM     19  H   LIG d   1       2.060  84.832 116.400  0.00  0.00    -0.090 HD
ATOM     20  H   LIG d   1       3.109  84.479 115.210  0.00  0.00    -0.090 HD
ATOM     21  H   LIG d   1       1.999  83.367 115.677  0.00  0.00    -0.090 HD
ENDBRANCH   5  18
BRANCH   3  22
ATOM     22  C   LIG d   1       1.746  87.013 111.586  0.00  0.00     0.382 C 
ATOM     23  O   LIG d   1       2.027  88.092 112.159  0.00  0.00    -0.241 OA
ATOM     24  O   LIG d   1       1.838  86.934 110.346  0.00  0.00    -0.241 OA
ENDBRANCH   3  22
TORSDOF 7
ENDMDL
MODEL 8
REMARK VINA RESULT:      -5.1     23.368     26.313
REMARK  7 active torsions:
REMARK  status: ('A' for Active; 'I' for Inactive)
REMARK    1  A    between atoms: C_2  and  C_3 
REMARK    2  A    between atoms: C_3  and  O_6 
REMARK    3  A    between atoms: C_3  and  C_4 
REMARK    4  A    between atoms: C_7  and  O_6 
REMARK    5  A    between atoms: C_9  and  C_10 
REMARK    6  A    between atoms: N_15  and  C_14 
REMARK    7  A    between atoms: N_20  and  C_19 
REMARK       I    between atoms: C_22  and  N_20 
ROOT
ATOM      1  C   LIG d   1     -25.263  85.938 112.746  0.00  0.00     0.161 C 
ATOM      2  C   LIG d   1     -24.150  86.777 112.922  0.00  0.00     0.016 C 
ATOM      3  C   LIG d   1     -22.902  86.323 113.406  0.00  0.00     0.038 C 
ATOM      4  C   LIG d   1     -22.635  84.960 113.605  0.00  0.00     0.028 C 
ATOM      5  C   LIG d   1     -23.881  84.139 113.922  0.00  0.00    -0.047 C 
ATOM      6  C   LIG d   1     -24.958  84.429 112.853  0.00  0.00     0.091 C 
ENDROOT
BRANCH   1   7
ATOM      7  O   LIG d   1     -25.903  86.233 111.489  0.00  0.00    -0.368 OA
BRANCH   7   8
ATOM      8  C   LIG d   1     -27.009  87.166 111.540  0.00  0.00     0.119 C 
BRANCH   8   9
ATOM      9  C   LIG d   1     -28.216  86.492 110.858  0.00  0.00     0.028 C 
ATOM     10  C   LIG d   1     -29.314  87.500 110.480  0.00  0.00     0.006 C 
ENDBRANCH   8   9
BRANCH   8  11
ATOM     11  C   LIG d   1     -26.721  88.419 110.708  0.00  0.00     0.028 C 
ATOM     12  C   LIG d   1     -26.228  89.600 111.560  0.00  0.00     0.006 C 
ENDBRANCH   8  11
ENDBRANCH   7   8
ENDBRANCH   1   7
BRANCH   6  13
ATOM     13  N   LIG d   1     -26.239  83.731 113.135  0.00  0.00    -0.311 N 
ATOM     14  C   LIG d   1     -26.998  83.181 112.189  0.00  0.00     0.210 C 
ATOM     15  C   LIG d   1     -28.289  82.528 112.693  0.00  0.00     0.109 C 
ATOM     16  O   LIG d   1     -26.710  83.144 110.983  0.00  0.00    -0.276 OA
ATOM     17  H   LIG d   1     -26.534  83.687 114.091  0.00  0.00     0.149 HD
ENDBRANCH   6  13
BRANCH   5  18
ATOM     18  N   LIG d   1     -23.479  82.721 113.969  0.00  0.00     0.381 N 
ATOM     19  H   LIG d   1     -23.091  82.449 113.089  0.00  0.00    -0.090 HD
ATOM     20  H   LIG d   1     -24.294  82.158 114.141  0.00  0.00    -0.090 HD
ATOM     21  H   LIG d   1     -22.810  82.579 114.694  0.00  0.00    -0.090 HD
ENDBRANCH   5  18
BRANCH   3  22
ATOM     22  C   LIG d   1     -21.916  87.242 113.734  0.00  0.00     0.382 C 
ATOM     23  O   LIG d   1     -20.840  87.264 113.089  0.00  0.00    -0.241 OA
ATOM     24  O   LIG d   1     -22.071  88.018 114.696  0.00  0.00    -0.241 OA
ENDBRANCH   3  22
TORSDOF 7
ENDMDL
MODEL 9
REMARK VINA RESULT:      -5.1      2.465      4.138
REMARK  7 active torsions:
REMARK  status: ('A' for Active; 'I' for Inactive)
REMARK    1  A    between atoms: C_2  and  C_3 
REMARK    2  A    between atoms: C_3  and  O_6 
REMARK    3  A    between atoms: C_3  and  C_4 
REMARK    4  A    between atoms: C_7  and  O_6 
REMARK    5  A    between atoms: C_9  and  C_10 
REMARK    6  A    between atoms: N_15  and  C_14 
REMARK    7  A    between atoms: N_20  and  C_19 
REMARK       I    between atoms: C_22  and  N_20 
ROOT
ATOM      1  C   LIG d   1       0.539  84.115 112.578  0.00  0.00     0.161 C 
ATOM      2  C   LIG d   1      -0.554  83.333 112.987  0.00  0.00     0.016 C 
ATOM      3  C   LIG d   1      -1.282  83.574 114.175  0.00  0.00     0.038 C 
ATOM      4  C   LIG d   1      -1.058  84.712 114.964  0.00  0.00     0.028 C 
ATOM      5  C   LIG d   1       0.365  85.250 114.860  0.00  0.00    -0.047 C 
ATOM      6  C   LIG d   1       0.728  85.427 113.368  0.00  0.00     0.091 C 
ENDROOT
BRANCH   1   7
ATOM      7  O   LIG d   1       0.443  84.390 111.166  0.00  0.00    -0.368 OA
BRANCH   7   8
ATOM      8  C   LIG d   1       1.305  83.606 110.304  0.00  0.00     0.119 C 
BRANCH   8   9
ATOM      9  C   LIG d   1       0.606  82.255 110.056  0.00  0.00     0.028 C 
ATOM     10  C   LIG d   1       1.473  81.059 110.483  0.00  0.00     0.006 C 
ENDBRANCH   8   9
BRANCH   8  11
ATOM     11  C   LIG d   1       2.623  83.258 111.002  0.00  0.00     0.028 C 
ATOM     12  C   LIG d   1       3.829  83.994 110.396  0.00  0.00     0.006 C 
ENDBRANCH   8  11
ENDBRANCH   7   8
ENDBRANCH   1   7
BRANCH   6  13
ATOM     13  N   LIG d   1       2.134  85.870 113.175  0.00  0.00    -0.311 N 
ATOM     14  C   LIG d   1       2.480  86.886 112.386  0.00  0.00     0.210 C 
ATOM     15  C   LIG d   1       3.985  87.164 112.313  0.00  0.00     0.109 C 
ATOM     16  O   LIG d   1       1.682  87.603 111.765  0.00  0.00    -0.276 OA
ATOM     17  H   LIG d   1       2.843  85.363 113.666  0.00  0.00     0.149 HD
ENDBRANCH   6  13
BRANCH   5  18
ATOM     18  N   LIG d   1       0.421  86.512 115.622  0.00  0.00     0.381 N 
ATOM     19  H   LIG d   1      -0.063  86.405 116.491  0.00  0.00    -0.090 HD
ATOM     20  H   LIG d   1      -0.038  87.232 115.092  0.00  0.00    -0.090 HD
ATOM     21  H   LIG d   1       1.369  86.767 115.791  0.00  0.00    -0.090 HD
ENDBRANCH   5  18
BRANCH   3  22
ATOM     22  C   LIG d   1      -2.219  82.648 114.606  0.00  0.00     0.382 C 
ATOM     23  O   LIG d   1      -3.191  82.351 113.870  0.00  0.00    -0.241 OA
ATOM     24  O   LIG d   1      -2.130  82.139 115.739  0.00  0.00    -0.241 OA
ENDBRANCH   3  22
TORSDOF 7
ENDMDL
