MODEL 1
REMARK VINA RESULT:      -5.6      0.000      0.000
REMARK  7 active torsions:
REMARK  status: ('A' for Active; 'I' for Inactive)
REMARK    1  A    between atoms: C_2  and  C_3 
REMARK    2  A    between atoms: C_3  and  O_6 
REMARK    3  A    between atoms: C_3  and  C_4 
REMARK    4  A    between atoms: C_7  and  O_6 
REMARK    5  A    between atoms: C_9  and  C_10 
REMARK    6  A    between atoms: N_15  and  C_14 
REMARK    7  A    between atoms: N_20  and  C_19 
REMARK       I    between atoms: C_22  and  N_20 
ROOT
ATOM      1  C   LIG d   1       2.774  84.287 112.805  0.00  0.00     0.161 C 
ATOM      2  C   LIG d   1       3.303  85.521 113.218  0.00  0.00     0.016 C 
ATOM      3  C   LIG d   1       2.936  86.758 112.638  0.00  0.00     0.038 C 
ATOM      4  C   LIG d   1       1.896  86.858 111.702  0.00  0.00     0.028 C 
ATOM      5  C   LIG d   1       1.685  85.584 110.892  0.00  0.00    -0.047 C 
ATOM      6  C   LIG d   1       1.556  84.388 111.862  0.00  0.00     0.091 C 
ENDROOT
BRANCH   1   7
ATOM      7  O   LIG d   1       2.449  83.485 113.958  0.00  0.00    -0.368 OA
BRANCH   7   8
ATOM      8  C   LIG d   1       1.210  83.811 114.633  0.00  0.00     0.119 C 
BRANCH   8   9
ATOM      9  C   LIG d   1       1.554  84.140 116.099  0.00  0.00     0.028 C 
ATOM     10  C   LIG d   1       0.390  83.836 117.057  0.00  0.00     0.006 C 
ENDBRANCH   8   9
BRANCH   8  11
ATOM     11  C   LIG d   1       0.275  82.599 114.698  0.00  0.00     0.028 C 
ATOM     12  C   LIG d   1       0.978  81.284 114.326  0.00  0.00     0.006 C 
ENDBRANCH   8  11
ENDBRANCH   7   8
ENDBRANCH   1   7
BRANCH   6  13
ATOM     13  N   LIG d   1       1.431  83.090 111.149  0.00  0.00    -0.311 N 
ATOM     14  C   LIG d   1       0.262  82.508 110.885  0.00  0.00     0.210 C 
ATOM     15  C   LIG d   1       0.359  81.163 110.158  0.00  0.00     0.109 C 
ATOM     16  O   LIG d   1      -0.846  82.994 111.154  0.00  0.00    -0.276 OA
ATOM     17  H   LIG d   1       2.280  82.641 110.866  0.00  0.00     0.149 HD
ENDBRANCH   6  13
BRANCH   5  18
ATOM     18  N   LIG d   1       0.486  85.781 110.056  0.00  0.00     0.381 N 
ATOM     19  H   LIG d   1       0.746  85.802 109.090  0.00  0.00    -0.090 HD
ATOM     20  H   LIG d   1       0.068  86.665 110.289  0.00  0.00    -0.090 HD
ATOM     21  H   LIG d   1      -0.167  85.045 110.216  0.00  0.00    -0.090 HD
ENDBRANCH   5  18
BRANCH   3  22
ATOM     22  C   LIG d   1       3.641  87.906 112.965  0.00  0.00     0.382 C 
ATOM     23  O   LIG d   1       4.884  87.853 113.130  0.00  0.00    -0.241 OA
ATOM     24  O   LIG d   1       3.045  88.985 113.140  0.00  0.00    -0.241 OA
ENDBRANCH   3  22
TORSDOF 7
ENDMDL
MODEL 2
REMARK VINA RESULT:      -5.4      3.604      6.873
REMARK  7 active torsions:
REMARK  status: ('A' for Active; 'I' for Inactive)
REMARK    1  A    between atoms: C_2  and  C_3 
REMARK    2  A    between atoms: C_3  and  O_6 
REMARK    3  A    between atoms: C_3  and  C_4 
REMARK    4  A    between atoms: C_7  and  O_6 
REMARK    5  A    between atoms: C_9  and  C_10 
REMARK    6  A    between atoms: N_15  and  C_14 
REMARK    7  A    between atoms: N_20  and  C_19 
REMARK       I    between atoms: C_22  and  N_20 
ROOT
ATOM      1  C   LIG d   1      -2.583  81.648 112.938  0.00  0.00     0.161 C 
ATOM      2  C   LIG d   1      -2.986  80.326 113.188  0.00  0.00     0.016 C 
ATOM      3  C   LIG d   1      -2.257  79.195 112.754  0.00  0.00     0.038 C 
ATOM      4  C   LIG d   1      -0.988  79.311 112.167  0.00  0.00     0.028 C 
ATOM      5  C   LIG d   1      -0.775  80.636 111.443  0.00  0.00    -0.047 C 
ATOM      6  C   LIG d   1      -1.145  81.794 112.397  0.00  0.00     0.091 C 
ENDROOT
BRANCH   1   7
ATOM      7  O   LIG d   1      -2.754  82.444 114.128  0.00  0.00    -0.368 OA
BRANCH   7   8
ATOM      8  C   LIG d   1      -2.408  81.802 115.380  0.00  0.00     0.119 C 
BRANCH   8   9
ATOM      9  C   LIG d   1      -3.548  82.086 116.377  0.00  0.00     0.028 C 
ATOM     10  C   LIG d   1      -3.026  82.512 117.759  0.00  0.00     0.006 C 
ENDBRANCH   8   9
BRANCH   8  11
ATOM     11  C   LIG d   1      -1.158  82.431 116.002  0.00  0.00     0.028 C 
ATOM     12  C   LIG d   1       0.083  81.533 115.885  0.00  0.00     0.006 C 
ENDBRANCH   8  11
ENDBRANCH   7   8
ENDBRANCH   1   7
BRANCH   6  13
ATOM     13  N   LIG d   1      -1.045  83.124 111.740  0.00  0.00    -0.311 N 
ATOM     14  C   LIG d   1      -0.322  84.130 112.228  0.00  0.00     0.210 C 
ATOM     15  C   LIG d   1      -0.372  85.421 111.405  0.00  0.00     0.109 C 
ATOM     16  O   LIG d   1       0.382  84.066 113.247  0.00  0.00    -0.276 OA
ATOM     17  H   LIG d   1      -1.560  83.253 110.891  0.00  0.00     0.149 HD
ENDBRANCH   6  13
BRANCH   5  18
ATOM     18  N   LIG d   1       0.631  80.679 110.999  0.00  0.00     0.381 N 
ATOM     19  H   LIG d   1       0.777  81.477 110.414  0.00  0.00    -0.090 HD
ATOM     20  H   LIG d   1       0.828  79.854 110.462  0.00  0.00    -0.090 HD
ATOM     21  H   LIG d   1       1.237  80.723 111.789  0.00  0.00    -0.090 HD
ENDBRANCH   5  18
BRANCH   3  22
ATOM     22  C   LIG d   1      -2.816  77.931 112.870  0.00  0.00     0.382 C 
ATOM     23  O   LIG d   1      -2.078  76.933 113.053  0.00  0.00    -0.241 OA
ATOM     24  O   LIG d   1      -4.045  77.771 112.750  0.00  0.00    -0.241 OA
ENDBRANCH   3  22
TORSDOF 7
ENDMDL
MODEL 3
REMARK VINA RESULT:      -5.3      2.655      6.268
REMARK  7 active torsions:
REMARK  status: ('A' for Active; 'I' for Inactive)
REMARK    1  A    between atoms: C_2  and  C_3 
REMARK    2  A    between atoms: C_3  and  O_6 
REMARK    3  A    between atoms: C_3  and  C_4 
REMARK    4  A    between atoms: C_7  and  O_6 
REMARK    5  A    between atoms: C_9  and  C_10 
REMARK    6  A    between atoms: N_15  and  C_14 
REMARK    7  A    between atoms: N_20  and  C_19 
REMARK       I    between atoms: C_22  and  N_20 
ROOT
ATOM      1  C   LIG d   1       0.694  83.585 112.809  0.00  0.00     0.161 C 
ATOM      2  C   LIG d   1      -0.490  82.962 112.381  0.00  0.00     0.016 C 
ATOM      3  C   LIG d   1      -1.346  82.241 113.245  0.00  0.00     0.038 C 
ATOM      4  C   LIG d   1      -1.154  82.223 114.634  0.00  0.00     0.028 C 
ATOM      5  C   LIG d   1       0.302  82.414 115.046  0.00  0.00    -0.047 C 
ATOM      6  C   LIG d   1       0.863  83.670 114.341  0.00  0.00     0.091 C 
ENDROOT
BRANCH   1   7
ATOM      7  O   LIG d   1       0.796  84.897 112.221  0.00  0.00    -0.368 OA
BRANCH   7   8
ATOM      8  C   LIG d   1       1.326  84.951 110.873  0.00  0.00     0.119 C 
BRANCH   8   9
ATOM      9  C   LIG d   1       2.808  85.361 110.975  0.00  0.00     0.028 C 
ATOM     10  C   LIG d   1       3.049  86.429 112.055  0.00  0.00     0.006 C 
ENDBRANCH   8   9
BRANCH   8  11
ATOM     11  C   LIG d   1       0.654  86.058 110.055  0.00  0.00     0.028 C 
ATOM     12  C   LIG d   1      -0.841  86.213 110.376  0.00  0.00     0.006 C 
ENDBRANCH   8  11
ENDBRANCH   7   8
ENDBRANCH   1   7
BRANCH   6  13
ATOM     13  N   LIG d   1       2.306  83.882 114.623  0.00  0.00    -0.311 N 
ATOM     14  C   LIG d   1       2.755  84.682 115.589  0.00  0.00     0.210 C 
ATOM     15  C   LIG d   1       4.280  84.774 115.697  0.00  0.00     0.109 C 
ATOM     16  O   LIG d   1       2.034  85.300 116.387  0.00  0.00    -0.276 OA
ATOM     17  H   LIG d   1       2.961  83.395 114.043  0.00  0.00     0.149 HD
ENDBRANCH   6  13
BRANCH   5  18
ATOM     18  N   LIG d   1       0.340  82.512 116.518  0.00  0.00     0.381 N 
ATOM     19  H   LIG d   1       0.243  83.468 116.796  0.00  0.00    -0.090 HD
ATOM     20  H   LIG d   1       1.229  82.177 116.843  0.00  0.00    -0.090 HD
ATOM     21  H   LIG d   1      -0.394  81.967 116.915  0.00  0.00    -0.090 HD
ENDBRANCH   5  18
BRANCH   3  22
ATOM     22  C   LIG d   1      -2.388  81.495 112.715  0.00  0.00     0.382 C 
ATOM     23  O   LIG d   1      -2.156  80.380 112.190  0.00  0.00    -0.241 OA
ATOM     24  O   LIG d   1      -3.550  81.944 112.715  0.00  0.00    -0.241 OA
ENDBRANCH   3  22
TORSDOF 7
ENDMDL
MODEL 4
REMARK VINA RESULT:      -5.2      2.318      5.109
REMARK  7 active torsions:
REMARK  status: ('A' for Active; 'I' for Inactive)
REMARK    1  A    between atoms: C_2  and  C_3 
REMARK    2  A    between atoms: C_3  and  O_6 
REMARK    3  A    between atoms: C_3  and  C_4 
REMARK    4  A    between atoms: C_7  and  O_6 
REMARK    5  A    between atoms: C_9  and  C_10 
REMARK    6  A    between atoms: N_15  and  C_14 
REMARK    7  A    between atoms: N_20  and  C_19 
REMARK       I    between atoms: C_22  and  N_20 
ROOT
ATOM      1  C   LIG d   1       0.484  83.359 114.209  0.00  0.00     0.161 C 
ATOM      2  C   LIG d   1      -0.680  82.588 114.361  0.00  0.00     0.016 C 
ATOM      3  C   LIG d   1      -1.597  82.349 113.312  0.00  0.00     0.038 C 
ATOM      4  C   LIG d   1      -1.333  82.743 111.991  0.00  0.00     0.028 C 
ATOM      5  C   LIG d   1      -0.416  83.958 111.894  0.00  0.00    -0.047 C 
ATOM      6  C   LIG d   1       0.846  83.704 112.749  0.00  0.00     0.091 C 
ENDROOT
BRANCH   1   7
ATOM      7  O   LIG d   1       1.592  82.705 114.858  0.00  0.00    -0.368 OA
BRANCH   7   8
ATOM      8  C   LIG d   1       1.849  83.096 116.230  0.00  0.00     0.119 C 
BRANCH   8   9
ATOM      9  C   LIG d   1       2.775  84.326 116.195  0.00  0.00     0.028 C 
ATOM     10  C   LIG d   1       4.092  84.049 115.450  0.00  0.00     0.006 C 
ENDBRANCH   8   9
BRANCH   8  11
ATOM     11  C   LIG d   1       2.636  82.016 116.979  0.00  0.00     0.028 C 
ATOM     12  C   LIG d   1       2.100  80.600 116.719  0.00  0.00     0.006 C 
ENDBRANCH   8  11
ENDBRANCH   7   8
ENDBRANCH   1   7
BRANCH   6  13
ATOM     13  N   LIG d   1       1.757  84.878 112.777  0.00  0.00    -0.311 N 
ATOM     14  C   LIG d   1       2.775  85.036 111.932  0.00  0.00     0.210 C 
ATOM     15  C   LIG d   1       3.601  86.308 112.146  0.00  0.00     0.109 C 
ATOM     16  O   LIG d   1       3.051  84.261 111.004  0.00  0.00    -0.276 OA
ATOM     17  H   LIG d   1       1.586  85.572 113.477  0.00  0.00     0.149 HD
ENDBRANCH   6  13
BRANCH   5  18
ATOM     18  N   LIG d   1      -0.114  84.174 110.466  0.00  0.00     0.381 N 
ATOM     19  H   LIG d   1      -0.140  83.301 109.978  0.00  0.00    -0.090 HD
ATOM     20  H   LIG d   1       0.813  84.554 110.384  0.00  0.00    -0.090 HD
ATOM     21  H   LIG d   1      -0.776  84.805 110.069  0.00  0.00    -0.090 HD
ENDBRANCH   5  18
BRANCH   3  22
ATOM     22  C   LIG d   1      -2.814  81.743 113.587  0.00  0.00     0.382 C 
ATOM     23  O   LIG d   1      -2.991  81.164 114.686  0.00  0.00    -0.241 OA
ATOM     24  O   LIG d   1      -3.721  81.731 112.734  0.00  0.00    -0.241 OA
ENDBRANCH   3  22
TORSDOF 7
ENDMDL
MODEL 5
REMARK VINA RESULT:      -5.0      4.268      7.566
REMARK  7 active torsions:
REMARK  status: ('A' for Active; 'I' for Inactive)
REMARK    1  A    between atoms: C_2  and  C_3 
REMARK    2  A    between atoms: C_3  and  O_6 
REMARK    3  A    between atoms: C_3  and  C_4 
REMARK    4  A    between atoms: C_7  and  O_6 
REMARK    5  A    between atoms: C_9  and  C_10 
REMARK    6  A    between atoms: N_15  and  C_14 
REMARK    7  A    between atoms: N_20  and  C_19 
REMARK       I    between atoms: C_22  and  N_20 
ROOT
ATOM      1  C   LIG d   1      -2.117  80.425 114.186  0.00  0.00     0.161 C 
ATOM      2  C   LIG d   1      -2.670  79.202 114.602  0.00  0.00     0.016 C 
ATOM      3  C   LIG d   1      -2.757  78.064 113.767  0.00  0.00     0.038 C 
ATOM      4  C   LIG d   1      -2.156  78.025 112.501  0.00  0.00     0.028 C 
ATOM      5  C   LIG d   1      -2.029  79.398 111.848  0.00  0.00    -0.047 C 
ATOM      6  C   LIG d   1      -1.355  80.368 112.845  0.00  0.00     0.091 C 
ENDROOT
BRANCH   1   7
ATOM      7  O   LIG d   1      -1.266  80.954 115.223  0.00  0.00    -0.368 OA
BRANCH   7   8
ATOM      8  C   LIG d   1      -1.657  82.234 115.776  0.00  0.00     0.119 C 
BRANCH   8   9
ATOM      9  C   LIG d   1      -0.367  82.999 116.129  0.00  0.00     0.028 C 
ATOM     10  C   LIG d   1      -0.459  83.707 117.492  0.00  0.00     0.006 C 
ENDBRANCH   8   9
BRANCH   8  11
ATOM     11  C   LIG d   1      -2.403  82.064 117.103  0.00  0.00     0.028 C 
ATOM     12  C   LIG d   1      -3.925  82.221 116.955  0.00  0.00     0.006 C 
ENDBRANCH   8  11
ENDBRANCH   7   8
ENDBRANCH   1   7
BRANCH   6  13
ATOM     13  N   LIG d   1      -1.269  81.754 112.317  0.00  0.00    -0.311 N 
ATOM     14  C   LIG d   1      -0.149  82.474 112.326  0.00  0.00     0.210 C 
ATOM     15  C   LIG d   1      -0.284  83.888 111.752  0.00  0.00     0.109 C 
ATOM     16  O   LIG d   1       0.952  82.064 112.725  0.00  0.00    -0.276 OA
ATOM     17  H   LIG d   1      -2.109  82.154 111.946  0.00  0.00     0.149 HD
ENDBRANCH   6  13
BRANCH   5  18
ATOM     18  N   LIG d   1      -1.264  79.229 110.599  0.00  0.00     0.381 N 
ATOM     19  H   LIG d   1      -0.388  78.786 110.795  0.00  0.00    -0.090 HD
ATOM     20  H   LIG d   1      -1.078  80.135 110.206  0.00  0.00    -0.090 HD
ATOM     21  H   LIG d   1      -1.784  78.678 109.952  0.00  0.00    -0.090 HD
ENDBRANCH   5  18
BRANCH   3  22
ATOM     22  C   LIG d   1      -3.487  76.961 114.184  0.00  0.00     0.382 C 
ATOM     23  O   LIG d   1      -2.935  76.066 114.868  0.00  0.00    -0.241 OA
ATOM     24  O   LIG d   1      -4.678  76.828 113.846  0.00  0.00    -0.241 OA
ENDBRANCH   3  22
TORSDOF 7
ENDMDL
MODEL 6
REMARK VINA RESULT:      -4.9      2.813      5.737
REMARK  7 active torsions:
REMARK  status: ('A' for Active; 'I' for Inactive)
REMARK    1  A    between atoms: C_2  and  C_3 
REMARK    2  A    between atoms: C_3  and  O_6 
REMARK    3  A    between atoms: C_3  and  C_4 
REMARK    4  A    between atoms: C_7  and  O_6 
REMARK    5  A    between atoms: C_9  and  C_10 
REMARK    6  A    between atoms: N_15  and  C_14 
REMARK    7  A    between atoms: N_20  and  C_19 
REMARK       I    between atoms: C_22  and  N_20 
ROOT
ATOM      1  C   LIG d   1      -0.443  83.042 112.859  0.00  0.00     0.161 C 
ATOM      2  C   LIG d   1      -1.496  82.246 113.340  0.00  0.00     0.016 C 
ATOM      3  C   LIG d   1      -1.714  80.911 112.926  0.00  0.00     0.038 C 
ATOM      4  C   LIG d   1      -0.798  80.229 112.111  0.00  0.00     0.028 C 
ATOM      5  C   LIG d   1       0.006  81.151 111.201  0.00  0.00    -0.047 C 
ATOM      6  C   LIG d   1       0.629  82.279 112.054  0.00  0.00     0.091 C 
ENDROOT
BRANCH   1   7
ATOM      7  O   LIG d   1       0.165  83.759 113.952  0.00  0.00    -0.368 OA
BRANCH   7   8
ATOM      8  C   LIG d   1       1.344  83.150 114.535  0.00  0.00     0.119 C 
BRANCH   8   9
ATOM      9  C   LIG d   1       0.883  82.315 115.745  0.00  0.00     0.028 C 
ATOM     10  C   LIG d   1       1.134  80.810 115.549  0.00  0.00     0.006 C 
ENDBRANCH   8   9
BRANCH   8  11
ATOM     11  C   LIG d   1       2.291  84.208 115.110  0.00  0.00     0.028 C 
ATOM     12  C   LIG d   1       3.662  84.220 114.417  0.00  0.00     0.006 C 
ENDBRANCH   8  11
ENDBRANCH   7   8
ENDBRANCH   1   7
BRANCH   6  13
ATOM     13  N   LIG d   1       1.364  83.274 111.230  0.00  0.00    -0.311 N 
ATOM     14  C   LIG d   1       2.677  83.216 111.008  0.00  0.00     0.210 C 
ATOM     15  C   LIG d   1       3.238  84.352 110.147  0.00  0.00     0.109 C 
ATOM     16  O   LIG d   1       3.424  82.314 111.416  0.00  0.00    -0.276 OA
ATOM     17  H   LIG d   1       0.830  84.022 110.834  0.00  0.00     0.149 HD
ENDBRANCH   6  13
BRANCH   5  18
ATOM     18  N   LIG d   1       1.014  80.326 110.509  0.00  0.00     0.381 N 
ATOM     19  H   LIG d   1       0.569  79.545 110.069  0.00  0.00    -0.090 HD
ATOM     20  H   LIG d   1       1.668  79.975 111.187  0.00  0.00    -0.090 HD
ATOM     21  H   LIG d   1       1.493  80.872 109.827  0.00  0.00    -0.090 HD
ENDBRANCH   5  18
BRANCH   3  22
ATOM     22  C   LIG d   1      -2.880  80.259 113.297  0.00  0.00     0.382 C 
ATOM     23  O   LIG d   1      -3.415  80.511 114.403  0.00  0.00    -0.241 OA
ATOM     24  O   LIG d   1      -3.378  79.388 112.558  0.00  0.00    -0.241 OA
ENDBRANCH   3  22
TORSDOF 7
ENDMDL
MODEL 7
REMARK VINA RESULT:      -4.8      9.221     10.698
REMARK  7 active torsions:
REMARK  status: ('A' for Active; 'I' for Inactive)
REMARK    1  A    between atoms: C_2  and  C_3 
REMARK    2  A    between atoms: C_3  and  O_6 
REMARK    3  A    between atoms: C_3  and  C_4 
REMARK    4  A    between atoms: C_7  and  O_6 
REMARK    5  A    between atoms: C_9  and  C_10 
REMARK    6  A    between atoms: N_15  and  C_14 
REMARK    7  A    between atoms: N_20  and  C_19 
REMARK       I    between atoms: C_22  and  N_20 
ROOT
ATOM      1  C   LIG d   1       9.704  79.513 115.709  0.00  0.00     0.161 C 
ATOM      2  C   LIG d   1      10.819  79.840 114.920  0.00  0.00     0.016 C 
ATOM      3  C   LIG d   1      11.376  78.966 113.959  0.00  0.00     0.038 C 
ATOM      4  C   LIG d   1      10.759  77.755 113.612  0.00  0.00     0.028 C 
ATOM      5  C   LIG d   1       9.919  77.160 114.737  0.00  0.00    -0.047 C 
ATOM      6  C   LIG d   1       8.950  78.242 115.267  0.00  0.00     0.091 C 
ENDROOT
BRANCH   1   7
ATOM      7  O   LIG d   1       8.801  80.635 115.768  0.00  0.00    -0.368 OA
BRANCH   7   8
ATOM      8  C   LIG d   1       9.372  81.889 116.217  0.00  0.00     0.119 C 
BRANCH   8   9
ATOM      9  C   LIG d   1       9.723  81.731 117.709  0.00  0.00     0.028 C 
ATOM     10  C   LIG d   1      11.216  81.973 117.990  0.00  0.00     0.006 C 
ENDBRANCH   8   9
BRANCH   8  11
ATOM     11  C   LIG d   1       8.343  83.022 116.160  0.00  0.00     0.028 C 
ATOM     12  C   LIG d   1       8.957  84.400 116.455  0.00  0.00     0.006 C 
ENDBRANCH   8  11
ENDBRANCH   7   8
ENDBRANCH   1   7
BRANCH   6  13
ATOM     13  N   LIG d   1       8.150  77.767 116.426  0.00  0.00    -0.311 N 
ATOM     14  C   LIG d   1       6.946  77.209 116.307  0.00  0.00     0.210 C 
ATOM     15  C   LIG d   1       6.285  76.810 117.629  0.00  0.00     0.109 C 
ATOM     16  O   LIG d   1       6.378  76.977 115.229  0.00  0.00    -0.276 OA
ATOM     17  H   LIG d   1       8.549  77.888 117.336  0.00  0.00     0.149 HD
ENDBRANCH   6  13
BRANCH   5  18
ATOM     18  N   LIG d   1       9.224  75.976 114.197  0.00  0.00     0.381 N 
ATOM     19  H   LIG d   1       9.764  75.575 113.456  0.00  0.00    -0.090 HD
ATOM     20  H   LIG d   1       8.338  76.263 113.820  0.00  0.00    -0.090 HD
ATOM     21  H   LIG d   1       9.085  75.303 114.918  0.00  0.00    -0.090 HD
ENDBRANCH   5  18
BRANCH   3  22
ATOM     22  C   LIG d   1      12.587  79.283 113.361  0.00  0.00     0.382 C 
ATOM     23  O   LIG d   1      13.577  79.580 114.071  0.00  0.00    -0.241 OA
ATOM     24  O   LIG d   1      12.688  79.317 112.120  0.00  0.00    -0.241 OA
ENDBRANCH   3  22
TORSDOF 7
ENDMDL
MODEL 8
REMARK VINA RESULT:      -4.7     10.594     12.014
REMARK  7 active torsions:
REMARK  status: ('A' for Active; 'I' for Inactive)
REMARK    1  A    between atoms: C_2  and  C_3 
REMARK    2  A    between atoms: C_3  and  O_6 
REMARK    3  A    between atoms: C_3  and  C_4 
REMARK    4  A    between atoms: C_7  and  O_6 
REMARK    5  A    between atoms: C_9  and  C_10 
REMARK    6  A    between atoms: N_15  and  C_14 
REMARK    7  A    between atoms: N_20  and  C_19 
REMARK       I    between atoms: C_22  and  N_20 
ROOT
ATOM      1  C   LIG d   1       9.916  77.158 114.104  0.00  0.00     0.161 C 
ATOM      2  C   LIG d   1      11.118  77.625 113.546  0.00  0.00     0.016 C 
ATOM      3  C   LIG d   1      11.674  78.890 113.843  0.00  0.00     0.038 C 
ATOM      4  C   LIG d   1      11.139  79.719 114.840  0.00  0.00     0.028 C 
ATOM      5  C   LIG d   1       9.646  79.510 115.066  0.00  0.00    -0.047 C 
ATOM      6  C   LIG d   1       9.377  78.002 115.277  0.00  0.00     0.091 C 
ENDROOT
BRANCH   1   7
ATOM      7  O   LIG d   1      10.065  75.781 114.503  0.00  0.00    -0.368 OA
BRANCH   7   8
ATOM      8  C   LIG d   1      11.308  75.441 115.166  0.00  0.00     0.119 C 
BRANCH   8   9
ATOM      9  C   LIG d   1      11.764  74.074 114.620  0.00  0.00     0.028 C 
ATOM     10  C   LIG d   1      10.977  72.904 115.236  0.00  0.00     0.006 C 
ENDBRANCH   8   9
BRANCH   8  11
ATOM     11  C   LIG d   1      11.098  75.228 116.668  0.00  0.00     0.028 C 
ATOM     12  C   LIG d   1      11.747  76.330 117.522  0.00  0.00     0.006 C 
ENDBRANCH   8  11
ENDBRANCH   7   8
ENDBRANCH   1   7
BRANCH   6  13
ATOM     13  N   LIG d   1       7.929  77.699 115.421  0.00  0.00    -0.311 N 
ATOM     14  C   LIG d   1       7.404  77.127 116.504  0.00  0.00     0.210 C 
ATOM     15  C   LIG d   1       5.893  76.885 116.438  0.00  0.00     0.109 C 
ATOM     16  O   LIG d   1       8.041  76.826 117.524  0.00  0.00    -0.276 OA
ATOM     17  H   LIG d   1       7.334  77.939 114.653  0.00  0.00     0.149 HD
ENDBRANCH   6  13
BRANCH   5  18
ATOM     18  N   LIG d   1       9.249  80.335 116.222  0.00  0.00     0.381 N 
ATOM     19  H   LIG d   1       8.518  80.964 115.955  0.00  0.00    -0.090 HD
ATOM     20  H   LIG d   1      10.040  80.880 116.519  0.00  0.00    -0.090 HD
ATOM     21  H   LIG d   1       8.940  79.752 116.968  0.00  0.00    -0.090 HD
ENDBRANCH   5  18
BRANCH   3  22
ATOM     22  C   LIG d   1      12.755  79.355 113.110  0.00  0.00     0.382 C 
ATOM     23  O   LIG d   1      12.788  79.187 111.867  0.00  0.00    -0.241 OA
ATOM     24  O   LIG d   1      13.718  79.902 113.681  0.00  0.00    -0.241 OA
ENDBRANCH   3  22
TORSDOF 7
ENDMDL
MODEL 9
REMARK VINA RESULT:      -4.7      2.187      2.731
REMARK  7 active torsions:
REMARK  status: ('A' for Active; 'I' for Inactive)
REMARK    1  A    between atoms: C_2  and  C_3 
REMARK    2  A    between atoms: C_3  and  O_6 
REMARK    3  A    between atoms: C_3  and  C_4 
REMARK    4  A    between atoms: C_7  and  O_6 
REMARK    5  A    between atoms: C_9  and  C_10 
REMARK    6  A    between atoms: N_15  and  C_14 
REMARK    7  A    between atoms: N_20  and  C_19 
REMARK       I    between atoms: C_22  and  N_20 
ROOT
ATOM      1  C   LIG d   1       0.901  83.153 114.070  0.00  0.00     0.161 C 
ATOM      2  C   LIG d   1       1.845  84.154 113.785  0.00  0.00     0.016 C 
ATOM      3  C   LIG d   1       1.966  84.771 112.519  0.00  0.00     0.038 C 
ATOM      4  C   LIG d   1       1.046  84.534 111.488  0.00  0.00     0.028 C 
ATOM      5  C   LIG d   1       0.386  83.162 111.567  0.00  0.00    -0.047 C 
ATOM      6  C   LIG d   1      -0.184  82.961 112.990  0.00  0.00     0.091 C 
ENDROOT
BRANCH   1   7
ATOM      7  O   LIG d   1       0.293  83.405 115.352  0.00  0.00    -0.368 OA
BRANCH   7   8
ATOM      8  C   LIG d   1       0.433  82.356 116.342  0.00  0.00     0.119 C 
BRANCH   8   9
ATOM      9  C   LIG d   1       0.921  83.014 117.647  0.00  0.00     0.028 C 
ATOM     10  C   LIG d   1       0.321  84.414 117.860  0.00  0.00     0.006 C 
ENDBRANCH   8   9
BRANCH   8  11
ATOM     11  C   LIG d   1       1.532  81.365 115.951  0.00  0.00     0.028 C 
ATOM     12  C   LIG d   1       2.550  81.129 117.079  0.00  0.00     0.006 C 
ENDBRANCH   8  11
ENDBRANCH   7   8
ENDBRANCH   1   7
BRANCH   6  13
ATOM     13  N   LIG d   1      -0.773  81.609 113.179  0.00  0.00    -0.311 N 
ATOM     14  C   LIG d   1      -2.063  81.338 112.989  0.00  0.00     0.210 C 
ATOM     15  C   LIG d   1      -2.465  79.885 113.259  0.00  0.00     0.109 C 
ATOM     16  O   LIG d   1      -2.906  82.156 112.592  0.00  0.00    -0.276 OA
ATOM     17  H   LIG d   1      -0.153  80.879 113.471  0.00  0.00     0.149 HD
ENDBRANCH   6  13
BRANCH   5  18
ATOM     18  N   LIG d   1      -0.647  83.102 110.517  0.00  0.00     0.381 N 
ATOM     19  H   LIG d   1      -0.704  82.173 110.150  0.00  0.00    -0.090 HD
ATOM     20  H   LIG d   1      -0.387  83.720 109.769  0.00  0.00    -0.090 HD
ATOM     21  H   LIG d   1      -1.530  83.374 110.890  0.00  0.00    -0.090 HD
ENDBRANCH   5  18
BRANCH   3  22
ATOM     22  C   LIG d   1       3.042  85.607 112.263  0.00  0.00     0.382 C 
ATOM     23  O   LIG d   1       3.796  85.965 113.200  0.00  0.00    -0.241 OA
ATOM     24  O   LIG d   1       3.243  86.044 111.114  0.00  0.00    -0.241 OA
ENDBRANCH   3  22
TORSDOF 7
ENDMDL
