MODEL 1
REMARK VINA RESULT:      -5.3      0.000      0.000
REMARK  7 active torsions:
REMARK  status: ('A' for Active; 'I' for Inactive)
REMARK    1  A    between atoms: C_2  and  C_3 
REMARK    2  A    between atoms: C_3  and  O_6 
REMARK    3  A    between atoms: C_3  and  C_4 
REMARK    4  A    between atoms: C_7  and  O_6 
REMARK    5  A    between atoms: C_9  and  C_10 
REMARK    6  A    between atoms: N_15  and  C_14 
REMARK    7  A    between atoms: N_20  and  C_19 
REMARK       I    between atoms: C_22  and  N_20 
ROOT
ATOM      1  C   LIG d   1       3.415  85.768 112.301  0.00  0.00     0.161 C 
ATOM      2  C   LIG d   1       3.961  87.059 112.407  0.00  0.00     0.016 C 
ATOM      3  C   LIG d   1       4.313  87.656 113.639  0.00  0.00     0.038 C 
ATOM      4  C   LIG d   1       4.283  86.941 114.845  0.00  0.00     0.028 C 
ATOM      5  C   LIG d   1       3.264  85.806 114.852  0.00  0.00    -0.047 C 
ATOM      6  C   LIG d   1       3.479  84.931 113.596  0.00  0.00     0.091 C 
ENDROOT
BRANCH   1   7
ATOM      7  O   LIG d   1       4.043  85.060 111.214  0.00  0.00    -0.368 OA
BRANCH   7   8
ATOM      8  C   LIG d   1       3.193  84.741 110.085  0.00  0.00     0.119 C 
BRANCH   8   9
ATOM      9  C   LIG d   1       1.861  85.491 110.283  0.00  0.00     0.028 C 
ATOM     10  C   LIG d   1       0.639  84.586 110.055  0.00  0.00     0.006 C 
ENDBRANCH   8   9
BRANCH   8  11
ATOM     11  C   LIG d   1       2.823  83.255 110.068  0.00  0.00     0.028 C 
ATOM     12  C   LIG d   1       4.048  82.335 110.182  0.00  0.00     0.006 C 
ENDBRANCH   8  11
ENDBRANCH   7   8
ENDBRANCH   1   7
BRANCH   6  13
ATOM     13  N   LIG d   1       2.469  83.847 113.481  0.00  0.00    -0.311 N 
ATOM     14  C   LIG d   1       2.654  82.619 113.962  0.00  0.00     0.210 C 
ATOM     15  C   LIG d   1       1.494  81.648 113.718  0.00  0.00     0.109 C 
ATOM     16  O   LIG d   1       3.654  82.251 114.596  0.00  0.00    -0.276 OA
ATOM     17  H   LIG d   1       1.615  84.068 113.008  0.00  0.00     0.149 HD
ENDBRANCH   6  13
BRANCH   5  18
ATOM     18  N   LIG d   1       3.436  85.060 116.112  0.00  0.00     0.381 N 
ATOM     19  H   LIG d   1       4.402  84.839 116.246  0.00  0.00    -0.090 HD
ATOM     20  H   LIG d   1       2.920  84.200 116.054  0.00  0.00    -0.090 HD
ATOM     21  H   LIG d   1       3.102  85.604 116.878  0.00  0.00    -0.090 HD
ENDBRANCH   5  18
BRANCH   3  22
ATOM     22  C   LIG d   1       4.663  88.997 113.677  0.00  0.00     0.382 C 
ATOM     23  O   LIG d   1       4.457  89.670 114.716  0.00  0.00    -0.241 OA
ATOM     24  O   LIG d   1       5.140  89.555 112.671  0.00  0.00    -0.241 OA
ENDBRANCH   3  22
TORSDOF 7
ENDMDL
MODEL 2
REMARK VINA RESULT:      -5.3      2.689      4.252
REMARK  7 active torsions:
REMARK  status: ('A' for Active; 'I' for Inactive)
REMARK    1  A    between atoms: C_2  and  C_3 
REMARK    2  A    between atoms: C_3  and  O_6 
REMARK    3  A    between atoms: C_3  and  C_4 
REMARK    4  A    between atoms: C_7  and  O_6 
REMARK    5  A    between atoms: C_9  and  C_10 
REMARK    6  A    between atoms: N_15  and  C_14 
REMARK    7  A    between atoms: N_20  and  C_19 
REMARK       I    between atoms: C_22  and  N_20 
ROOT
ATOM      1  C   LIG d   1       2.943  83.528 113.415  0.00  0.00     0.161 C 
ATOM      2  C   LIG d   1       1.722  83.841 112.795  0.00  0.00     0.016 C 
ATOM      3  C   LIG d   1       0.816  84.801 113.301  0.00  0.00     0.038 C 
ATOM      4  C   LIG d   1       1.141  85.627 114.387  0.00  0.00     0.028 C 
ATOM      5  C   LIG d   1       2.147  84.999 115.346  0.00  0.00    -0.047 C 
ATOM      6  C   LIG d   1       3.365  84.498 114.538  0.00  0.00     0.091 C 
ENDROOT
BRANCH   1   7
ATOM      7  O   LIG d   1       3.983  83.427 112.422  0.00  0.00    -0.368 OA
BRANCH   7   8
ATOM      8  C   LIG d   1       3.756  84.147 111.185  0.00  0.00     0.119 C 
BRANCH   8   9
ATOM      9  C   LIG d   1       4.439  83.353 110.055  0.00  0.00     0.028 C 
ATOM     10  C   LIG d   1       4.037  81.869 110.055  0.00  0.00     0.006 C 
ENDBRANCH   8   9
BRANCH   8  11
ATOM     11  C   LIG d   1       4.450  85.512 111.199  0.00  0.00     0.028 C 
ATOM     12  C   LIG d   1       3.495  86.663 111.555  0.00  0.00     0.006 C 
ENDBRANCH   8  11
ENDBRANCH   7   8
ENDBRANCH   1   7
BRANCH   6  13
ATOM     13  N   LIG d   1       4.359  83.794 115.390  0.00  0.00    -0.311 N 
ATOM     14  C   LIG d   1       5.430  84.390 115.911  0.00  0.00     0.210 C 
ATOM     15  C   LIG d   1       6.337  83.477 116.743  0.00  0.00     0.109 C 
ATOM     16  O   LIG d   1       5.698  85.595 115.791  0.00  0.00    -0.276 OA
ATOM     17  H   LIG d   1       4.203  82.821 115.564  0.00  0.00     0.149 HD
ENDBRANCH   6  13
BRANCH   5  18
ATOM     18  N   LIG d   1       2.500  86.018 116.352  0.00  0.00     0.381 N 
ATOM     19  H   LIG d   1       2.260  85.689 117.266  0.00  0.00    -0.090 HD
ATOM     20  H   LIG d   1       1.971  86.853 116.169  0.00  0.00    -0.090 HD
ATOM     21  H   LIG d   1       3.475  86.218 116.308  0.00  0.00    -0.090 HD
ENDBRANCH   5  18
BRANCH   3  22
ATOM     22  C   LIG d   1      -0.448  84.914 112.743  0.00  0.00     0.382 C 
ATOM     23  O   LIG d   1      -0.988  86.042 112.637  0.00  0.00    -0.241 OA
ATOM     24  O   LIG d   1      -1.074  83.898 112.385  0.00  0.00    -0.241 OA
ENDBRANCH   3  22
TORSDOF 7
ENDMDL
MODEL 3
REMARK VINA RESULT:      -5.2      3.024      5.312
REMARK  7 active torsions:
REMARK  status: ('A' for Active; 'I' for Inactive)
REMARK    1  A    between atoms: C_2  and  C_3 
REMARK    2  A    between atoms: C_3  and  O_6 
REMARK    3  A    between atoms: C_3  and  C_4 
REMARK    4  A    between atoms: C_7  and  O_6 
REMARK    5  A    between atoms: C_9  and  C_10 
REMARK    6  A    between atoms: N_15  and  C_14 
REMARK    7  A    between atoms: N_20  and  C_19 
REMARK       I    between atoms: C_22  and  N_20 
ROOT
ATOM      1  C   LIG d   1       3.328  86.852 114.876  0.00  0.00     0.161 C 
ATOM      2  C   LIG d   1       2.494  86.585 113.778  0.00  0.00     0.016 C 
ATOM      3  C   LIG d   1       2.880  86.806 112.436  0.00  0.00     0.038 C 
ATOM      4  C   LIG d   1       4.191  87.170 112.092  0.00  0.00     0.028 C 
ATOM      5  C   LIG d   1       4.915  87.937 113.193  0.00  0.00    -0.047 C 
ATOM      6  C   LIG d   1       4.799  87.145 114.515  0.00  0.00     0.091 C 
ENDROOT
BRANCH   1   7
ATOM      7  O   LIG d   1       3.250  85.769 115.824  0.00  0.00    -0.368 OA
BRANCH   7   8
ATOM      8  C   LIG d   1       2.829  84.488 115.294  0.00  0.00     0.119 C 
BRANCH   8   9
ATOM      9  C   LIG d   1       1.884  83.847 116.329  0.00  0.00     0.028 C 
ATOM     10  C   LIG d   1       1.650  84.753 117.550  0.00  0.00     0.006 C 
ENDBRANCH   8   9
BRANCH   8  11
ATOM     11  C   LIG d   1       4.011  83.521 115.170  0.00  0.00     0.028 C 
ATOM     12  C   LIG d   1       5.173  83.876 116.111  0.00  0.00     0.006 C 
ENDBRANCH   8  11
ENDBRANCH   7   8
ENDBRANCH   1   7
BRANCH   6  13
ATOM     13  N   LIG d   1       5.409  87.865 115.663  0.00  0.00    -0.311 N 
ATOM     14  C   LIG d   1       6.635  87.614 116.118  0.00  0.00     0.210 C 
ATOM     15  C   LIG d   1       7.063  88.458 117.324  0.00  0.00     0.109 C 
ATOM     16  O   LIG d   1       7.422  86.796 115.619  0.00  0.00    -0.276 OA
ATOM     17  H   LIG d   1       4.852  88.568 116.108  0.00  0.00     0.149 HD
ENDBRANCH   6  13
BRANCH   5  18
ATOM     18  N   LIG d   1       6.311  88.132 112.756  0.00  0.00     0.381 N 
ATOM     19  H   LIG d   1       6.489  87.584 111.939  0.00  0.00    -0.090 HD
ATOM     20  H   LIG d   1       6.926  87.819 113.486  0.00  0.00    -0.090 HD
ATOM     21  H   LIG d   1       6.476  89.095 112.562  0.00  0.00    -0.090 HD
ENDBRANCH   5  18
BRANCH   3  22
ATOM     22  C   LIG d   1       1.938  86.701 111.424  0.00  0.00     0.382 C 
ATOM     23  O   LIG d   1       2.302  86.424 110.255  0.00  0.00    -0.241 OA
ATOM     24  O   LIG d   1       0.735  86.924 111.655  0.00  0.00    -0.241 OA
ENDBRANCH   3  22
TORSDOF 7
ENDMDL
MODEL 4
REMARK VINA RESULT:      -5.1      2.727      5.965
REMARK  7 active torsions:
REMARK  status: ('A' for Active; 'I' for Inactive)
REMARK    1  A    between atoms: C_2  and  C_3 
REMARK    2  A    between atoms: C_3  and  O_6 
REMARK    3  A    between atoms: C_3  and  C_4 
REMARK    4  A    between atoms: C_7  and  O_6 
REMARK    5  A    between atoms: C_9  and  C_10 
REMARK    6  A    between atoms: N_15  and  C_14 
REMARK    7  A    between atoms: N_20  and  C_19 
REMARK       I    between atoms: C_22  and  N_20 
ROOT
ATOM      1  C   LIG d   1       2.524  84.397 113.555  0.00  0.00     0.161 C 
ATOM      2  C   LIG d   1       1.487  83.555 113.120  0.00  0.00     0.016 C 
ATOM      3  C   LIG d   1       0.621  83.877 112.049  0.00  0.00     0.038 C 
ATOM      4  C   LIG d   1       0.830  85.003 111.239  0.00  0.00     0.028 C 
ATOM      5  C   LIG d   1       1.556  86.137 111.954  0.00  0.00    -0.047 C 
ATOM      6  C   LIG d   1       2.838  85.577 112.612  0.00  0.00     0.091 C 
ENDROOT
BRANCH   1   7
ATOM      7  O   LIG d   1       3.713  83.621 113.799  0.00  0.00    -0.368 OA
BRANCH   7   8
ATOM      8  C   LIG d   1       4.007  83.323 115.186  0.00  0.00     0.119 C 
BRANCH   8   9
ATOM      9  C   LIG d   1       3.065  84.181 116.053  0.00  0.00     0.028 C 
ATOM     10  C   LIG d   1       2.214  83.332 117.012  0.00  0.00     0.006 C 
ENDBRANCH   8   9
BRANCH   8  11
ATOM     11  C   LIG d   1       5.423  83.768 115.564  0.00  0.00     0.028 C 
ATOM     12  C   LIG d   1       5.465  85.190 116.148  0.00  0.00     0.006 C 
ENDBRANCH   8  11
ENDBRANCH   7   8
ENDBRANCH   1   7
BRANCH   6  13
ATOM     13  N   LIG d   1       3.564  86.605 113.403  0.00  0.00    -0.311 N 
ATOM     14  C   LIG d   1       4.569  87.330 112.916  0.00  0.00     0.210 C 
ATOM     15  C   LIG d   1       5.192  88.319 113.906  0.00  0.00     0.109 C 
ATOM     16  O   LIG d   1       4.983  87.270 111.748  0.00  0.00    -0.276 OA
ATOM     17  H   LIG d   1       3.272  86.740 114.351  0.00  0.00     0.149 HD
ENDBRANCH   6  13
BRANCH   5  18
ATOM     18  N   LIG d   1       1.830  87.189 110.956  0.00  0.00     0.381 N 
ATOM     19  H   LIG d   1       2.764  87.093 110.610  0.00  0.00    -0.090 HD
ATOM     20  H   LIG d   1       1.750  88.087 111.400  0.00  0.00    -0.090 HD
ATOM     21  H   LIG d   1       1.181  87.123 110.203  0.00  0.00    -0.090 HD
ENDBRANCH   5  18
BRANCH   3  22
ATOM     22  C   LIG d   1      -0.494  83.089 111.806  0.00  0.00     0.382 C 
ATOM     23  O   LIG d   1      -0.631  82.523 110.695  0.00  0.00    -0.241 OA
ATOM     24  O   LIG d   1      -1.385  82.971 112.668  0.00  0.00    -0.241 OA
ENDBRANCH   3  22
TORSDOF 7
ENDMDL
MODEL 5
REMARK VINA RESULT:      -5.1      2.707      5.993
REMARK  7 active torsions:
REMARK  status: ('A' for Active; 'I' for Inactive)
REMARK    1  A    between atoms: C_2  and  C_3 
REMARK    2  A    between atoms: C_3  and  O_6 
REMARK    3  A    between atoms: C_3  and  C_4 
REMARK    4  A    between atoms: C_7  and  O_6 
REMARK    5  A    between atoms: C_9  and  C_10 
REMARK    6  A    between atoms: N_15  and  C_14 
REMARK    7  A    between atoms: N_20  and  C_19 
REMARK       I    between atoms: C_22  and  N_20 
ROOT
ATOM      1  C   LIG d   1       2.486  84.429 113.701  0.00  0.00     0.161 C 
ATOM      2  C   LIG d   1       1.457  83.608 113.211  0.00  0.00     0.016 C 
ATOM      3  C   LIG d   1       0.645  83.954 112.106  0.00  0.00     0.038 C 
ATOM      4  C   LIG d   1       0.907  85.085 111.318  0.00  0.00     0.028 C 
ATOM      5  C   LIG d   1       1.617  86.201 112.077  0.00  0.00    -0.047 C 
ATOM      6  C   LIG d   1       2.860  85.614 112.786  0.00  0.00     0.091 C 
ENDROOT
BRANCH   1   7
ATOM      7  O   LIG d   1       3.651  83.632 113.990  0.00  0.00    -0.368 OA
BRANCH   7   8
ATOM      8  C   LIG d   1       3.951  83.426 115.392  0.00  0.00     0.119 C 
BRANCH   8   9
ATOM      9  C   LIG d   1       5.463  83.654 115.581  0.00  0.00     0.028 C 
ATOM     10  C   LIG d   1       5.785  85.070 116.088  0.00  0.00     0.006 C 
ENDBRANCH   8   9
BRANCH   8  11
ATOM     11  C   LIG d   1       3.705  81.972 115.807  0.00  0.00     0.028 C 
ATOM     12  C   LIG d   1       2.352  81.773 116.508  0.00  0.00     0.006 C 
ENDBRANCH   8  11
ENDBRANCH   7   8
ENDBRANCH   1   7
BRANCH   6  13
ATOM     13  N   LIG d   1       3.565  86.622 113.620  0.00  0.00    -0.311 N 
ATOM     14  C   LIG d   1       4.591  87.348 113.181  0.00  0.00     0.210 C 
ATOM     15  C   LIG d   1       5.186  88.315 114.209  0.00  0.00     0.109 C 
ATOM     16  O   LIG d   1       5.045  87.307 112.027  0.00  0.00    -0.276 OA
ATOM     17  H   LIG d   1       3.242  86.743 114.560  0.00  0.00     0.149 HD
ENDBRANCH   6  13
BRANCH   5  18
ATOM     18  N   LIG d   1       1.952  87.258 111.104  0.00  0.00     0.381 N 
ATOM     19  H   LIG d   1       1.115  87.613 110.688  0.00  0.00    -0.090 HD
ATOM     20  H   LIG d   1       2.523  86.863 110.378  0.00  0.00    -0.090 HD
ATOM     21  H   LIG d   1       2.444  87.996 111.558  0.00  0.00    -0.090 HD
ENDBRANCH   5  18
BRANCH   3  22
ATOM     22  C   LIG d   1      -0.469  83.186 111.805  0.00  0.00     0.382 C 
ATOM     23  O   LIG d   1      -0.626  82.738 110.643  0.00  0.00    -0.241 OA
ATOM     24  O   LIG d   1      -1.342  82.972 112.668  0.00  0.00    -0.241 OA
ENDBRANCH   3  22
TORSDOF 7
ENDMDL
MODEL 6
REMARK VINA RESULT:      -4.9      2.349      4.432
REMARK  7 active torsions:
REMARK  status: ('A' for Active; 'I' for Inactive)
REMARK    1  A    between atoms: C_2  and  C_3 
REMARK    2  A    between atoms: C_3  and  O_6 
REMARK    3  A    between atoms: C_3  and  C_4 
REMARK    4  A    between atoms: C_7  and  O_6 
REMARK    5  A    between atoms: C_9  and  C_10 
REMARK    6  A    between atoms: N_15  and  C_14 
REMARK    7  A    between atoms: N_20  and  C_19 
REMARK       I    between atoms: C_22  and  N_20 
ROOT
ATOM      1  C   LIG d   1       3.417  84.387 112.807  0.00  0.00     0.161 C 
ATOM      2  C   LIG d   1       4.122  85.518 113.251  0.00  0.00     0.016 C 
ATOM      3  C   LIG d   1       3.961  86.806 112.692  0.00  0.00     0.038 C 
ATOM      4  C   LIG d   1       2.965  87.083 111.743  0.00  0.00     0.028 C 
ATOM      5  C   LIG d   1       2.574  85.871 110.904  0.00  0.00    -0.047 C 
ATOM      6  C   LIG d   1       2.246  84.691 111.849  0.00  0.00     0.091 C 
ENDROOT
BRANCH   1   7
ATOM      7  O   LIG d   1       2.953  83.624 113.938  0.00  0.00    -0.368 OA
BRANCH   7   8
ATOM      8  C   LIG d   1       3.149  84.231 115.239  0.00  0.00     0.119 C 
BRANCH   8   9
ATOM      9  C   LIG d   1       3.829  83.182 116.141  0.00  0.00     0.028 C 
ATOM     10  C   LIG d   1       5.363  83.234 116.047  0.00  0.00     0.006 C 
ENDBRANCH   8   9
BRANCH   8  11
ATOM     11  C   LIG d   1       1.811  84.542 115.916  0.00  0.00     0.028 C 
ATOM     12  C   LIG d   1       1.752  84.053 117.372  0.00  0.00     0.006 C 
ENDBRANCH   8  11
ENDBRANCH   7   8
ENDBRANCH   1   7
BRANCH   6  13
ATOM     13  N   LIG d   1       1.935  83.441 111.107  0.00  0.00    -0.311 N 
ATOM     14  C   LIG d   1       0.696  83.056 110.807  0.00  0.00     0.210 C 
ATOM     15  C   LIG d   1       0.597  81.725 110.056  0.00  0.00     0.109 C 
ATOM     16  O   LIG d   1      -0.328  83.706 111.062  0.00  0.00    -0.276 OA
ATOM     17  H   LIG d   1       2.710  82.869 110.834  0.00  0.00     0.149 HD
ENDBRANCH   6  13
BRANCH   5  18
ATOM     18  N   LIG d   1       1.434  86.265 110.055  0.00  0.00     0.381 N 
ATOM     19  H   LIG d   1       1.224  85.532 109.408  0.00  0.00    -0.090 HD
ATOM     20  H   LIG d   1       1.687  87.085 109.532  0.00  0.00    -0.090 HD
ATOM     21  H   LIG d   1       0.637  86.457 110.621  0.00  0.00    -0.090 HD
ENDBRANCH   5  18
BRANCH   3  22
ATOM     22  C   LIG d   1       4.828  87.826 113.052  0.00  0.00     0.382 C 
ATOM     23  O   LIG d   1       5.760  87.600 113.862  0.00  0.00    -0.241 OA
ATOM     24  O   LIG d   1       4.664  88.980 112.612  0.00  0.00    -0.241 OA
ENDBRANCH   3  22
TORSDOF 7
ENDMDL
MODEL 7
REMARK VINA RESULT:      -4.8      2.183      4.148
REMARK  7 active torsions:
REMARK  status: ('A' for Active; 'I' for Inactive)
REMARK    1  A    between atoms: C_2  and  C_3 
REMARK    2  A    between atoms: C_3  and  O_6 
REMARK    3  A    between atoms: C_3  and  C_4 
REMARK    4  A    between atoms: C_7  and  O_6 
REMARK    5  A    between atoms: C_9  and  C_10 
REMARK    6  A    between atoms: N_15  and  C_14 
REMARK    7  A    between atoms: N_20  and  C_19 
REMARK       I    between atoms: C_22  and  N_20 
ROOT
ATOM      1  C   LIG d   1       2.852  85.281 113.990  0.00  0.00     0.161 C 
ATOM      2  C   LIG d   1       3.570  86.488 113.949  0.00  0.00     0.016 C 
ATOM      3  C   LIG d   1       4.117  87.027 112.762  0.00  0.00     0.038 C 
ATOM      4  C   LIG d   1       3.852  86.469 111.503  0.00  0.00     0.028 C 
ATOM      5  C   LIG d   1       3.556  84.974 111.553  0.00  0.00    -0.047 C 
ATOM      6  C   LIG d   1       2.458  84.715 112.610  0.00  0.00     0.091 C 
ENDROOT
BRANCH   1   7
ATOM      7  O   LIG d   1       1.684  85.435 114.821  0.00  0.00    -0.368 OA
BRANCH   7   8
ATOM      8  C   LIG d   1       1.736  84.794 116.119  0.00  0.00     0.119 C 
BRANCH   8   9
ATOM      9  C   LIG d   1       2.061  85.882 117.160  0.00  0.00     0.028 C 
ATOM     10  C   LIG d   1       1.295  87.191 116.900  0.00  0.00     0.006 C 
ENDBRANCH   8   9
BRANCH   8  11
ATOM     11  C   LIG d   1       2.894  83.795 116.201  0.00  0.00     0.028 C 
ATOM     12  C   LIG d   1       2.417  82.339 116.318  0.00  0.00     0.006 C 
ENDBRANCH   8  11
ENDBRANCH   7   8
ENDBRANCH   1   7
BRANCH   6  13
ATOM     13  N   LIG d   1       2.167  83.268 112.783  0.00  0.00    -0.311 N 
ATOM     14  C   LIG d   1       0.935  82.764 112.794  0.00  0.00     0.210 C 
ATOM     15  C   LIG d   1       0.858  81.249 113.006  0.00  0.00     0.109 C 
ATOM     16  O   LIG d   1      -0.101  83.423 112.617  0.00  0.00    -0.276 OA
ATOM     17  H   LIG d   1       2.951  82.657 112.902  0.00  0.00     0.149 HD
ENDBRANCH   6  13
BRANCH   5  18
ATOM     18  N   LIG d   1       3.163  84.552 110.195  0.00  0.00     0.381 N 
ATOM     19  H   LIG d   1       3.393  85.270 109.538  0.00  0.00    -0.090 HD
ATOM     20  H   LIG d   1       2.168  84.411 110.174  0.00  0.00    -0.090 HD
ATOM     21  H   LIG d   1       3.630  83.706 109.953  0.00  0.00    -0.090 HD
ENDBRANCH   5  18
BRANCH   3  22
ATOM     22  C   LIG d   1       4.973  88.116 112.833  0.00  0.00     0.382 C 
ATOM     23  O   LIG d   1       6.160  88.007 112.443  0.00  0.00    -0.241 OA
ATOM     24  O   LIG d   1       4.585  89.193 113.324  0.00  0.00    -0.241 OA
ENDBRANCH   3  22
TORSDOF 7
ENDMDL
MODEL 8
REMARK VINA RESULT:      -4.8      2.246      4.509
REMARK  7 active torsions:
REMARK  status: ('A' for Active; 'I' for Inactive)
REMARK    1  A    between atoms: C_2  and  C_3 
REMARK    2  A    between atoms: C_3  and  O_6 
REMARK    3  A    between atoms: C_3  and  C_4 
REMARK    4  A    between atoms: C_7  and  O_6 
REMARK    5  A    between atoms: C_9  and  C_10 
REMARK    6  A    between atoms: N_15  and  C_14 
REMARK    7  A    between atoms: N_20  and  C_19 
REMARK       I    between atoms: C_22  and  N_20 
ROOT
ATOM      1  C   LIG d   1       3.020  85.441 114.219  0.00  0.00     0.161 C 
ATOM      2  C   LIG d   1       3.762  86.621 114.052  0.00  0.00     0.016 C 
ATOM      3  C   LIG d   1       4.184  87.103 112.791  0.00  0.00     0.038 C 
ATOM      4  C   LIG d   1       3.759  86.512 111.592  0.00  0.00     0.028 C 
ATOM      5  C   LIG d   1       3.428  85.030 111.731  0.00  0.00    -0.047 C 
ATOM      6  C   LIG d   1       2.453  84.842 112.915  0.00  0.00     0.091 C 
ENDROOT
BRANCH   1   7
ATOM      7  O   LIG d   1       1.960  85.661 115.172  0.00  0.00    -0.368 OA
BRANCH   7   8
ATOM      8  C   LIG d   1       2.280  85.382 116.557  0.00  0.00     0.119 C 
BRANCH   8   9
ATOM      9  C   LIG d   1       1.645  84.023 116.914  0.00  0.00     0.028 C 
ATOM     10  C   LIG d   1       2.631  82.854 116.750  0.00  0.00     0.006 C 
ENDBRANCH   8   9
BRANCH   8  11
ATOM     11  C   LIG d   1       1.621  86.396 117.496  0.00  0.00     0.028 C 
ATOM     12  C   LIG d   1       1.359  87.751 116.820  0.00  0.00     0.006 C 
ENDBRANCH   8  11
ENDBRANCH   7   8
ENDBRANCH   1   7
BRANCH   6  13
ATOM     13  N   LIG d   1       2.143  83.412 113.174  0.00  0.00    -0.311 N 
ATOM     14  C   LIG d   1       1.069  82.795 112.685  0.00  0.00     0.210 C 
ATOM     15  C   LIG d   1       0.928  81.324 113.090  0.00  0.00     0.109 C 
ATOM     16  O   LIG d   1       0.236  83.316 111.929  0.00  0.00    -0.276 OA
ATOM     17  H   LIG d   1       2.783  82.904 113.752  0.00  0.00     0.149 HD
ENDBRANCH   6  13
BRANCH   5  18
ATOM     18  N   LIG d   1       2.869  84.575 110.444  0.00  0.00     0.381 N 
ATOM     19  H   LIG d   1       3.522  83.971 109.986  0.00  0.00    -0.090 HD
ATOM     20  H   LIG d   1       2.714  85.375 109.856  0.00  0.00    -0.090 HD
ATOM     21  H   LIG d   1       2.010  84.094 110.596  0.00  0.00    -0.090 HD
ENDBRANCH   5  18
BRANCH   3  22
ATOM     22  C   LIG d   1       5.073  88.165 112.723  0.00  0.00     0.382 C 
ATOM     23  O   LIG d   1       4.656  89.341 112.852  0.00  0.00    -0.241 OA
ATOM     24  O   LIG d   1       6.280  87.964 112.491  0.00  0.00    -0.241 OA
ENDBRANCH   3  22
TORSDOF 7
ENDMDL
MODEL 9
REMARK VINA RESULT:      -4.7      9.793     12.408
REMARK  7 active torsions:
REMARK  status: ('A' for Active; 'I' for Inactive)
REMARK    1  A    between atoms: C_2  and  C_3 
REMARK    2  A    between atoms: C_3  and  O_6 
REMARK    3  A    between atoms: C_3  and  C_4 
REMARK    4  A    between atoms: C_7  and  O_6 
REMARK    5  A    between atoms: C_9  and  C_10 
REMARK    6  A    between atoms: N_15  and  C_14 
REMARK    7  A    between atoms: N_20  and  C_19 
REMARK       I    between atoms: C_22  and  N_20 
ROOT
ATOM      1  C   LIG d   1       9.928  77.408 114.373  0.00  0.00     0.161 C 
ATOM      2  C   LIG d   1      10.056  76.263 115.176  0.00  0.00     0.016 C 
ATOM      3  C   LIG d   1      11.257  75.527 115.296  0.00  0.00     0.038 C 
ATOM      4  C   LIG d   1      12.461  75.977 114.736  0.00  0.00     0.028 C 
ATOM      5  C   LIG d   1      12.266  76.854 113.504  0.00  0.00    -0.047 C 
ATOM      6  C   LIG d   1      11.260  77.978 113.843  0.00  0.00     0.091 C 
ENDROOT
BRANCH   1   7
ATOM      7  O   LIG d   1       9.197  78.425 115.087  0.00  0.00    -0.368 OA
BRANCH   7   8
ATOM      8  C   LIG d   1       9.270  78.367 116.532  0.00  0.00     0.119 C 
BRANCH   8   9
ATOM      9  C   LIG d   1       7.873  78.718 117.081  0.00  0.00     0.028 C 
ATOM     10  C   LIG d   1       7.015  77.469 117.345  0.00  0.00     0.006 C 
ENDBRANCH   8   9
BRANCH   8  11
ATOM     11  C   LIG d   1      10.206  79.446 117.087  0.00  0.00     0.028 C 
ATOM     12  C   LIG d   1      11.410  78.859 117.841  0.00  0.00     0.006 C 
ENDBRANCH   8  11
ENDBRANCH   7   8
ENDBRANCH   1   7
BRANCH   6  13
ATOM     13  N   LIG d   1      10.947  78.833 112.668  0.00  0.00    -0.311 N 
ATOM     14  C   LIG d   1      11.678  79.889 112.315  0.00  0.00     0.210 C 
ATOM     15  C   LIG d   1      11.169  80.644 111.082  0.00  0.00     0.109 C 
ATOM     16  O   LIG d   1      12.717  80.254 112.885  0.00  0.00    -0.276 OA
ATOM     17  H   LIG d   1      10.139  78.590 112.129  0.00  0.00     0.149 HD
ENDBRANCH   6  13
BRANCH   5  18
ATOM     18  N   LIG d   1      13.591  77.365 113.106  0.00  0.00     0.381 N 
ATOM     19  H   LIG d   1      13.550  77.721 112.171  0.00  0.00    -0.090 HD
ATOM     20  H   LIG d   1      14.251  76.608 113.126  0.00  0.00    -0.090 HD
ATOM     21  H   LIG d   1      13.881  78.085 113.730  0.00  0.00    -0.090 HD
ENDBRANCH   5  18
BRANCH   3  22
ATOM     22  C   LIG d   1      11.251  74.304 115.950  0.00  0.00     0.382 C 
ATOM     23  O   LIG d   1      11.209  73.239 115.288  0.00  0.00    -0.241 OA
ATOM     24  O   LIG d   1      11.243  74.254 117.195  0.00  0.00    -0.241 OA
ENDBRANCH   3  22
TORSDOF 7
ENDMDL
