MODEL 1
REMARK VINA RESULT:      -5.8      0.000      0.000
REMARK  7 active torsions:
REMARK  status: ('A' for Active; 'I' for Inactive)
REMARK    1  A    between atoms: C_2  and  C_3 
REMARK    2  A    between atoms: C_3  and  O_6 
REMARK    3  A    between atoms: C_3  and  C_4 
REMARK    4  A    between atoms: C_7  and  O_6 
REMARK    5  A    between atoms: C_9  and  C_10 
REMARK    6  A    between atoms: N_15  and  C_14 
REMARK    7  A    between atoms: N_20  and  C_19 
REMARK       I    between atoms: C_22  and  N_20 
ROOT
ATOM      1  C   LIG d   1       2.988  89.355 115.345  0.00  0.00     0.161 C 
ATOM      2  C   LIG d   1       2.214  88.603 114.446  0.00  0.00     0.016 C 
ATOM      3  C   LIG d   1       2.685  88.170 113.186  0.00  0.00     0.038 C 
ATOM      4  C   LIG d   1       4.024  88.331 112.800  0.00  0.00     0.028 C 
ATOM      5  C   LIG d   1       4.706  89.525 113.461  0.00  0.00    -0.047 C 
ATOM      6  C   LIG d   1       4.487  89.445 114.989  0.00  0.00     0.091 C 
ENDROOT
BRANCH   1   7
ATOM      7  O   LIG d   1       2.821  88.842 116.682  0.00  0.00    -0.368 OA
BRANCH   7   8
ATOM      8  C   LIG d   1       2.329  89.782 117.668  0.00  0.00     0.119 C 
BRANCH   8   9
ATOM      9  C   LIG d   1       1.067  89.167 118.305  0.00  0.00     0.028 C 
ATOM     10  C   LIG d   1      -0.143  90.114 118.242  0.00  0.00     0.006 C 
ENDBRANCH   8   9
BRANCH   8  11
ATOM     11  C   LIG d   1       1.858  91.084 117.012  0.00  0.00     0.028 C 
ATOM     12  C   LIG d   1       2.557  92.327 117.585  0.00  0.00     0.006 C 
ENDBRANCH   8  11
ENDBRANCH   7   8
ENDBRANCH   1   7
BRANCH   6  13
ATOM     13  N   LIG d   1       5.050  90.620 115.704  0.00  0.00    -0.311 N 
ATOM     14  C   LIG d   1       5.988  90.526 116.644  0.00  0.00     0.210 C 
ATOM     15  C   LIG d   1       6.414  91.858 117.269  0.00  0.00     0.109 C 
ATOM     16  O   LIG d   1       6.532  89.469 116.997  0.00  0.00    -0.276 OA
ATOM     17  H   LIG d   1       4.687  91.521 115.458  0.00  0.00     0.149 HD
ENDBRANCH   6  13
BRANCH   5  18
ATOM     18  N   LIG d   1       6.130  89.493 113.078  0.00  0.00     0.381 N 
ATOM     19  H   LIG d   1       6.621  90.234 113.538  0.00  0.00    -0.090 HD
ATOM     20  H   LIG d   1       6.203  89.635 112.086  0.00  0.00    -0.090 HD
ATOM     21  H   LIG d   1       6.530  88.615 113.326  0.00  0.00    -0.090 HD
ENDBRANCH   5  18
BRANCH   3  22
ATOM     22  C   LIG d   1       1.803  87.602 112.280  0.00  0.00     0.382 C 
ATOM     23  O   LIG d   1       0.632  87.324 112.635  0.00  0.00    -0.241 OA
ATOM     24  O   LIG d   1       2.175  87.324 111.124  0.00  0.00    -0.241 OA
ENDBRANCH   3  22
TORSDOF 7
ENDMDL
MODEL 2
REMARK VINA RESULT:      -5.6      1.927      2.752
REMARK  7 active torsions:
REMARK  status: ('A' for Active; 'I' for Inactive)
REMARK    1  A    between atoms: C_2  and  C_3 
REMARK    2  A    between atoms: C_3  and  O_6 
REMARK    3  A    between atoms: C_3  and  C_4 
REMARK    4  A    between atoms: C_7  and  O_6 
REMARK    5  A    between atoms: C_9  and  C_10 
REMARK    6  A    between atoms: N_15  and  C_14 
REMARK    7  A    between atoms: N_20  and  C_19 
REMARK       I    between atoms: C_22  and  N_20 
ROOT
ATOM      1  C   LIG d   1       3.048  88.951 115.509  0.00  0.00     0.161 C 
ATOM      2  C   LIG d   1       2.308  88.240 114.550  0.00  0.00     0.016 C 
ATOM      3  C   LIG d   1       2.732  88.064 113.213  0.00  0.00     0.038 C 
ATOM      4  C   LIG d   1       4.007  88.462 112.781  0.00  0.00     0.028 C 
ATOM      5  C   LIG d   1       4.580  89.628 113.579  0.00  0.00    -0.047 C 
ATOM      6  C   LIG d   1       4.491  89.296 115.086  0.00  0.00     0.091 C 
ENDROOT
BRANCH   1   7
ATOM      7  O   LIG d   1       3.050  88.230 116.757  0.00  0.00    -0.368 OA
BRANCH   7   8
ATOM      8  C   LIG d   1       4.059  87.199 116.896  0.00  0.00     0.119 C 
BRANCH   8   9
ATOM      9  C   LIG d   1       3.342  85.837 116.817  0.00  0.00     0.028 C 
ATOM     10  C   LIG d   1       4.039  84.862 115.853  0.00  0.00     0.006 C 
ENDBRANCH   8   9
BRANCH   8  11
ATOM     11  C   LIG d   1       4.707  87.237 118.283  0.00  0.00     0.028 C 
ATOM     12  C   LIG d   1       6.106  86.601 118.304  0.00  0.00     0.006 C 
ENDBRANCH   8  11
ENDBRANCH   7   8
ENDBRANCH   1   7
BRANCH   6  13
ATOM     13  N   LIG d   1       4.954  90.420 115.942  0.00  0.00    -0.311 N 
ATOM     14  C   LIG d   1       6.081  90.385 116.652  0.00  0.00     0.210 C 
ATOM     15  C   LIG d   1       6.361  91.642 117.482  0.00  0.00     0.109 C 
ATOM     16  O   LIG d   1       6.891  89.446 116.647  0.00  0.00    -0.276 OA
ATOM     17  H   LIG d   1       4.372  91.234 115.980  0.00  0.00     0.149 HD
ENDBRANCH   6  13
BRANCH   5  18
ATOM     18  N   LIG d   1       5.963  89.848 113.116  0.00  0.00     0.381 N 
ATOM     19  H   LIG d   1       6.599  89.331 113.690  0.00  0.00    -0.090 HD
ATOM     20  H   LIG d   1       6.183  90.825 113.202  0.00  0.00    -0.090 HD
ATOM     21  H   LIG d   1       6.054  89.561 112.166  0.00  0.00    -0.090 HD
ENDBRANCH   5  18
BRANCH   3  22
ATOM     22  C   LIG d   1       1.862  87.520 112.281  0.00  0.00     0.382 C 
ATOM     23  O   LIG d   1       0.683  87.243 112.611  0.00  0.00    -0.241 OA
ATOM     24  O   LIG d   1       2.252  87.262 111.127  0.00  0.00    -0.241 OA
ENDBRANCH   3  22
TORSDOF 7
ENDMDL
MODEL 3
REMARK VINA RESULT:      -5.5     10.109     12.090
REMARK  7 active torsions:
REMARK  status: ('A' for Active; 'I' for Inactive)
REMARK    1  A    between atoms: C_2  and  C_3 
REMARK    2  A    between atoms: C_3  and  O_6 
REMARK    3  A    between atoms: C_3  and  C_4 
REMARK    4  A    between atoms: C_7  and  O_6 
REMARK    5  A    between atoms: C_9  and  C_10 
REMARK    6  A    between atoms: N_15  and  C_14 
REMARK    7  A    between atoms: N_20  and  C_19 
REMARK       I    between atoms: C_22  and  N_20 
ROOT
ATOM      1  C   LIG d   1      -2.701  80.043 114.810  0.00  0.00     0.161 C 
ATOM      2  C   LIG d   1      -2.219  81.164 114.114  0.00  0.00     0.016 C 
ATOM      3  C   LIG d   1      -1.576  81.083 112.858  0.00  0.00     0.038 C 
ATOM      4  C   LIG d   1      -1.504  79.881 112.138  0.00  0.00     0.028 C 
ATOM      5  C   LIG d   1      -1.527  78.641 113.025  0.00  0.00    -0.047 C 
ATOM      6  C   LIG d   1      -2.731  78.736 113.990  0.00  0.00     0.091 C 
ENDROOT
BRANCH   1   7
ATOM      7  O   LIG d   1      -4.007  80.326 115.350  0.00  0.00    -0.368 OA
BRANCH   7   8
ATOM      8  C   LIG d   1      -4.080  80.498 116.787  0.00  0.00     0.119 C 
BRANCH   8   9
ATOM      9  C   LIG d   1      -5.451  79.967 117.247  0.00  0.00     0.028 C 
ATOM     10  C   LIG d   1      -6.520  81.071 117.300  0.00  0.00     0.006 C 
ENDBRANCH   8   9
BRANCH   8  11
ATOM     11  C   LIG d   1      -4.069  81.980 117.172  0.00  0.00     0.028 C 
ATOM     12  C   LIG d   1      -2.831  82.373 117.995  0.00  0.00     0.006 C 
ENDBRANCH   8  11
ENDBRANCH   7   8
ENDBRANCH   1   7
BRANCH   6  13
ATOM     13  N   LIG d   1      -2.779  77.603 114.950  0.00  0.00    -0.311 N 
ATOM     14  C   LIG d   1      -3.457  76.479 114.724  0.00  0.00     0.210 C 
ATOM     15  C   LIG d   1      -3.390  75.446 115.853  0.00  0.00     0.109 C 
ATOM     16  O   LIG d   1      -4.080  76.226 113.682  0.00  0.00    -0.276 OA
ATOM     17  H   LIG d   1      -2.275  77.711 115.808  0.00  0.00     0.149 HD
ENDBRANCH   6  13
BRANCH   5  18
ATOM     18  N   LIG d   1      -1.587  77.462 112.141  0.00  0.00     0.381 N 
ATOM     19  H   LIG d   1      -1.095  76.699 112.561  0.00  0.00    -0.090 HD
ATOM     20  H   LIG d   1      -1.138  77.685 111.270  0.00  0.00    -0.090 HD
ATOM     21  H   LIG d   1      -2.536  77.206 111.978  0.00  0.00    -0.090 HD
ENDBRANCH   5  18
BRANCH   3  22
ATOM     22  C   LIG d   1      -0.959  82.206 112.328  0.00  0.00     0.382 C 
ATOM     23  O   LIG d   1       0.070  82.673 112.873  0.00  0.00    -0.241 OA
ATOM     24  O   LIG d   1      -1.445  82.785 111.338  0.00  0.00    -0.241 OA
ENDBRANCH   3  22
TORSDOF 7
ENDMDL
MODEL 4
REMARK VINA RESULT:      -5.3      8.766     10.729
REMARK  7 active torsions:
REMARK  status: ('A' for Active; 'I' for Inactive)
REMARK    1  A    between atoms: C_2  and  C_3 
REMARK    2  A    between atoms: C_3  and  O_6 
REMARK    3  A    between atoms: C_3  and  C_4 
REMARK    4  A    between atoms: C_7  and  O_6 
REMARK    5  A    between atoms: C_9  and  C_10 
REMARK    6  A    between atoms: N_15  and  C_14 
REMARK    7  A    between atoms: N_20  and  C_19 
REMARK       I    between atoms: C_22  and  N_20 
ROOT
ATOM      1  C   LIG d   1      -2.765  81.091 112.878  0.00  0.00     0.161 C 
ATOM      2  C   LIG d   1      -3.205  79.772 113.075  0.00  0.00     0.016 C 
ATOM      3  C   LIG d   1      -2.477  78.637 112.647  0.00  0.00     0.038 C 
ATOM      4  C   LIG d   1      -1.180  78.743 112.123  0.00  0.00     0.028 C 
ATOM      5  C   LIG d   1      -0.908  80.080 111.444  0.00  0.00    -0.047 C 
ATOM      6  C   LIG d   1      -1.301  81.222 112.408  0.00  0.00     0.091 C 
ENDROOT
BRANCH   1   7
ATOM      7  O   LIG d   1      -2.977  81.861 114.078  0.00  0.00    -0.368 OA
BRANCH   7   8
ATOM      8  C   LIG d   1      -3.045  81.109 115.315  0.00  0.00     0.119 C 
BRANCH   8   9
ATOM      9  C   LIG d   1      -4.137  81.754 116.190  0.00  0.00     0.028 C 
ATOM     10  C   LIG d   1      -3.609  82.174 117.572  0.00  0.00     0.006 C 
ENDBRANCH   8   9
BRANCH   8  11
ATOM     11  C   LIG d   1      -1.749  81.242 116.120  0.00  0.00     0.028 C 
ATOM     12  C   LIG d   1      -0.805  80.044 115.932  0.00  0.00     0.006 C 
ENDBRANCH   8  11
ENDBRANCH   7   8
ENDBRANCH   1   7
BRANCH   6  13
ATOM     13  N   LIG d   1      -1.146  82.565 111.791  0.00  0.00    -0.311 N 
ATOM     14  C   LIG d   1      -0.044  83.304 111.911  0.00  0.00     0.210 C 
ATOM     15  C   LIG d   1      -0.100  84.666 111.212  0.00  0.00     0.109 C 
ATOM     16  O   LIG d   1       0.986  82.947 112.503  0.00  0.00    -0.276 OA
ATOM     17  H   LIG d   1      -1.922  82.919 111.266  0.00  0.00     0.149 HD
ENDBRANCH   6  13
BRANCH   5  18
ATOM     18  N   LIG d   1       0.518  80.107 111.067  0.00  0.00     0.381 N 
ATOM     19  H   LIG d   1       0.607  80.038 110.073  0.00  0.00    -0.090 HD
ATOM     20  H   LIG d   1       0.978  79.315 111.480  0.00  0.00    -0.090 HD
ATOM     21  H   LIG d   1       0.940  80.950 111.388  0.00  0.00    -0.090 HD
ENDBRANCH   5  18
BRANCH   3  22
ATOM     22  C   LIG d   1      -3.065  77.383 112.705  0.00  0.00     0.382 C 
ATOM     23  O   LIG d   1      -2.392  76.392 113.079  0.00  0.00    -0.241 OA
ATOM     24  O   LIG d   1      -4.246  77.221 112.345  0.00  0.00    -0.241 OA
ENDBRANCH   3  22
TORSDOF 7
ENDMDL
MODEL 5
REMARK VINA RESULT:      -5.1      7.888      9.691
REMARK  7 active torsions:
REMARK  status: ('A' for Active; 'I' for Inactive)
REMARK    1  A    between atoms: C_2  and  C_3 
REMARK    2  A    between atoms: C_3  and  O_6 
REMARK    3  A    between atoms: C_3  and  C_4 
REMARK    4  A    between atoms: C_7  and  O_6 
REMARK    5  A    between atoms: C_9  and  C_10 
REMARK    6  A    between atoms: N_15  and  C_14 
REMARK    7  A    between atoms: N_20  and  C_19 
REMARK       I    between atoms: C_22  and  N_20 
ROOT
ATOM      1  C   LIG d   1      -0.078  81.829 113.525  0.00  0.00     0.161 C 
ATOM      2  C   LIG d   1      -1.211  81.085 113.894  0.00  0.00     0.016 C 
ATOM      3  C   LIG d   1      -1.702  79.991 113.146  0.00  0.00     0.038 C 
ATOM      4  C   LIG d   1      -0.998  79.467 112.050  0.00  0.00     0.028 C 
ATOM      5  C   LIG d   1      -0.122  80.497 111.345  0.00  0.00    -0.047 C 
ATOM      6  C   LIG d   1       0.766  81.203 112.395  0.00  0.00     0.091 C 
ENDROOT
BRANCH   1   7
ATOM      7  O   LIG d   1       0.742  82.077 114.684  0.00  0.00    -0.368 OA
BRANCH   7   8
ATOM      8  C   LIG d   1       0.444  81.282 115.858  0.00  0.00     0.119 C 
BRANCH   8   9
ATOM      9  C   LIG d   1       0.336  82.247 117.055  0.00  0.00     0.028 C 
ATOM     10  C   LIG d   1      -1.075  82.265 117.668  0.00  0.00     0.006 C 
ENDBRANCH   8   9
BRANCH   8  11
ATOM     11  C   LIG d   1       1.600  80.338 116.201  0.00  0.00     0.028 C 
ATOM     12  C   LIG d   1       2.931  80.771 115.565  0.00  0.00     0.006 C 
ENDBRANCH   8  11
ENDBRANCH   7   8
ENDBRANCH   1   7
BRANCH   6  13
ATOM     13  N   LIG d   1       1.594  82.285 111.801  0.00  0.00    -0.311 N 
ATOM     14  C   LIG d   1       2.864  82.119 111.435  0.00  0.00     0.210 C 
ATOM     15  C   LIG d   1       3.540  83.369 110.863  0.00  0.00     0.109 C 
ATOM     16  O   LIG d   1       3.484  81.047 111.501  0.00  0.00    -0.276 OA
ATOM     17  H   LIG d   1       1.160  83.180 111.683  0.00  0.00     0.149 HD
ENDBRANCH   6  13
BRANCH   5  18
ATOM     18  N   LIG d   1       0.656  79.787 110.313  0.00  0.00     0.381 N 
ATOM     19  H   LIG d   1       1.190  80.444 109.780  0.00  0.00    -0.090 HD
ATOM     20  H   LIG d   1       0.021  79.318 109.691  0.00  0.00    -0.090 HD
ATOM     21  H   LIG d   1       1.264  79.123 110.740  0.00  0.00    -0.090 HD
ENDBRANCH   5  18
BRANCH   3  22
ATOM     22  C   LIG d   1      -2.929  79.433 113.468  0.00  0.00     0.382 C 
ATOM     23  O   LIG d   1      -3.443  78.571 112.715  0.00  0.00    -0.241 OA
ATOM     24  O   LIG d   1      -3.551  79.813 114.478  0.00  0.00    -0.241 OA
ENDBRANCH   3  22
TORSDOF 7
ENDMDL
MODEL 6
REMARK VINA RESULT:      -5.0      8.229     10.462
REMARK  7 active torsions:
REMARK  status: ('A' for Active; 'I' for Inactive)
REMARK    1  A    between atoms: C_2  and  C_3 
REMARK    2  A    between atoms: C_3  and  O_6 
REMARK    3  A    between atoms: C_3  and  C_4 
REMARK    4  A    between atoms: C_7  and  O_6 
REMARK    5  A    between atoms: C_9  and  C_10 
REMARK    6  A    between atoms: N_15  and  C_14 
REMARK    7  A    between atoms: N_20  and  C_19 
REMARK       I    between atoms: C_22  and  N_20 
ROOT
ATOM      1  C   LIG d   1       0.068  80.848 113.729  0.00  0.00     0.161 C 
ATOM      2  C   LIG d   1       0.993  81.858 113.415  0.00  0.00     0.016 C 
ATOM      3  C   LIG d   1       1.388  82.168 112.093  0.00  0.00     0.038 C 
ATOM      4  C   LIG d   1       0.768  81.585 110.978  0.00  0.00     0.028 C 
ATOM      5  C   LIG d   1       0.191  80.202 111.260  0.00  0.00    -0.047 C 
ATOM      6  C   LIG d   1      -0.702  80.277 112.520  0.00  0.00     0.091 C 
ENDROOT
BRANCH   1   7
ATOM      7  O   LIG d   1      -0.853  81.322 114.731  0.00  0.00    -0.368 OA
BRANCH   7   8
ATOM      8  C   LIG d   1      -0.440  81.151 116.109  0.00  0.00     0.119 C 
BRANCH   8   9
ATOM      9  C   LIG d   1      -0.278  79.639 116.359  0.00  0.00     0.028 C 
ATOM     10  C   LIG d   1      -1.591  78.974 116.804  0.00  0.00     0.006 C 
ENDBRANCH   8   9
BRANCH   8  11
ATOM     11  C   LIG d   1      -1.533  81.608 117.079  0.00  0.00     0.028 C 
ATOM     12  C   LIG d   1      -1.034  82.654 118.089  0.00  0.00     0.006 C 
ENDBRANCH   8  11
ENDBRANCH   7   8
ENDBRANCH   1   7
BRANCH   6  13
ATOM     13  N   LIG d   1      -1.238  78.949 112.914  0.00  0.00    -0.311 N 
ATOM     14  C   LIG d   1      -2.530  78.718 113.141  0.00  0.00     0.210 C 
ATOM     15  C   LIG d   1      -2.868  77.283 113.557  0.00  0.00     0.109 C 
ATOM     16  O   LIG d   1      -3.433  79.558 113.007  0.00  0.00    -0.276 OA
ATOM     17  H   LIG d   1      -0.579  78.202 113.016  0.00  0.00     0.149 HD
ENDBRANCH   6  13
BRANCH   5  18
ATOM     18  N   LIG d   1      -0.544  79.772 110.055  0.00  0.00     0.381 N 
ATOM     19  H   LIG d   1      -0.003  79.974 109.238  0.00  0.00    -0.090 HD
ATOM     20  H   LIG d   1      -1.405  80.287 109.999  0.00  0.00    -0.090 HD
ATOM     21  H   LIG d   1      -0.736  78.796 110.103  0.00  0.00    -0.090 HD
ENDBRANCH   5  18
BRANCH   3  22
ATOM     22  C   LIG d   1       2.443  83.042 111.879  0.00  0.00     0.382 C 
ATOM     23  O   LIG d   1       2.818  83.809 112.797  0.00  0.00    -0.241 OA
ATOM     24  O   LIG d   1       2.996  83.103 110.764  0.00  0.00    -0.241 OA
ENDBRANCH   3  22
TORSDOF 7
ENDMDL
MODEL 7
REMARK VINA RESULT:      -5.0      9.818     11.711
REMARK  7 active torsions:
REMARK  status: ('A' for Active; 'I' for Inactive)
REMARK    1  A    between atoms: C_2  and  C_3 
REMARK    2  A    between atoms: C_3  and  O_6 
REMARK    3  A    between atoms: C_3  and  C_4 
REMARK    4  A    between atoms: C_7  and  O_6 
REMARK    5  A    between atoms: C_9  and  C_10 
REMARK    6  A    between atoms: N_15  and  C_14 
REMARK    7  A    between atoms: N_20  and  C_19 
REMARK       I    between atoms: C_22  and  N_20 
ROOT
ATOM      1  C   LIG d   1      -2.335  79.689 114.142  0.00  0.00     0.161 C 
ATOM      2  C   LIG d   1      -2.825  78.442 114.562  0.00  0.00     0.016 C 
ATOM      3  C   LIG d   1      -2.809  77.285 113.749  0.00  0.00     0.038 C 
ATOM      4  C   LIG d   1      -2.159  77.261 112.507  0.00  0.00     0.028 C 
ATOM      5  C   LIG d   1      -2.095  78.626 111.830  0.00  0.00    -0.047 C 
ATOM      6  C   LIG d   1      -1.521  79.655 112.831  0.00  0.00     0.091 C 
ENDROOT
BRANCH   1   7
ATOM      7  O   LIG d   1      -1.560  80.290 115.197  0.00  0.00    -0.368 OA
BRANCH   7   8
ATOM      8  C   LIG d   1      -2.082  81.524 115.748  0.00  0.00     0.119 C 
BRANCH   8   9
ATOM      9  C   LIG d   1      -1.990  81.421 117.283  0.00  0.00     0.028 C 
ATOM     10  C   LIG d   1      -0.968  82.405 117.877  0.00  0.00     0.006 C 
ENDBRANCH   8   9
BRANCH   8  11
ATOM     11  C   LIG d   1      -3.574  81.684 115.441  0.00  0.00     0.028 C 
ATOM     12  C   LIG d   1      -4.414  81.966 116.697  0.00  0.00     0.006 C 
ENDBRANCH   8  11
ENDBRANCH   7   8
ENDBRANCH   1   7
BRANCH   6  13
ATOM     13  N   LIG d   1      -1.503  81.034 112.278  0.00  0.00    -0.311 N 
ATOM     14  C   LIG d   1      -0.433  81.579 111.700  0.00  0.00     0.210 C 
ATOM     15  C   LIG d   1      -0.622  83.019 111.216  0.00  0.00     0.109 C 
ATOM     16  O   LIG d   1       0.645  80.994 111.515  0.00  0.00    -0.276 OA
ATOM     17  H   LIG d   1      -2.345  81.569 112.358  0.00  0.00     0.149 HD
ENDBRANCH   6  13
BRANCH   5  18
ATOM     18  N   LIG d   1      -1.273  78.483 110.614  0.00  0.00     0.381 N 
ATOM     19  H   LIG d   1      -0.488  77.892 110.803  0.00  0.00    -0.090 HD
ATOM     20  H   LIG d   1      -0.929  79.388 110.345  0.00  0.00    -0.090 HD
ATOM     21  H   LIG d   1      -1.820  78.095 109.877  0.00  0.00    -0.090 HD
ENDBRANCH   5  18
BRANCH   3  22
ATOM     22  C   LIG d   1      -3.484  76.146 114.162  0.00  0.00     0.382 C 
ATOM     23  O   LIG d   1      -2.918  75.322 114.921  0.00  0.00    -0.241 OA
ATOM     24  O   LIG d   1      -4.635  75.909 113.749  0.00  0.00    -0.241 OA
ENDBRANCH   3  22
TORSDOF 7
ENDMDL
MODEL 8
REMARK VINA RESULT:      -4.9      2.284      4.109
REMARK  7 active torsions:
REMARK  status: ('A' for Active; 'I' for Inactive)
REMARK    1  A    between atoms: C_2  and  C_3 
REMARK    2  A    between atoms: C_3  and  O_6 
REMARK    3  A    between atoms: C_3  and  C_4 
REMARK    4  A    between atoms: C_7  and  O_6 
REMARK    5  A    between atoms: C_9  and  C_10 
REMARK    6  A    between atoms: N_15  and  C_14 
REMARK    7  A    between atoms: N_20  and  C_19 
REMARK       I    between atoms: C_22  and  N_20 
ROOT
ATOM      1  C   LIG d   1       2.973  87.858 115.447  0.00  0.00     0.161 C 
ATOM      2  C   LIG d   1       3.572  86.930 114.578  0.00  0.00     0.016 C 
ATOM      3  C   LIG d   1       3.226  86.808 113.212  0.00  0.00     0.038 C 
ATOM      4  C   LIG d   1       2.360  87.715 112.583  0.00  0.00     0.028 C 
ATOM      5  C   LIG d   1       1.351  88.349 113.534  0.00  0.00    -0.047 C 
ATOM      6  C   LIG d   1       2.106  88.929 114.752  0.00  0.00     0.091 C 
ENDROOT
BRANCH   1   7
ATOM      7  O   LIG d   1       3.982  88.483 116.264  0.00  0.00    -0.368 OA
BRANCH   7   8
ATOM      8  C   LIG d   1       5.285  88.649 115.653  0.00  0.00     0.119 C 
BRANCH   8   9
ATOM      9  C   LIG d   1       6.332  88.646 116.784  0.00  0.00     0.028 C 
ATOM     10  C   LIG d   1       6.820  90.062 117.134  0.00  0.00     0.006 C 
ENDBRANCH   8   9
BRANCH   8  11
ATOM     11  C   LIG d   1       5.416  90.020 114.983  0.00  0.00     0.028 C 
ATOM     12  C   LIG d   1       5.391  89.939 113.448  0.00  0.00     0.006 C 
ENDBRANCH   8  11
ENDBRANCH   7   8
ENDBRANCH   1   7
BRANCH   6  13
ATOM     13  N   LIG d   1       1.186  89.494 115.773  0.00  0.00    -0.311 N 
ATOM     14  C   LIG d   1       1.424  90.631 116.425  0.00  0.00     0.210 C 
ATOM     15  C   LIG d   1       0.356  91.023 117.451  0.00  0.00     0.109 C 
ATOM     16  O   LIG d   1       2.402  91.368 116.229  0.00  0.00    -0.276 OA
ATOM     17  H   LIG d   1       0.353  88.976 115.973  0.00  0.00     0.149 HD
ENDBRANCH   6  13
BRANCH   5  18
ATOM     18  N   LIG d   1       0.605  89.371 112.776  0.00  0.00     0.381 N 
ATOM     19  H   LIG d   1       0.787  89.267 111.798  0.00  0.00    -0.090 HD
ATOM     20  H   LIG d   1       0.921  90.282 113.061  0.00  0.00    -0.090 HD
ATOM     21  H   LIG d   1      -0.371  89.281 112.952  0.00  0.00    -0.090 HD
ENDBRANCH   5  18
BRANCH   3  22
ATOM     22  C   LIG d   1       3.719  85.746 112.471  0.00  0.00     0.382 C 
ATOM     23  O   LIG d   1       3.926  85.882 111.241  0.00  0.00    -0.241 OA
ATOM     24  O   LIG d   1       3.918  84.639 113.007  0.00  0.00    -0.241 OA
ENDBRANCH   3  22
TORSDOF 7
ENDMDL
MODEL 9
REMARK VINA RESULT:      -4.8     26.958     29.583
REMARK  7 active torsions:
REMARK  status: ('A' for Active; 'I' for Inactive)
REMARK    1  A    between atoms: C_2  and  C_3 
REMARK    2  A    between atoms: C_3  and  O_6 
REMARK    3  A    between atoms: C_3  and  C_4 
REMARK    4  A    between atoms: C_7  and  O_6 
REMARK    5  A    between atoms: C_9  and  C_10 
REMARK    6  A    between atoms: N_15  and  C_14 
REMARK    7  A    between atoms: N_20  and  C_19 
REMARK       I    between atoms: C_22  and  N_20 
ROOT
ATOM      1  C   LIG d   1     -25.555  85.834 113.807  0.00  0.00     0.161 C 
ATOM      2  C   LIG d   1     -24.196  86.169 113.926  0.00  0.00     0.016 C 
ATOM      3  C   LIG d   1     -23.144  85.298 113.560  0.00  0.00     0.038 C 
ATOM      4  C   LIG d   1     -23.384  84.081 112.904  0.00  0.00     0.028 C 
ATOM      5  C   LIG d   1     -24.750  83.481 113.222  0.00  0.00    -0.047 C 
ATOM      6  C   LIG d   1     -25.836  84.556 112.991  0.00  0.00     0.091 C 
ENDROOT
BRANCH   1   7
ATOM      7  O   LIG d   1     -26.287  86.949 113.261  0.00  0.00    -0.368 OA
BRANCH   7   8
ATOM      8  C   LIG d   1     -26.022  87.266 111.872  0.00  0.00     0.119 C 
BRANCH   8   9
ATOM      9  C   LIG d   1     -25.986  88.802 111.747  0.00  0.00     0.028 C 
ATOM     10  C   LIG d   1     -26.086  89.505 113.111  0.00  0.00     0.006 C 
ENDBRANCH   8   9
BRANCH   8  11
ATOM     11  C   LIG d   1     -27.172  86.813 110.968  0.00  0.00     0.028 C 
ATOM     12  C   LIG d   1     -28.555  87.088 111.580  0.00  0.00     0.006 C 
ENDBRANCH   8  11
ENDBRANCH   7   8
ENDBRANCH   1   7
BRANCH   6  13
ATOM     13  N   LIG d   1     -27.194  84.077 113.359  0.00  0.00    -0.311 N 
ATOM     14  C   LIG d   1     -28.038  83.525 112.489  0.00  0.00     0.210 C 
ATOM     15  C   LIG d   1     -29.395  83.119 113.072  0.00  0.00     0.109 C 
ATOM     16  O   LIG d   1     -27.780  83.304 111.296  0.00  0.00    -0.276 OA
ATOM     17  H   LIG d   1     -27.474  84.189 114.314  0.00  0.00     0.149 HD
ENDBRANCH   6  13
BRANCH   5  18
ATOM     18  N   LIG d   1     -24.923  82.291 112.368  0.00  0.00     0.381 N 
ATOM     19  H   LIG d   1     -25.001  81.473 112.938  0.00  0.00    -0.090 HD
ATOM     20  H   LIG d   1     -24.112  82.190 111.782  0.00  0.00    -0.090 HD
ATOM     21  H   LIG d   1     -25.738  82.391 111.804  0.00  0.00    -0.090 HD
ENDBRANCH   5  18
BRANCH   3  22
ATOM     22  C   LIG d   1     -21.837  85.624 113.886  0.00  0.00     0.382 C 
ATOM     23  O   LIG d   1     -21.269  86.586 113.315  0.00  0.00    -0.241 OA
ATOM     24  O   LIG d   1     -21.202  84.940 114.712  0.00  0.00    -0.241 OA
ENDBRANCH   3  22
TORSDOF 7
ENDMDL
