MODEL 1
REMARK VINA RESULT:      -5.4      0.000      0.000
REMARK  7 active torsions:
REMARK  status: ('A' for Active; 'I' for Inactive)
REMARK    1  A    between atoms: C_2  and  C_3 
REMARK    2  A    between atoms: C_3  and  O_6 
REMARK    3  A    between atoms: C_3  and  C_4 
REMARK    4  A    between atoms: C_7  and  O_6 
REMARK    5  A    between atoms: C_9  and  C_10 
REMARK    6  A    between atoms: N_15  and  C_14 
REMARK    7  A    between atoms: N_20  and  C_19 
REMARK       I    between atoms: C_22  and  N_20 
ROOT
ATOM      1  C   LIG d   1       0.403  83.512 112.220  0.00  0.00     0.161 C 
ATOM      2  C   LIG d   1      -0.729  82.742 111.903  0.00  0.00     0.016 C 
ATOM      3  C   LIG d   1      -1.633  82.252 112.872  0.00  0.00     0.038 C 
ATOM      4  C   LIG d   1      -1.550  82.629 114.221  0.00  0.00     0.028 C 
ATOM      5  C   LIG d   1      -0.136  82.993 114.663  0.00  0.00    -0.047 C 
ATOM      6  C   LIG d   1       0.448  84.027 113.674  0.00  0.00     0.091 C 
ENDROOT
BRANCH   1   7
ATOM      7  O   LIG d   1       0.520  84.612 111.295  0.00  0.00    -0.368 OA
BRANCH   7   8
ATOM      8  C   LIG d   1       1.651  84.567 110.391  0.00  0.00     0.119 C 
BRANCH   8   9
ATOM      9  C   LIG d   1       2.478  83.316 110.747  0.00  0.00     0.028 C 
ATOM     10  C   LIG d   1       3.963  83.642 110.983  0.00  0.00     0.006 C 
ENDBRANCH   8   9
BRANCH   8  11
ATOM     11  C   LIG d   1       2.593  85.753 110.617  0.00  0.00     0.028 C 
ATOM     12  C   LIG d   1       1.844  87.053 110.953  0.00  0.00     0.006 C 
ENDBRANCH   8  11
ENDBRANCH   7   8
ENDBRANCH   1   7
BRANCH   6  13
ATOM     13  N   LIG d   1       1.860  84.373 113.984  0.00  0.00    -0.311 N 
ATOM     14  C   LIG d   1       2.257  85.600 114.319  0.00  0.00     0.210 C 
ATOM     15  C   LIG d   1       3.759  85.744 114.579  0.00  0.00     0.109 C 
ATOM     16  O   LIG d   1       1.502  86.574 114.457  0.00  0.00    -0.276 OA
ATOM     17  H   LIG d   1       2.534  83.635 113.927  0.00  0.00     0.149 HD
ENDBRANCH   6  13
BRANCH   5  18
ATOM     18  N   LIG d   1      -0.217  83.497 116.046  0.00  0.00     0.381 N 
ATOM     19  H   LIG d   1      -0.827  84.290 116.083  0.00  0.00    -0.090 HD
ATOM     20  H   LIG d   1       0.698  83.790 116.340  0.00  0.00    -0.090 HD
ATOM     21  H   LIG d   1      -0.555  82.781 116.651  0.00  0.00    -0.090 HD
ENDBRANCH   5  18
BRANCH   3  22
ATOM     22  C   LIG d   1      -2.612  81.343 112.502  0.00  0.00     0.382 C 
ATOM     23  O   LIG d   1      -3.816  81.576 112.765  0.00  0.00    -0.241 OA
ATOM     24  O   LIG d   1      -2.301  80.271 111.947  0.00  0.00    -0.241 OA
ENDBRANCH   3  22
TORSDOF 7
ENDMDL
MODEL 2
REMARK VINA RESULT:      -5.3      2.348      5.615
REMARK  7 active torsions:
REMARK  status: ('A' for Active; 'I' for Inactive)
REMARK    1  A    between atoms: C_2  and  C_3 
REMARK    2  A    between atoms: C_3  and  O_6 
REMARK    3  A    between atoms: C_3  and  C_4 
REMARK    4  A    between atoms: C_7  and  O_6 
REMARK    5  A    between atoms: C_9  and  C_10 
REMARK    6  A    between atoms: N_15  and  C_14 
REMARK    7  A    between atoms: N_20  and  C_19 
REMARK       I    between atoms: C_22  and  N_20 
ROOT
ATOM      1  C   LIG d   1       1.631  86.402 112.223  0.00  0.00     0.161 C 
ATOM      2  C   LIG d   1       2.700  87.304 112.088  0.00  0.00     0.016 C 
ATOM      3  C   LIG d   1       3.566  87.649 113.151  0.00  0.00     0.038 C 
ATOM      4  C   LIG d   1       3.515  86.996 114.391  0.00  0.00     0.028 C 
ATOM      5  C   LIG d   1       2.134  86.444 114.728  0.00  0.00    -0.047 C 
ATOM      6  C   LIG d   1       1.628  85.596 113.539  0.00  0.00     0.091 C 
ENDROOT
BRANCH   1   7
ATOM      7  O   LIG d   1       1.597  85.513 111.090  0.00  0.00    -0.368 OA
BRANCH   7   8
ATOM      8  C   LIG d   1       2.337  84.275 111.229  0.00  0.00     0.119 C 
BRANCH   8   9
ATOM      9  C   LIG d   1       3.470  84.293 110.185  0.00  0.00     0.028 C 
ATOM     10  C   LIG d   1       4.209  82.947 110.098  0.00  0.00     0.006 C 
ENDBRANCH   8   9
BRANCH   8  11
ATOM     11  C   LIG d   1       1.471  83.064 110.867  0.00  0.00     0.028 C 
ATOM     12  C   LIG d   1       0.040  83.455 110.462  0.00  0.00     0.006 C 
ENDBRANCH   8  11
ENDBRANCH   7   8
ENDBRANCH   1   7
BRANCH   6  13
ATOM     13  N   LIG d   1       0.248  85.088 113.751  0.00  0.00    -0.311 N 
ATOM     14  C   LIG d   1      -0.021  83.873 114.228  0.00  0.00     0.210 C 
ATOM     15  C   LIG d   1      -1.512  83.542 114.350  0.00  0.00     0.109 C 
ATOM     16  O   LIG d   1       0.833  83.051 114.591  0.00  0.00    -0.276 OA
ATOM     17  H   LIG d   1      -0.506  85.701 113.512  0.00  0.00     0.149 HD
ENDBRANCH   6  13
BRANCH   5  18
ATOM     18  N   LIG d   1       2.255  85.671 115.979  0.00  0.00     0.381 N 
ATOM     19  H   LIG d   1       1.358  85.586 116.414  0.00  0.00    -0.090 HD
ATOM     20  H   LIG d   1       2.865  86.164 116.607  0.00  0.00    -0.090 HD
ATOM     21  H   LIG d   1       2.626  84.766 115.786  0.00  0.00    -0.090 HD
ENDBRANCH   5  18
BRANCH   3  22
ATOM     22  C   LIG d   1       4.472  88.687 112.990  0.00  0.00     0.382 C 
ATOM     23  O   LIG d   1       4.106  89.872 113.176  0.00  0.00    -0.241 OA
ATOM     24  O   LIG d   1       5.638  88.456 112.619  0.00  0.00    -0.241 OA
ENDBRANCH   3  22
TORSDOF 7
ENDMDL
MODEL 3
REMARK VINA RESULT:      -5.3      3.378      6.224
REMARK  7 active torsions:
REMARK  status: ('A' for Active; 'I' for Inactive)
REMARK    1  A    between atoms: C_2  and  C_3 
REMARK    2  A    between atoms: C_3  and  O_6 
REMARK    3  A    between atoms: C_3  and  C_4 
REMARK    4  A    between atoms: C_7  and  O_6 
REMARK    5  A    between atoms: C_9  and  C_10 
REMARK    6  A    between atoms: N_15  and  C_14 
REMARK    7  A    between atoms: N_20  and  C_19 
REMARK       I    between atoms: C_22  and  N_20 
ROOT
ATOM      1  C   LIG d   1       2.227  86.592 113.831  0.00  0.00     0.161 C 
ATOM      2  C   LIG d   1       2.908  87.791 113.566  0.00  0.00     0.016 C 
ATOM      3  C   LIG d   1       3.948  88.292 114.382  0.00  0.00     0.038 C 
ATOM      4  C   LIG d   1       4.483  87.546 115.443  0.00  0.00     0.028 C 
ATOM      5  C   LIG d   1       3.491  86.561 116.052  0.00  0.00    -0.047 C 
ATOM      6  C   LIG d   1       2.871  85.709 114.921  0.00  0.00     0.091 C 
ENDROOT
BRANCH   1   7
ATOM      7  O   LIG d   1       2.064  85.842 112.611  0.00  0.00    -0.368 OA
BRANCH   7   8
ATOM      8  C   LIG d   1       2.696  86.399 111.432  0.00  0.00     0.119 C 
BRANCH   8   9
ATOM      9  C   LIG d   1       1.625  86.480 110.327  0.00  0.00     0.028 C 
ATOM     10  C   LIG d   1       0.208  86.663 110.896  0.00  0.00     0.006 C 
ENDBRANCH   8   9
BRANCH   8  11
ATOM     11  C   LIG d   1       3.775  85.460 110.883  0.00  0.00     0.028 C 
ATOM     12  C   LIG d   1       3.193  84.303 110.055  0.00  0.00     0.006 C 
ENDBRANCH   8  11
ENDBRANCH   7   8
ENDBRANCH   1   7
BRANCH   6  13
ATOM     13  N   LIG d   1       1.827  84.777 115.420  0.00  0.00    -0.311 N 
ATOM     14  C   LIG d   1       2.086  83.533 115.821  0.00  0.00     0.210 C 
ATOM     15  C   LIG d   1       0.862  82.734 116.280  0.00  0.00     0.109 C 
ATOM     16  O   LIG d   1       3.217  83.027 115.870  0.00  0.00    -0.276 OA
ATOM     17  H   LIG d   1       0.886  85.117 115.444  0.00  0.00     0.149 HD
ENDBRANCH   6  13
BRANCH   5  18
ATOM     18  N   LIG d   1       4.218  85.756 117.051  0.00  0.00     0.381 N 
ATOM     19  H   LIG d   1       5.170  86.059 117.102  0.00  0.00    -0.090 HD
ATOM     20  H   LIG d   1       4.209  84.793 116.761  0.00  0.00    -0.090 HD
ATOM     21  H   LIG d   1       3.785  85.846 117.943  0.00  0.00    -0.090 HD
ENDBRANCH   5  18
BRANCH   3  22
ATOM     22  C   LIG d   1       4.437  89.572 114.165  0.00  0.00     0.382 C 
ATOM     23  O   LIG d   1       4.771  90.289 115.138  0.00  0.00    -0.241 OA
ATOM     24  O   LIG d   1       4.506  90.033 113.010  0.00  0.00    -0.241 OA
ENDBRANCH   3  22
TORSDOF 7
ENDMDL
MODEL 4
REMARK VINA RESULT:      -5.2      7.907     10.466
REMARK  7 active torsions:
REMARK  status: ('A' for Active; 'I' for Inactive)
REMARK    1  A    between atoms: C_2  and  C_3 
REMARK    2  A    between atoms: C_3  and  O_6 
REMARK    3  A    between atoms: C_3  and  C_4 
REMARK    4  A    between atoms: C_7  and  O_6 
REMARK    5  A    between atoms: C_9  and  C_10 
REMARK    6  A    between atoms: N_15  and  C_14 
REMARK    7  A    between atoms: N_20  and  C_19 
REMARK       I    between atoms: C_22  and  N_20 
ROOT
ATOM      1  C   LIG d   1      -3.274  75.456 116.419  0.00  0.00     0.161 C 
ATOM      2  C   LIG d   1      -4.241  76.395 116.815  0.00  0.00     0.016 C 
ATOM      3  C   LIG d   1      -4.204  77.756 116.436  0.00  0.00     0.038 C 
ATOM      4  C   LIG d   1      -3.273  78.242 115.505  0.00  0.00     0.028 C 
ATOM      5  C   LIG d   1      -1.975  77.442 115.473  0.00  0.00    -0.047 C 
ATOM      6  C   LIG d   1      -2.314  75.942 115.314  0.00  0.00     0.091 C 
ENDROOT
BRANCH   1   7
ATOM      7  O   LIG d   1      -3.919  74.230 116.019  0.00  0.00    -0.368 OA
BRANCH   7   8
ATOM      8  C   LIG d   1      -5.254  74.361 115.472  0.00  0.00     0.119 C 
BRANCH   8   9
ATOM      9  C   LIG d   1      -5.988  73.029 115.718  0.00  0.00     0.028 C 
ATOM     10  C   LIG d   1      -7.417  73.235 116.246  0.00  0.00     0.006 C 
ENDBRANCH   8   9
BRANCH   8  11
ATOM     11  C   LIG d   1      -5.218  74.529 113.950  0.00  0.00     0.028 C 
ATOM     12  C   LIG d   1      -5.999  75.762 113.468  0.00  0.00     0.006 C 
ENDBRANCH   8  11
ENDBRANCH   7   8
ENDBRANCH   1   7
BRANCH   6  13
ATOM     13  N   LIG d   1      -1.104  75.080 115.358  0.00  0.00    -0.311 N 
ATOM     14  C   LIG d   1      -0.450  74.678 114.269  0.00  0.00     0.210 C 
ATOM     15  C   LIG d   1       0.760  73.778 114.537  0.00  0.00     0.109 C 
ATOM     16  O   LIG d   1      -0.739  75.008 113.109  0.00  0.00    -0.276 OA
ATOM     17  H   LIG d   1      -0.782  74.792 116.261  0.00  0.00     0.149 HD
ENDBRANCH   6  13
BRANCH   5  18
ATOM     18  N   LIG d   1      -1.154  77.970 114.368  0.00  0.00     0.381 N 
ATOM     19  H   LIG d   1      -1.512  77.642 113.493  0.00  0.00    -0.090 HD
ATOM     20  H   LIG d   1      -0.213  77.631 114.471  0.00  0.00    -0.090 HD
ATOM     21  H   LIG d   1      -1.159  78.966 114.384  0.00  0.00    -0.090 HD
ENDBRANCH   5  18
BRANCH   3  22
ATOM     22  C   LIG d   1      -5.081  78.657 117.021  0.00  0.00     0.382 C 
ATOM     23  O   LIG d   1      -6.273  78.325 117.230  0.00  0.00    -0.241 OA
ATOM     24  O   LIG d   1      -4.707  79.811 117.303  0.00  0.00    -0.241 OA
ENDBRANCH   3  22
TORSDOF 7
ENDMDL
MODEL 5
REMARK VINA RESULT:      -5.1      2.416      5.757
REMARK  7 active torsions:
REMARK  status: ('A' for Active; 'I' for Inactive)
REMARK    1  A    between atoms: C_2  and  C_3 
REMARK    2  A    between atoms: C_3  and  O_6 
REMARK    3  A    between atoms: C_3  and  C_4 
REMARK    4  A    between atoms: C_7  and  O_6 
REMARK    5  A    between atoms: C_9  and  C_10 
REMARK    6  A    between atoms: N_15  and  C_14 
REMARK    7  A    between atoms: N_20  and  C_19 
REMARK       I    between atoms: C_22  and  N_20 
ROOT
ATOM      1  C   LIG d   1       1.522  83.781 112.914  0.00  0.00     0.161 C 
ATOM      2  C   LIG d   1       2.156  85.034 112.861  0.00  0.00     0.016 C 
ATOM      3  C   LIG d   1       1.787  86.055 111.955  0.00  0.00     0.038 C 
ATOM      4  C   LIG d   1       0.653  85.945 111.136  0.00  0.00     0.028 C 
ATOM      5  C   LIG d   1       0.288  84.504 110.797  0.00  0.00    -0.047 C 
ATOM      6  C   LIG d   1       0.212  83.684 112.106  0.00  0.00     0.091 C 
ENDROOT
BRANCH   1   7
ATOM      7  O   LIG d   1       1.292  83.408 114.287  0.00  0.00    -0.368 OA
BRANCH   7   8
ATOM      8  C   LIG d   1       0.803  84.456 115.160  0.00  0.00     0.119 C 
BRANCH   8   9
ATOM      9  C   LIG d   1       1.541  84.321 116.505  0.00  0.00     0.028 C 
ATOM     10  C   LIG d   1       2.901  83.616 116.361  0.00  0.00     0.006 C 
ENDBRANCH   8   9
BRANCH   8  11
ATOM     11  C   LIG d   1      -0.680  84.259 115.489  0.00  0.00     0.028 C 
ATOM     12  C   LIG d   1      -1.604  85.117 114.611  0.00  0.00     0.006 C 
ENDBRANCH   8  11
ENDBRANCH   7   8
ENDBRANCH   1   7
BRANCH   6  13
ATOM     13  N   LIG d   1      -0.058  82.244 111.857  0.00  0.00    -0.311 N 
ATOM     14  C   LIG d   1      -1.221  81.658 112.134  0.00  0.00     0.210 C 
ATOM     15  C   LIG d   1      -1.282  80.160 111.819  0.00  0.00     0.109 C 
ATOM     16  O   LIG d   1      -2.220  82.243 112.580  0.00  0.00    -0.276 OA
ATOM     17  H   LIG d   1       0.687  81.701 111.468  0.00  0.00     0.149 HD
ENDBRANCH   6  13
BRANCH   5  18
ATOM     18  N   LIG d   1      -0.987  84.530 110.056  0.00  0.00     0.381 N 
ATOM     19  H   LIG d   1      -0.869  85.026 109.196  0.00  0.00    -0.090 HD
ATOM     20  H   LIG d   1      -1.674  85.014 110.608  0.00  0.00    -0.090 HD
ATOM     21  H   LIG d   1      -1.294  83.600 109.872  0.00  0.00    -0.090 HD
ENDBRANCH   5  18
BRANCH   3  22
ATOM     22  C   LIG d   1       2.581  87.185 111.832  0.00  0.00     0.382 C 
ATOM     23  O   LIG d   1       2.119  88.311 112.137  0.00  0.00    -0.241 OA
ATOM     24  O   LIG d   1       3.738  87.098 111.380  0.00  0.00    -0.241 OA
ENDBRANCH   3  22
TORSDOF 7
ENDMDL
MODEL 6
REMARK VINA RESULT:      -4.8      2.871      6.339
REMARK  7 active torsions:
REMARK  status: ('A' for Active; 'I' for Inactive)
REMARK    1  A    between atoms: C_2  and  C_3 
REMARK    2  A    between atoms: C_3  and  O_6 
REMARK    3  A    between atoms: C_3  and  C_4 
REMARK    4  A    between atoms: C_7  and  O_6 
REMARK    5  A    between atoms: C_9  and  C_10 
REMARK    6  A    between atoms: N_15  and  C_14 
REMARK    7  A    between atoms: N_20  and  C_19 
REMARK       I    between atoms: C_22  and  N_20 
ROOT
ATOM      1  C   LIG d   1       0.326  81.339 114.007  0.00  0.00     0.161 C 
ATOM      2  C   LIG d   1       1.052  82.380 113.405  0.00  0.00     0.016 C 
ATOM      3  C   LIG d   1       1.190  82.524 112.005  0.00  0.00     0.038 C 
ATOM      4  C   LIG d   1       0.481  81.717 111.103  0.00  0.00     0.028 C 
ATOM      5  C   LIG d   1       0.137  80.341 111.663  0.00  0.00    -0.047 C 
ATOM      6  C   LIG d   1      -0.547  80.514 113.038  0.00  0.00     0.091 C 
ENDROOT
BRANCH   1   7
ATOM      7  O   LIG d   1      -0.478  81.864 115.083  0.00  0.00    -0.368 OA
BRANCH   7   8
ATOM      8  C   LIG d   1      -1.525  82.790 114.703  0.00  0.00     0.119 C 
BRANCH   8   9
ATOM      9  C   LIG d   1      -1.388  84.036 115.598  0.00  0.00     0.028 C 
ATOM     10  C   LIG d   1      -0.271  83.888 116.644  0.00  0.00     0.006 C 
ENDBRANCH   8   9
BRANCH   8  11
ATOM     11  C   LIG d   1      -2.913  82.219 115.012  0.00  0.00     0.028 C 
ATOM     12  C   LIG d   1      -2.881  81.127 116.092  0.00  0.00     0.006 C 
ENDBRANCH   8  11
ENDBRANCH   7   8
ENDBRANCH   1   7
BRANCH   6  13
ATOM     13  N   LIG d   1      -0.840  79.213 113.694  0.00  0.00    -0.311 N 
ATOM     14  C   LIG d   1      -2.015  78.592 113.598  0.00  0.00     0.210 C 
ATOM     15  C   LIG d   1      -2.112  77.272 114.368  0.00  0.00     0.109 C 
ATOM     16  O   LIG d   1      -2.974  78.994 112.922  0.00  0.00    -0.276 OA
ATOM     17  H   LIG d   1      -0.107  78.801 114.237  0.00  0.00     0.149 HD
ENDBRANCH   6  13
BRANCH   5  18
ATOM     18  N   LIG d   1      -0.718  79.658 110.674  0.00  0.00     0.381 N 
ATOM     19  H   LIG d   1      -0.339  79.781 109.756  0.00  0.00    -0.090 HD
ATOM     20  H   LIG d   1      -1.634  80.072 110.695  0.00  0.00    -0.090 HD
ATOM     21  H   LIG d   1      -0.780  78.687 110.888  0.00  0.00    -0.090 HD
ENDBRANCH   5  18
BRANCH   3  22
ATOM     22  C   LIG d   1       2.078  83.459 111.494  0.00  0.00     0.382 C 
ATOM     23  O   LIG d   1       3.210  83.600 112.017  0.00  0.00    -0.241 OA
ATOM     24  O   LIG d   1       1.745  84.194 110.546  0.00  0.00    -0.241 OA
ENDBRANCH   3  22
TORSDOF 7
ENDMDL
MODEL 7
REMARK VINA RESULT:      -4.7     10.887     12.620
REMARK  7 active torsions:
REMARK  status: ('A' for Active; 'I' for Inactive)
REMARK    1  A    between atoms: C_2  and  C_3 
REMARK    2  A    between atoms: C_3  and  O_6 
REMARK    3  A    between atoms: C_3  and  C_4 
REMARK    4  A    between atoms: C_7  and  O_6 
REMARK    5  A    between atoms: C_9  and  C_10 
REMARK    6  A    between atoms: N_15  and  C_14 
REMARK    7  A    between atoms: N_20  and  C_19 
REMARK       I    between atoms: C_22  and  N_20 
ROOT
ATOM      1  C   LIG d   1      11.223  79.028 114.071  0.00  0.00     0.161 C 
ATOM      2  C   LIG d   1       9.887  79.058 114.504  0.00  0.00     0.016 C 
ATOM      3  C   LIG d   1       9.223  77.939 115.056  0.00  0.00     0.038 C 
ATOM      4  C   LIG d   1       9.900  76.747 115.354  0.00  0.00     0.028 C 
ATOM      5  C   LIG d   1      11.120  76.506 114.471  0.00  0.00    -0.047 C 
ATOM      6  C   LIG d   1      12.011  77.769 114.491  0.00  0.00     0.091 C 
ENDROOT
BRANCH   1   7
ATOM      7  O   LIG d   1      11.907  80.217 114.513  0.00  0.00    -0.368 OA
BRANCH   7   8
ATOM      8  C   LIG d   1      12.352  81.121 113.472  0.00  0.00     0.119 C 
BRANCH   8   9
ATOM      9  C   LIG d   1      11.509  80.830 112.215  0.00  0.00     0.028 C 
ATOM     10  C   LIG d   1      10.535  81.973 111.884  0.00  0.00     0.006 C 
ENDBRANCH   8   9
BRANCH   8  11
ATOM     11  C   LIG d   1      13.800  80.833 113.065  0.00  0.00     0.028 C 
ATOM     12  C   LIG d   1      14.817  81.277 114.128  0.00  0.00     0.006 C 
ENDBRANCH   8  11
ENDBRANCH   7   8
ENDBRANCH   1   7
BRANCH   6  13
ATOM     13  N   LIG d   1      13.183  77.650 113.585  0.00  0.00    -0.311 N 
ATOM     14  C   LIG d   1      14.383  77.236 113.990  0.00  0.00     0.210 C 
ATOM     15  C   LIG d   1      15.458  77.205 112.899  0.00  0.00     0.109 C 
ATOM     16  O   LIG d   1      14.650  76.861 115.142  0.00  0.00    -0.276 OA
ATOM     17  H   LIG d   1      13.047  77.904 112.626  0.00  0.00     0.149 HD
ENDBRANCH   6  13
BRANCH   5  18
ATOM     18  N   LIG d   1      11.808  75.305 114.979  0.00  0.00     0.381 N 
ATOM     19  H   LIG d   1      12.764  75.313 114.685  0.00  0.00    -0.090 HD
ATOM     20  H   LIG d   1      11.366  74.489 114.593  0.00  0.00    -0.090 HD
ATOM     21  H   LIG d   1      11.758  75.278 115.974  0.00  0.00    -0.090 HD
ENDBRANCH   5  18
BRANCH   3  22
ATOM     22  C   LIG d   1       7.855  77.992 115.279  0.00  0.00     0.382 C 
ATOM     23  O   LIG d   1       7.363  78.948 115.926  0.00  0.00    -0.241 OA
ATOM     24  O   LIG d   1       7.113  77.075 114.880  0.00  0.00    -0.241 OA
ENDBRANCH   3  22
TORSDOF 7
ENDMDL
MODEL 8
REMARK VINA RESULT:      -4.6     10.208     11.833
REMARK  7 active torsions:
REMARK  status: ('A' for Active; 'I' for Inactive)
REMARK    1  A    between atoms: C_2  and  C_3 
REMARK    2  A    between atoms: C_3  and  O_6 
REMARK    3  A    between atoms: C_3  and  C_4 
REMARK    4  A    between atoms: C_7  and  O_6 
REMARK    5  A    between atoms: C_9  and  C_10 
REMARK    6  A    between atoms: N_15  and  C_14 
REMARK    7  A    between atoms: N_20  and  C_19 
REMARK       I    between atoms: C_22  and  N_20 
ROOT
ATOM      1  C   LIG d   1      10.567  79.051 114.553  0.00  0.00     0.161 C 
ATOM      2  C   LIG d   1       9.257  78.779 114.981  0.00  0.00     0.016 C 
ATOM      3  C   LIG d   1       8.816  77.492 115.367  0.00  0.00     0.038 C 
ATOM      4  C   LIG d   1       9.702  76.412 115.494  0.00  0.00     0.028 C 
ATOM      5  C   LIG d   1      10.924  76.521 114.589  0.00  0.00    -0.047 C 
ATOM      6  C   LIG d   1      11.576  77.908 114.791  0.00  0.00     0.091 C 
ENDROOT
BRANCH   1   7
ATOM      7  O   LIG d   1      11.037  80.270 115.162  0.00  0.00    -0.368 OA
BRANCH   7   8
ATOM      8  C   LIG d   1      11.089  81.434 114.301  0.00  0.00     0.119 C 
BRANCH   8   9
ATOM      9  C   LIG d   1       9.769  82.208 114.489  0.00  0.00     0.028 C 
ATOM     10  C   LIG d   1       9.372  82.340 115.969  0.00  0.00     0.006 C 
ENDBRANCH   8   9
BRANCH   8  11
ATOM     11  C   LIG d   1      11.116  81.034 112.823  0.00  0.00     0.028 C 
ATOM     12  C   LIG d   1      10.430  82.065 111.913  0.00  0.00     0.006 C 
ENDBRANCH   8  11
ENDBRANCH   7   8
ENDBRANCH   1   7
BRANCH   6  13
ATOM     13  N   LIG d   1      12.730  78.130 113.881  0.00  0.00    -0.311 N 
ATOM     14  C   LIG d   1      13.918  78.567 114.297  0.00  0.00     0.210 C 
ATOM     15  C   LIG d   1      14.964  78.747 113.192  0.00  0.00     0.109 C 
ATOM     16  O   LIG d   1      14.214  78.792 115.480  0.00  0.00    -0.276 OA
ATOM     17  H   LIG d   1      12.587  77.943 112.908  0.00  0.00     0.149 HD
ENDBRANCH   6  13
BRANCH   5  18
ATOM     18  N   LIG d   1      11.827  75.404 114.923  0.00  0.00     0.381 N 
ATOM     19  H   LIG d   1      12.047  74.887 114.095  0.00  0.00    -0.090 HD
ATOM     20  H   LIG d   1      11.359  74.788 115.564  0.00  0.00    -0.090 HD
ATOM     21  H   LIG d   1      12.664  75.753 115.337  0.00  0.00    -0.090 HD
ENDBRANCH   5  18
BRANCH   3  22
ATOM     22  C   LIG d   1       7.466  77.267 115.591  0.00  0.00     0.382 C 
ATOM     23  O   LIG d   1       6.623  77.597 114.722  0.00  0.00    -0.241 OA
ATOM     24  O   LIG d   1       7.078  76.779 116.669  0.00  0.00    -0.241 OA
ENDBRANCH   3  22
TORSDOF 7
ENDMDL
MODEL 9
REMARK VINA RESULT:      -4.5     10.420     12.887
REMARK  7 active torsions:
REMARK  status: ('A' for Active; 'I' for Inactive)
REMARK    1  A    between atoms: C_2  and  C_3 
REMARK    2  A    between atoms: C_3  and  O_6 
REMARK    3  A    between atoms: C_3  and  C_4 
REMARK    4  A    between atoms: C_7  and  O_6 
REMARK    5  A    between atoms: C_9  and  C_10 
REMARK    6  A    between atoms: N_15  and  C_14 
REMARK    7  A    between atoms: N_20  and  C_19 
REMARK       I    between atoms: C_22  and  N_20 
ROOT
ATOM      1  C   LIG d   1      12.228  79.449 114.654  0.00  0.00     0.161 C 
ATOM      2  C   LIG d   1      11.225  80.063 115.423  0.00  0.00     0.016 C 
ATOM      3  C   LIG d   1      10.358  81.059 114.918  0.00  0.00     0.038 C 
ATOM      4  C   LIG d   1      10.336  81.403 113.558  0.00  0.00     0.028 C 
ATOM      5  C   LIG d   1      11.669  81.173 112.853  0.00  0.00    -0.047 C 
ATOM      6  C   LIG d   1      12.146  79.731 113.139  0.00  0.00     0.091 C 
ENDROOT
BRANCH   1   7
ATOM      7  O   LIG d   1      12.231  78.029 114.899  0.00  0.00    -0.368 OA
BRANCH   7   8
ATOM      8  C   LIG d   1      11.133  77.517 115.695  0.00  0.00     0.119 C 
BRANCH   8   9
ATOM      9  C   LIG d   1      11.740  76.675 116.834  0.00  0.00     0.028 C 
ATOM     10  C   LIG d   1      10.928  76.777 118.136  0.00  0.00     0.006 C 
ENDBRANCH   8   9
BRANCH   8  11
ATOM     11  C   LIG d   1      10.266  76.545 114.889  0.00  0.00     0.028 C 
ATOM     12  C   LIG d   1       8.762  76.815 115.050  0.00  0.00     0.006 C 
ENDBRANCH   8  11
ENDBRANCH   7   8
ENDBRANCH   1   7
BRANCH   6  13
ATOM     13  N   LIG d   1      13.483  79.450 112.556  0.00  0.00    -0.311 N 
ATOM     14  C   LIG d   1      13.659  78.909 111.352  0.00  0.00     0.210 C 
ATOM     15  C   LIG d   1      15.121  78.685 110.950  0.00  0.00     0.109 C 
ATOM     16  O   LIG d   1      12.745  78.622 110.565  0.00  0.00    -0.276 OA
ATOM     17  H   LIG d   1      14.282  79.681 113.114  0.00  0.00     0.149 HD
ENDBRANCH   6  13
BRANCH   5  18
ATOM     18  N   LIG d   1      11.465  81.441 111.417  0.00  0.00     0.381 N 
ATOM     19  H   LIG d   1      10.497  81.338 111.187  0.00  0.00    -0.090 HD
ATOM     20  H   LIG d   1      11.989  80.769 110.884  0.00  0.00    -0.090 HD
ATOM     21  H   LIG d   1      11.771  82.363 111.195  0.00  0.00    -0.090 HD
ENDBRANCH   5  18
BRANCH   3  22
ATOM     22  C   LIG d   1       9.528  81.752 115.786  0.00  0.00     0.382 C 
ATOM     23  O   LIG d   1       8.657  82.533 115.331  0.00  0.00    -0.241 OA
ATOM     24  O   LIG d   1       9.668  81.639 117.018  0.00  0.00    -0.241 OA
ENDBRANCH   3  22
TORSDOF 7
ENDMDL
