MODEL 1
REMARK VINA RESULT:      -5.7      0.000      0.000
REMARK  7 active torsions:
REMARK  status: ('A' for Active; 'I' for Inactive)
REMARK    1  A    between atoms: C_2  and  C_3 
REMARK    2  A    between atoms: C_3  and  O_6 
REMARK    3  A    between atoms: C_3  and  C_4 
REMARK    4  A    between atoms: C_7  and  O_6 
REMARK    5  A    between atoms: C_9  and  C_10 
REMARK    6  A    between atoms: N_15  and  C_14 
REMARK    7  A    between atoms: N_20  and  C_19 
REMARK       I    between atoms: C_22  and  N_20 
ROOT
ATOM      1  C   LIG d   1       0.016  83.944 112.387  0.00  0.00     0.161 C 
ATOM      2  C   LIG d   1      -1.010  83.031 112.683  0.00  0.00     0.016 C 
ATOM      3  C   LIG d   1      -0.933  81.651 112.388  0.00  0.00     0.038 C 
ATOM      4  C   LIG d   1       0.246  81.059 111.911  0.00  0.00     0.028 C 
ATOM      5  C   LIG d   1       1.132  82.021 111.126  0.00  0.00    -0.047 C 
ATOM      6  C   LIG d   1       1.354  83.298 111.968  0.00  0.00     0.091 C 
ENDROOT
BRANCH   1   7
ATOM      7  O   LIG d   1       0.217  84.833 113.503  0.00  0.00    -0.368 OA
BRANCH   7   8
ATOM      8  C   LIG d   1      -0.906  84.986 114.405  0.00  0.00     0.119 C 
BRANCH   8   9
ATOM      9  C   LIG d   1      -1.489  86.396 114.184  0.00  0.00     0.028 C 
ATOM     10  C   LIG d   1      -2.702  86.678 115.085  0.00  0.00     0.006 C 
ENDBRANCH   8   9
BRANCH   8  11
ATOM     11  C   LIG d   1      -0.454  84.960 115.868  0.00  0.00     0.028 C 
ATOM     12  C   LIG d   1       0.228  83.638 116.257  0.00  0.00     0.006 C 
ENDBRANCH   8  11
ENDBRANCH   7   8
ENDBRANCH   1   7
BRANCH   6  13
ATOM     13  N   LIG d   1       2.141  84.327 111.239  0.00  0.00    -0.311 N 
ATOM     14  C   LIG d   1       3.096  85.060 111.810  0.00  0.00     0.210 C 
ATOM     15  C   LIG d   1       3.770  86.078 110.885  0.00  0.00     0.109 C 
ATOM     16  O   LIG d   1       3.470  84.941 112.987  0.00  0.00    -0.276 OA
ATOM     17  H   LIG d   1       1.924  84.467 110.272  0.00  0.00     0.149 HD
ENDBRANCH   6  13
BRANCH   5  18
ATOM     18  N   LIG d   1       2.386  81.313 110.808  0.00  0.00     0.381 N 
ATOM     19  H   LIG d   1       2.972  81.897 110.246  0.00  0.00    -0.090 HD
ATOM     20  H   LIG d   1       2.167  80.485 110.281  0.00  0.00    -0.090 HD
ATOM     21  H   LIG d   1       2.860  81.064 111.648  0.00  0.00    -0.090 HD
ENDBRANCH   5  18
BRANCH   3  22
ATOM     22  C   LIG d   1      -2.058  80.853 112.533  0.00  0.00     0.382 C 
ATOM     23  O   LIG d   1      -3.199  81.338 112.341  0.00  0.00    -0.241 OA
ATOM     24  O   LIG d   1      -1.949  79.667 112.897  0.00  0.00    -0.241 OA
ENDBRANCH   3  22
TORSDOF 7
ENDMDL
MODEL 2
REMARK VINA RESULT:      -5.6      3.117      6.877
REMARK  7 active torsions:
REMARK  status: ('A' for Active; 'I' for Inactive)
REMARK    1  A    between atoms: C_2  and  C_3 
REMARK    2  A    between atoms: C_3  and  O_6 
REMARK    3  A    between atoms: C_3  and  C_4 
REMARK    4  A    between atoms: C_7  and  O_6 
REMARK    5  A    between atoms: C_9  and  C_10 
REMARK    6  A    between atoms: N_15  and  C_14 
REMARK    7  A    between atoms: N_20  and  C_19 
REMARK       I    between atoms: C_22  and  N_20 
ROOT
ATOM      1  C   LIG d   1       2.594  86.440 112.048  0.00  0.00     0.161 C 
ATOM      2  C   LIG d   1       3.473  87.525 111.898  0.00  0.00     0.016 C 
ATOM      3  C   LIG d   1       3.972  88.279 112.985  0.00  0.00     0.038 C 
ATOM      4  C   LIG d   1       3.743  87.901 114.316  0.00  0.00     0.028 C 
ATOM      5  C   LIG d   1       2.451  87.114 114.509  0.00  0.00    -0.047 C 
ATOM      6  C   LIG d   1       2.421  85.944 113.499  0.00  0.00     0.091 C 
ENDROOT
BRANCH   1   7
ATOM      7  O   LIG d   1       3.006  85.355 111.193  0.00  0.00    -0.368 OA
BRANCH   7   8
ATOM      8  C   LIG d   1       2.153  85.081 110.055  0.00  0.00     0.119 C 
BRANCH   8   9
ATOM      9  C   LIG d   1       0.985  86.085 110.100  0.00  0.00     0.028 C 
ATOM     10  C   LIG d   1      -0.385  85.389 110.181  0.00  0.00     0.006 C 
ENDBRANCH   8   9
BRANCH   8  11
ATOM     11  C   LIG d   1       1.503  83.698 110.165  0.00  0.00     0.028 C 
ATOM     12  C   LIG d   1       2.532  82.557 110.185  0.00  0.00     0.006 C 
ENDBRANCH   8  11
ENDBRANCH   7   8
ENDBRANCH   1   7
BRANCH   6  13
ATOM     13  N   LIG d   1       1.152  85.173 113.563  0.00  0.00    -0.311 N 
ATOM     14  C   LIG d   1       1.102  83.861 113.788  0.00  0.00     0.210 C 
ATOM     15  C   LIG d   1      -0.306  83.259 113.794  0.00  0.00     0.109 C 
ATOM     16  O   LIG d   1       2.089  83.144 114.016  0.00  0.00    -0.276 OA
ATOM     17  H   LIG d   1       0.302  85.681 113.420  0.00  0.00     0.149 HD
ENDBRANCH   6  13
BRANCH   5  18
ATOM     18  N   LIG d   1       2.407  86.666 115.914  0.00  0.00     0.381 N 
ATOM     19  H   LIG d   1       2.611  85.688 115.964  0.00  0.00    -0.090 HD
ATOM     20  H   LIG d   1       1.481  86.814 116.273  0.00  0.00    -0.090 HD
ATOM     21  H   LIG d   1       3.068  87.179 116.456  0.00  0.00    -0.090 HD
ENDBRANCH   5  18
BRANCH   3  22
ATOM     22  C   LIG d   1       4.677  89.448 112.744  0.00  0.00     0.382 C 
ATOM     23  O   LIG d   1       5.806  89.399 112.199  0.00  0.00    -0.241 OA
ATOM     24  O   LIG d   1       4.218  90.549 113.106  0.00  0.00    -0.241 OA
ENDBRANCH   3  22
TORSDOF 7
ENDMDL
MODEL 3
REMARK VINA RESULT:      -5.5      1.899      5.060
REMARK  7 active torsions:
REMARK  status: ('A' for Active; 'I' for Inactive)
REMARK    1  A    between atoms: C_2  and  C_3 
REMARK    2  A    between atoms: C_3  and  O_6 
REMARK    3  A    between atoms: C_3  and  C_4 
REMARK    4  A    between atoms: C_7  and  O_6 
REMARK    5  A    between atoms: C_9  and  C_10 
REMARK    6  A    between atoms: N_15  and  C_14 
REMARK    7  A    between atoms: N_20  and  C_19 
REMARK       I    between atoms: C_22  and  N_20 
ROOT
ATOM      1  C   LIG d   1       1.026  85.352 112.933  0.00  0.00     0.161 C 
ATOM      2  C   LIG d   1       1.678  86.590 112.809  0.00  0.00     0.016 C 
ATOM      3  C   LIG d   1       2.686  86.847 111.852  0.00  0.00     0.038 C 
ATOM      4  C   LIG d   1       3.007  85.922 110.847  0.00  0.00     0.028 C 
ATOM      5  C   LIG d   1       2.732  84.476 111.244  0.00  0.00    -0.047 C 
ATOM      6  C   LIG d   1       1.284  84.367 111.773  0.00  0.00     0.091 C 
ENDROOT
BRANCH   1   7
ATOM      7  O   LIG d   1      -0.390  85.560 113.107  0.00  0.00    -0.368 OA
BRANCH   7   8
ATOM      8  C   LIG d   1      -0.952  85.098 114.360  0.00  0.00     0.119 C 
BRANCH   8   9
ATOM      9  C   LIG d   1      -1.336  86.344 115.183  0.00  0.00     0.028 C 
ATOM     10  C   LIG d   1      -2.804  86.753 114.977  0.00  0.00     0.006 C 
ENDBRANCH   8   9
BRANCH   8  11
ATOM     11  C   LIG d   1       0.094  84.363 115.203  0.00  0.00     0.028 C 
ATOM     12  C   LIG d   1      -0.069  84.616 116.710  0.00  0.00     0.006 C 
ENDBRANCH   8  11
ENDBRANCH   7   8
ENDBRANCH   1   7
BRANCH   6  13
ATOM     13  N   LIG d   1       0.960  83.002 112.262  0.00  0.00    -0.311 N 
ATOM     14  C   LIG d   1      -0.051  82.274 111.790  0.00  0.00     0.210 C 
ATOM     15  C   LIG d   1      -0.222  80.901 112.447  0.00  0.00     0.109 C 
ATOM     16  O   LIG d   1      -0.803  82.623 110.868  0.00  0.00    -0.276 OA
ATOM     17  H   LIG d   1       1.539  82.628 112.989  0.00  0.00     0.149 HD
ENDBRANCH   6  13
BRANCH   5  18
ATOM     18  N   LIG d   1       2.980  83.633 110.059  0.00  0.00     0.381 N 
ATOM     19  H   LIG d   1       2.264  83.788 109.378  0.00  0.00    -0.090 HD
ATOM     20  H   LIG d   1       2.950  82.668 110.335  0.00  0.00    -0.090 HD
ATOM     21  H   LIG d   1       3.872  83.847 109.669  0.00  0.00    -0.090 HD
ENDBRANCH   5  18
BRANCH   3  22
ATOM     22  C   LIG d   1       3.414  88.025 111.920  0.00  0.00     0.382 C 
ATOM     23  O   LIG d   1       4.618  88.040 111.567  0.00  0.00    -0.241 OA
ATOM     24  O   LIG d   1       2.894  89.064 112.371  0.00  0.00    -0.241 OA
ENDBRANCH   3  22
TORSDOF 7
ENDMDL
MODEL 4
REMARK VINA RESULT:      -5.4      2.369      5.897
REMARK  7 active torsions:
REMARK  status: ('A' for Active; 'I' for Inactive)
REMARK    1  A    between atoms: C_2  and  C_3 
REMARK    2  A    between atoms: C_3  and  O_6 
REMARK    3  A    between atoms: C_3  and  C_4 
REMARK    4  A    between atoms: C_7  and  O_6 
REMARK    5  A    between atoms: C_9  and  C_10 
REMARK    6  A    between atoms: N_15  and  C_14 
REMARK    7  A    between atoms: N_20  and  C_19 
REMARK       I    between atoms: C_22  and  N_20 
ROOT
ATOM      1  C   LIG d   1       1.841  86.500 113.702  0.00  0.00     0.161 C 
ATOM      2  C   LIG d   1       2.629  87.662 113.651  0.00  0.00     0.016 C 
ATOM      3  C   LIG d   1       3.513  87.957 112.587  0.00  0.00     0.038 C 
ATOM      4  C   LIG d   1       3.555  87.179 111.422  0.00  0.00     0.028 C 
ATOM      5  C   LIG d   1       3.149  85.726 111.648  0.00  0.00    -0.047 C 
ATOM      6  C   LIG d   1       1.792  85.694 112.387  0.00  0.00     0.091 C 
ENDROOT
BRANCH   1   7
ATOM      7  O   LIG d   1       0.508  86.833 114.136  0.00  0.00    -0.368 OA
BRANCH   7   8
ATOM      8  C   LIG d   1       0.233  86.653 115.547  0.00  0.00     0.119 C 
BRANCH   8   9
ATOM      9  C   LIG d   1       1.040  85.429 116.023  0.00  0.00     0.028 C 
ATOM     10  C   LIG d   1       0.148  84.205 116.289  0.00  0.00     0.006 C 
ENDBRANCH   8   9
BRANCH   8  11
ATOM     11  C   LIG d   1      -1.235  86.288 115.787  0.00  0.00     0.028 C 
ATOM     12  C   LIG d   1      -2.118  86.527 114.552  0.00  0.00     0.006 C 
ENDBRANCH   8  11
ENDBRANCH   7   8
ENDBRANCH   1   7
BRANCH   6  13
ATOM     13  N   LIG d   1       1.362  84.312 112.723  0.00  0.00    -0.311 N 
ATOM     14  C   LIG d   1       0.130  83.854 112.506  0.00  0.00     0.210 C 
ATOM     15  C   LIG d   1      -0.108  82.406 112.944  0.00  0.00     0.109 C 
ATOM     16  O   LIG d   1      -0.779  84.500 111.963  0.00  0.00    -0.276 OA
ATOM     17  H   LIG d   1       2.045  83.710 113.139  0.00  0.00     0.149 HD
ENDBRANCH   6  13
BRANCH   5  18
ATOM     18  N   LIG d   1       3.106  85.065 110.330  0.00  0.00     0.381 N 
ATOM     19  H   LIG d   1       2.687  84.160 110.419  0.00  0.00    -0.090 HD
ATOM     20  H   LIG d   1       4.045  84.946 109.995  0.00  0.00    -0.090 HD
ATOM     21  H   LIG d   1       2.583  85.619 109.688  0.00  0.00    -0.090 HD
ENDBRANCH   5  18
BRANCH   3  22
ATOM     22  C   LIG d   1       4.394  89.021 112.702  0.00  0.00     0.382 C 
ATOM     23  O   LIG d   1       3.974  90.149 113.055  0.00  0.00    -0.241 OA
ATOM     24  O   LIG d   1       5.598  88.878 112.413  0.00  0.00    -0.241 OA
ENDBRANCH   3  22
TORSDOF 7
ENDMDL
MODEL 5
REMARK VINA RESULT:      -4.7      5.273      6.964
REMARK  7 active torsions:
REMARK  status: ('A' for Active; 'I' for Inactive)
REMARK    1  A    between atoms: C_2  and  C_3 
REMARK    2  A    between atoms: C_3  and  O_6 
REMARK    3  A    between atoms: C_3  and  C_4 
REMARK    4  A    between atoms: C_7  and  O_6 
REMARK    5  A    between atoms: C_9  and  C_10 
REMARK    6  A    between atoms: N_15  and  C_14 
REMARK    7  A    between atoms: N_20  and  C_19 
REMARK       I    between atoms: C_22  and  N_20 
ROOT
ATOM      1  C   LIG d   1       2.944  87.888 114.498  0.00  0.00     0.161 C 
ATOM      2  C   LIG d   1       2.785  86.978 113.440  0.00  0.00     0.016 C 
ATOM      3  C   LIG d   1       3.525  87.046 112.237  0.00  0.00     0.038 C 
ATOM      4  C   LIG d   1       4.589  87.945 112.071  0.00  0.00     0.028 C 
ATOM      5  C   LIG d   1       4.451  89.209 112.913  0.00  0.00    -0.047 C 
ATOM      6  C   LIG d   1       4.177  88.807 114.381  0.00  0.00     0.091 C 
ENDROOT
BRANCH   1   7
ATOM      7  O   LIG d   1       2.966  87.178 115.753  0.00  0.00    -0.368 OA
BRANCH   7   8
ATOM      8  C   LIG d   1       4.043  86.226 115.928  0.00  0.00     0.119 C 
BRANCH   8   9
ATOM      9  C   LIG d   1       3.407  84.867 116.279  0.00  0.00     0.028 C 
ATOM     10  C   LIG d   1       1.924  84.995 116.663  0.00  0.00     0.006 C 
ENDBRANCH   8   9
BRANCH   8  11
ATOM     11  C   LIG d   1       4.917  86.588 117.133  0.00  0.00     0.028 C 
ATOM     12  C   LIG d   1       6.379  86.863 116.748  0.00  0.00     0.006 C 
ENDBRANCH   8  11
ENDBRANCH   7   8
ENDBRANCH   1   7
BRANCH   6  13
ATOM     13  N   LIG d   1       3.946  89.985 115.257  0.00  0.00    -0.311 N 
ATOM     14  C   LIG d   1       4.914  90.594 115.939  0.00  0.00     0.210 C 
ATOM     15  C   LIG d   1       4.456  91.776 116.798  0.00  0.00     0.109 C 
ATOM     16  O   LIG d   1       6.115  90.287 115.888  0.00  0.00    -0.276 OA
ATOM     17  H   LIG d   1       3.005  90.320 115.332  0.00  0.00     0.149 HD
ENDBRANCH   6  13
BRANCH   5  18
ATOM     18  N   LIG d   1       5.690  89.992 112.749  0.00  0.00     0.381 N 
ATOM     19  H   LIG d   1       5.632  90.834 113.285  0.00  0.00    -0.090 HD
ATOM     20  H   LIG d   1       5.792  90.240 111.781  0.00  0.00    -0.090 HD
ATOM     21  H   LIG d   1       6.475  89.454 113.046  0.00  0.00    -0.090 HD
ENDBRANCH   5  18
BRANCH   3  22
ATOM     22  C   LIG d   1       3.176  86.234 111.169  0.00  0.00     0.382 C 
ATOM     23  O   LIG d   1       3.563  85.041 111.135  0.00  0.00    -0.241 OA
ATOM     24  O   LIG d   1       2.517  86.692 110.216  0.00  0.00    -0.241 OA
ENDBRANCH   3  22
TORSDOF 7
ENDMDL
MODEL 6
REMARK VINA RESULT:      -4.6      3.346      5.768
REMARK  7 active torsions:
REMARK  status: ('A' for Active; 'I' for Inactive)
REMARK    1  A    between atoms: C_2  and  C_3 
REMARK    2  A    between atoms: C_3  and  O_6 
REMARK    3  A    between atoms: C_3  and  C_4 
REMARK    4  A    between atoms: C_7  and  O_6 
REMARK    5  A    between atoms: C_9  and  C_10 
REMARK    6  A    between atoms: N_15  and  C_14 
REMARK    7  A    between atoms: N_20  and  C_19 
REMARK       I    between atoms: C_22  and  N_20 
ROOT
ATOM      1  C   LIG d   1       2.029  86.459 113.880  0.00  0.00     0.161 C 
ATOM      2  C   LIG d   1       2.786  86.060 112.766  0.00  0.00     0.016 C 
ATOM      3  C   LIG d   1       2.398  85.016 111.895  0.00  0.00     0.038 C 
ATOM      4  C   LIG d   1       1.144  84.396 111.994  0.00  0.00     0.028 C 
ATOM      5  C   LIG d   1       0.566  84.419 113.404  0.00  0.00    -0.047 C 
ATOM      6  C   LIG d   1       0.605  85.869 113.939  0.00  0.00     0.091 C 
ENDROOT
BRANCH   1   7
ATOM      7  O   LIG d   1       1.979  87.898 113.947  0.00  0.00    -0.368 OA
BRANCH   7   8
ATOM      8  C   LIG d   1       3.078  88.543 114.636  0.00  0.00     0.119 C 
BRANCH   8   9
ATOM      9  C   LIG d   1       2.486  89.312 115.833  0.00  0.00     0.028 C 
ATOM     10  C   LIG d   1       3.216  90.640 116.096  0.00  0.00     0.006 C 
ENDBRANCH   8   9
BRANCH   8  11
ATOM     11  C   LIG d   1       3.739  89.608 113.756  0.00  0.00     0.028 C 
ATOM     12  C   LIG d   1       4.959  89.075 112.990  0.00  0.00     0.006 C 
ENDBRANCH   8  11
ENDBRANCH   7   8
ENDBRANCH   1   7
BRANCH   6  13
ATOM     13  N   LIG d   1       0.135  85.967 115.345  0.00  0.00    -0.311 N 
ATOM     14  C   LIG d   1      -1.127  86.232 115.680  0.00  0.00     0.210 C 
ATOM     15  C   LIG d   1      -1.394  86.309 117.187  0.00  0.00     0.109 C 
ATOM     16  O   LIG d   1      -2.057  86.378 114.873  0.00  0.00    -0.276 OA
ATOM     17  H   LIG d   1       0.818  85.831 116.065  0.00  0.00     0.149 HD
ENDBRANCH   6  13
BRANCH   5  18
ATOM     18  N   LIG d   1      -0.799  83.864 113.336  0.00  0.00     0.381 N 
ATOM     19  H   LIG d   1      -1.138  83.912 112.396  0.00  0.00    -0.090 HD
ATOM     20  H   LIG d   1      -1.404  84.417 113.918  0.00  0.00    -0.090 HD
ATOM     21  H   LIG d   1      -0.799  82.919 113.649  0.00  0.00    -0.090 HD
ENDBRANCH   5  18
BRANCH   3  22
ATOM     22  C   LIG d   1       3.287  84.555 110.936  0.00  0.00     0.382 C 
ATOM     23  O   LIG d   1       3.721  85.336 110.056  0.00  0.00    -0.241 OA
ATOM     24  O   LIG d   1       3.627  83.356 110.914  0.00  0.00    -0.241 OA
ENDBRANCH   3  22
TORSDOF 7
ENDMDL
MODEL 7
REMARK VINA RESULT:      -4.5      3.335      5.096
REMARK  7 active torsions:
REMARK  status: ('A' for Active; 'I' for Inactive)
REMARK    1  A    between atoms: C_2  and  C_3 
REMARK    2  A    between atoms: C_3  and  O_6 
REMARK    3  A    between atoms: C_3  and  C_4 
REMARK    4  A    between atoms: C_7  and  O_6 
REMARK    5  A    between atoms: C_9  and  C_10 
REMARK    6  A    between atoms: N_15  and  C_14 
REMARK    7  A    between atoms: N_20  and  C_19 
REMARK       I    between atoms: C_22  and  N_20 
ROOT
ATOM      1  C   LIG d   1       1.398  86.879 114.562  0.00  0.00     0.161 C 
ATOM      2  C   LIG d   1       0.373  87.015 115.513  0.00  0.00     0.016 C 
ATOM      3  C   LIG d   1      -0.869  86.346 115.420  0.00  0.00     0.038 C 
ATOM      4  C   LIG d   1      -1.115  85.371 114.442  0.00  0.00     0.028 C 
ATOM      5  C   LIG d   1      -0.300  85.572 113.169  0.00  0.00    -0.047 C 
ATOM      6  C   LIG d   1       1.190  85.735 113.547  0.00  0.00     0.091 C 
ENDROOT
BRANCH   1   7
ATOM      7  O   LIG d   1       2.667  86.733 115.228  0.00  0.00    -0.368 OA
BRANCH   7   8
ATOM      8  C   LIG d   1       3.558  87.874 115.160  0.00  0.00     0.119 C 
BRANCH   8   9
ATOM      9  C   LIG d   1       3.273  88.757 116.391  0.00  0.00     0.028 C 
ATOM     10  C   LIG d   1       2.702  90.132 116.007  0.00  0.00     0.006 C 
ENDBRANCH   8   9
BRANCH   8  11
ATOM     11  C   LIG d   1       3.243  88.755 113.948  0.00  0.00     0.028 C 
ATOM     12  C   LIG d   1       4.333  88.692 112.866  0.00  0.00     0.006 C 
ENDBRANCH   8  11
ENDBRANCH   7   8
ENDBRANCH   1   7
BRANCH   6  13
ATOM     13  N   LIG d   1       2.047  86.020 112.366  0.00  0.00    -0.311 N 
ATOM     14  C   LIG d   1       2.692  85.076 111.684  0.00  0.00     0.210 C 
ATOM     15  C   LIG d   1       3.537  85.588 110.513  0.00  0.00     0.109 C 
ATOM     16  O   LIG d   1       2.619  83.860 111.917  0.00  0.00    -0.276 OA
ATOM     17  H   LIG d   1       2.136  86.978 112.089  0.00  0.00     0.149 HD
ENDBRANCH   6  13
BRANCH   5  18
ATOM     18  N   LIG d   1      -0.551  84.413 112.291  0.00  0.00     0.381 N 
ATOM     19  H   LIG d   1      -1.533  84.233 112.240  0.00  0.00    -0.090 HD
ATOM     20  H   LIG d   1      -0.102  83.605 112.685  0.00  0.00    -0.090 HD
ATOM     21  H   LIG d   1      -0.190  84.591 111.380  0.00  0.00    -0.090 HD
ENDBRANCH   5  18
BRANCH   3  22
ATOM     22  C   LIG d   1      -1.896  86.679 116.291  0.00  0.00     0.382 C 
ATOM     23  O   LIG d   1      -2.822  87.434 115.907  0.00  0.00    -0.241 OA
ATOM     24  O   LIG d   1      -1.885  86.271 117.467  0.00  0.00    -0.241 OA
ENDBRANCH   3  22
TORSDOF 7
ENDMDL
MODEL 8
REMARK VINA RESULT:      -4.5      2.809      5.949
REMARK  7 active torsions:
REMARK  status: ('A' for Active; 'I' for Inactive)
REMARK    1  A    between atoms: C_2  and  C_3 
REMARK    2  A    between atoms: C_3  and  O_6 
REMARK    3  A    between atoms: C_3  and  C_4 
REMARK    4  A    between atoms: C_7  and  O_6 
REMARK    5  A    between atoms: C_9  and  C_10 
REMARK    6  A    between atoms: N_15  and  C_14 
REMARK    7  A    between atoms: N_20  and  C_19 
REMARK       I    between atoms: C_22  and  N_20 
ROOT
ATOM      1  C   LIG d   1       0.707  84.680 112.939  0.00  0.00     0.161 C 
ATOM      2  C   LIG d   1       1.105  86.015 113.122  0.00  0.00     0.016 C 
ATOM      3  C   LIG d   1       1.927  86.443 114.189  0.00  0.00     0.038 C 
ATOM      4  C   LIG d   1       2.536  85.533 115.067  0.00  0.00     0.028 C 
ATOM      5  C   LIG d   1       1.759  84.231 115.224  0.00  0.00    -0.047 C 
ATOM      6  C   LIG d   1       1.452  83.657 113.822  0.00  0.00     0.091 C 
ENDROOT
BRANCH   1   7
ATOM      7  O   LIG d   1       0.825  84.321 111.548  0.00  0.00    -0.368 OA
BRANCH   7   8
ATOM      8  C   LIG d   1       2.150  83.947 111.097  0.00  0.00     0.119 C 
BRANCH   8   9
ATOM      9  C   LIG d   1       2.596  84.991 110.055  0.00  0.00     0.028 C 
ATOM     10  C   LIG d   1       3.578  86.021 110.639  0.00  0.00     0.006 C 
ENDBRANCH   8   9
BRANCH   8  11
ATOM     11  C   LIG d   1       2.126  82.611 110.347  0.00  0.00     0.028 C 
ATOM     12  C   LIG d   1       0.721  81.993 110.275  0.00  0.00     0.006 C 
ENDBRANCH   8  11
ENDBRANCH   7   8
ENDBRANCH   1   7
BRANCH   6  13
ATOM     13  N   LIG d   1       0.621  82.426 113.883  0.00  0.00    -0.311 N 
ATOM     14  C   LIG d   1       1.131  81.196 113.866  0.00  0.00     0.210 C 
ATOM     15  C   LIG d   1       0.097  80.067 113.917  0.00  0.00     0.109 C 
ATOM     16  O   LIG d   1       2.343  80.933 113.847  0.00  0.00    -0.276 OA
ATOM     17  H   LIG d   1      -0.372  82.548 113.932  0.00  0.00     0.149 HD
ENDBRANCH   6  13
BRANCH   5  18
ATOM     18  N   LIG d   1       2.573  83.324 116.055  0.00  0.00     0.381 N 
ATOM     19  H   LIG d   1       1.988  82.853 116.716  0.00  0.00    -0.090 HD
ATOM     20  H   LIG d   1       3.250  83.866 116.562  0.00  0.00    -0.090 HD
ATOM     21  H   LIG d   1       3.037  82.657 115.477  0.00  0.00    -0.090 HD
ENDBRANCH   5  18
BRANCH   3  22
ATOM     22  C   LIG d   1       2.116  87.799 114.411  0.00  0.00     0.382 C 
ATOM     23  O   LIG d   1       1.480  88.379 115.324  0.00  0.00    -0.241 OA
ATOM     24  O   LIG d   1       2.880  88.458 113.681  0.00  0.00    -0.241 OA
ENDBRANCH   3  22
TORSDOF 7
ENDMDL
MODEL 9
REMARK VINA RESULT:      -4.4      2.554      4.477
REMARK  7 active torsions:
REMARK  status: ('A' for Active; 'I' for Inactive)
REMARK    1  A    between atoms: C_2  and  C_3 
REMARK    2  A    between atoms: C_3  and  O_6 
REMARK    3  A    between atoms: C_3  and  C_4 
REMARK    4  A    between atoms: C_7  and  O_6 
REMARK    5  A    between atoms: C_9  and  C_10 
REMARK    6  A    between atoms: N_15  and  C_14 
REMARK    7  A    between atoms: N_20  and  C_19 
REMARK       I    between atoms: C_22  and  N_20 
ROOT
ATOM      1  C   LIG d   1       0.561  83.577 113.652  0.00  0.00     0.161 C 
ATOM      2  C   LIG d   1       0.208  84.717 112.911  0.00  0.00     0.016 C 
ATOM      3  C   LIG d   1      -0.088  84.685 111.528  0.00  0.00     0.038 C 
ATOM      4  C   LIG d   1      -0.200  83.478 110.822  0.00  0.00     0.028 C 
ATOM      5  C   LIG d   1       0.640  82.351 111.412  0.00  0.00    -0.047 C 
ATOM      6  C   LIG d   1       0.336  82.236 112.923  0.00  0.00     0.091 C 
ENDROOT
BRANCH   1   7
ATOM      7  O   LIG d   1      -0.132  83.583 114.916  0.00  0.00    -0.368 OA
BRANCH   7   8
ATOM      8  C   LIG d   1       0.607  84.109 116.046  0.00  0.00     0.119 C 
BRANCH   8   9
ATOM      9  C   LIG d   1       2.020  83.497 116.000  0.00  0.00     0.028 C 
ATOM     10  C   LIG d   1       3.118  84.534 116.289  0.00  0.00     0.006 C 
ENDBRANCH   8   9
BRANCH   8  11
ATOM     11  C   LIG d   1       0.004  83.640 117.373  0.00  0.00     0.028 C 
ATOM     12  C   LIG d   1       0.145  82.125 117.589  0.00  0.00     0.006 C 
ENDBRANCH   8  11
ENDBRANCH   7   8
ENDBRANCH   1   7
BRANCH   6  13
ATOM     13  N   LIG d   1       1.178  81.212 113.595  0.00  0.00    -0.311 N 
ATOM     14  C   LIG d   1       0.684  80.263 114.389  0.00  0.00     0.210 C 
ATOM     15  C   LIG d   1       1.728  79.321 114.997  0.00  0.00     0.109 C 
ATOM     16  O   LIG d   1      -0.522  80.092 114.622  0.00  0.00    -0.276 OA
ATOM     17  H   LIG d   1       2.165  81.258 113.436  0.00  0.00     0.149 HD
ENDBRANCH   6  13
BRANCH   5  18
ATOM     18  N   LIG d   1       0.323  81.120 110.664  0.00  0.00     0.381 N 
ATOM     19  H   LIG d   1      -0.591  80.798 110.912  0.00  0.00    -0.090 HD
ATOM     20  H   LIG d   1       0.987  80.408 110.913  0.00  0.00    -0.090 HD
ATOM     21  H   LIG d   1       0.366  81.296 109.684  0.00  0.00    -0.090 HD
ENDBRANCH   5  18
BRANCH   3  22
ATOM     22  C   LIG d   1      -0.237  85.873 110.830  0.00  0.00     0.382 C 
ATOM     23  O   LIG d   1       0.588  86.804 110.993  0.00  0.00    -0.241 OA
ATOM     24  O   LIG d   1      -1.212  86.043 110.072  0.00  0.00    -0.241 OA
ENDBRANCH   3  22
TORSDOF 7
ENDMDL
