MODEL 1
REMARK VINA RESULT:      -5.5      0.000      0.000
REMARK  7 active torsions:
REMARK  status: ('A' for Active; 'I' for Inactive)
REMARK    1  A    between atoms: C_2  and  C_3 
REMARK    2  A    between atoms: C_3  and  O_6 
REMARK    3  A    between atoms: C_3  and  C_4 
REMARK    4  A    between atoms: C_7  and  O_6 
REMARK    5  A    between atoms: C_9  and  C_10 
REMARK    6  A    between atoms: N_15  and  C_14 
REMARK    7  A    between atoms: N_20  and  C_19 
REMARK       I    between atoms: C_22  and  N_20 
ROOT
ATOM      1  C   LIG d   1      -6.574  75.331 116.755  0.00  0.00     0.161 C 
ATOM      2  C   LIG d   1      -7.493  74.272 116.674  0.00  0.00     0.016 C 
ATOM      3  C   LIG d   1      -7.112  72.924 116.485  0.00  0.00     0.038 C 
ATOM      4  C   LIG d   1      -5.769  72.522 116.516  0.00  0.00     0.028 C 
ATOM      5  C   LIG d   1      -4.798  73.618 116.090  0.00  0.00    -0.047 C 
ATOM      6  C   LIG d   1      -5.100  74.899 116.902  0.00  0.00     0.091 C 
ENDROOT
BRANCH   1   7
ATOM      7  O   LIG d   1      -6.945  76.219 117.828  0.00  0.00    -0.368 OA
BRANCH   7   8
ATOM      8  C   LIG d   1      -7.486  77.504 117.433  0.00  0.00     0.119 C 
BRANCH   8   9
ATOM      9  C   LIG d   1      -6.714  78.589 118.210  0.00  0.00     0.028 C 
ATOM     10  C   LIG d   1      -5.651  79.286 117.345  0.00  0.00     0.006 C 
ENDBRANCH   8   9
BRANCH   8  11
ATOM     11  C   LIG d   1      -8.946  77.653 117.871  0.00  0.00     0.028 C 
ATOM     12  C   LIG d   1      -9.304  79.093 118.271  0.00  0.00     0.006 C 
ENDBRANCH   8  11
ENDBRANCH   7   8
ENDBRANCH   1   7
BRANCH   6  13
ATOM     13  N   LIG d   1      -4.251  76.046 116.487  0.00  0.00    -0.311 N 
ATOM     14  C   LIG d   1      -3.124  76.386 117.109  0.00  0.00     0.210 C 
ATOM     15  C   LIG d   1      -2.412  77.614 116.533  0.00  0.00     0.109 C 
ATOM     16  O   LIG d   1      -2.629  75.769 118.064  0.00  0.00    -0.276 OA
ATOM     17  H   LIG d   1      -4.562  76.583 115.702  0.00  0.00     0.149 HD
ENDBRANCH   6  13
BRANCH   5  18
ATOM     18  N   LIG d   1      -3.430  73.109 116.300  0.00  0.00     0.381 N 
ATOM     19  H   LIG d   1      -2.866  73.314 115.500  0.00  0.00    -0.090 HD
ATOM     20  H   LIG d   1      -3.468  72.112 116.413  0.00  0.00    -0.090 HD
ATOM     21  H   LIG d   1      -3.032  73.528 117.112  0.00  0.00    -0.090 HD
ENDBRANCH   5  18
BRANCH   3  22
ATOM     22  C   LIG d   1      -8.080  71.966 116.223  0.00  0.00     0.382 C 
ATOM     23  O   LIG d   1      -7.746  70.845 115.770  0.00  0.00    -0.241 OA
ATOM     24  O   LIG d   1      -9.287  72.225 116.391  0.00  0.00    -0.241 OA
ENDBRANCH   3  22
TORSDOF 7
ENDMDL
MODEL 2
REMARK VINA RESULT:      -5.4      2.232      4.497
REMARK  7 active torsions:
REMARK  status: ('A' for Active; 'I' for Inactive)
REMARK    1  A    between atoms: C_2  and  C_3 
REMARK    2  A    between atoms: C_3  and  O_6 
REMARK    3  A    between atoms: C_3  and  C_4 
REMARK    4  A    between atoms: C_7  and  O_6 
REMARK    5  A    between atoms: C_9  and  C_10 
REMARK    6  A    between atoms: N_15  and  C_14 
REMARK    7  A    between atoms: N_20  and  C_19 
REMARK       I    between atoms: C_22  and  N_20 
ROOT
ATOM      1  C   LIG d   1      -4.824  74.190 116.588  0.00  0.00     0.161 C 
ATOM      2  C   LIG d   1      -5.553  73.021 116.315  0.00  0.00     0.016 C 
ATOM      3  C   LIG d   1      -6.965  72.961 116.335  0.00  0.00     0.038 C 
ATOM      4  C   LIG d   1      -7.754  74.112 116.484  0.00  0.00     0.028 C 
ATOM      5  C   LIG d   1      -7.061  75.224 117.263  0.00  0.00    -0.047 C 
ATOM      6  C   LIG d   1      -5.669  75.480 116.642  0.00  0.00     0.091 C 
ENDROOT
BRANCH   1   7
ATOM      7  O   LIG d   1      -3.753  74.333 115.634  0.00  0.00    -0.368 OA
BRANCH   7   8
ATOM      8  C   LIG d   1      -2.436  74.574 116.187  0.00  0.00     0.119 C 
BRANCH   8   9
ATOM      9  C   LIG d   1      -1.720  75.573 115.257  0.00  0.00     0.028 C 
ATOM     10  C   LIG d   1      -0.768  76.508 116.022  0.00  0.00     0.006 C 
ENDBRANCH   8   9
BRANCH   8  11
ATOM     11  C   LIG d   1      -1.578  73.306 116.157  0.00  0.00     0.028 C 
ATOM     12  C   LIG d   1      -0.935  72.989 117.516  0.00  0.00     0.006 C 
ENDBRANCH   8  11
ENDBRANCH   7   8
ENDBRANCH   1   7
BRANCH   6  13
ATOM     13  N   LIG d   1      -4.890  76.496 117.397  0.00  0.00    -0.311 N 
ATOM     14  C   LIG d   1      -4.345  77.572 116.831  0.00  0.00     0.210 C 
ATOM     15  C   LIG d   1      -3.566  78.481 117.786  0.00  0.00     0.109 C 
ATOM     16  O   LIG d   1      -4.460  77.876 115.634  0.00  0.00    -0.276 OA
ATOM     17  H   LIG d   1      -4.773  76.344 118.380  0.00  0.00     0.149 HD
ENDBRANCH   6  13
BRANCH   5  18
ATOM     18  N   LIG d   1      -7.939  76.409 117.224  0.00  0.00     0.381 N 
ATOM     19  H   LIG d   1      -8.895  76.121 117.170  0.00  0.00    -0.090 HD
ATOM     20  H   LIG d   1      -7.724  76.945 116.401  0.00  0.00    -0.090 HD
ATOM     21  H   LIG d   1      -7.797  76.966 118.038  0.00  0.00    -0.090 HD
ENDBRANCH   5  18
BRANCH   3  22
ATOM     22  C   LIG d   1      -7.603  71.733 116.246  0.00  0.00     0.382 C 
ATOM     23  O   LIG d   1      -8.848  71.682 116.104  0.00  0.00    -0.241 OA
ATOM     24  O   LIG d   1      -6.953  70.675 116.350  0.00  0.00    -0.241 OA
ENDBRANCH   3  22
TORSDOF 7
ENDMDL
MODEL 3
REMARK VINA RESULT:      -5.4     11.600     13.694
REMARK  7 active torsions:
REMARK  status: ('A' for Active; 'I' for Inactive)
REMARK    1  A    between atoms: C_2  and  C_3 
REMARK    2  A    between atoms: C_3  and  O_6 
REMARK    3  A    between atoms: C_3  and  C_4 
REMARK    4  A    between atoms: C_7  and  O_6 
REMARK    5  A    between atoms: C_9  and  C_10 
REMARK    6  A    between atoms: N_15  and  C_14 
REMARK    7  A    between atoms: N_20  and  C_19 
REMARK       I    between atoms: C_22  and  N_20 
ROOT
ATOM      1  C   LIG d   1       1.961  84.531 113.511  0.00  0.00     0.161 C 
ATOM      2  C   LIG d   1       1.210  83.466 112.987  0.00  0.00     0.016 C 
ATOM      3  C   LIG d   1       0.596  83.498 111.713  0.00  0.00     0.038 C 
ATOM      4  C   LIG d   1       0.821  84.547 110.809  0.00  0.00     0.028 C 
ATOM      5  C   LIG d   1       1.159  85.870 111.488  0.00  0.00    -0.047 C 
ATOM      6  C   LIG d   1       2.309  85.638 112.495  0.00  0.00     0.091 C 
ENDROOT
BRANCH   1   7
ATOM      7  O   LIG d   1       3.159  84.025 114.131  0.00  0.00    -0.368 OA
BRANCH   7   8
ATOM      8  C   LIG d   1       3.098  83.820 115.564  0.00  0.00     0.119 C 
BRANCH   8   9
ATOM      9  C   LIG d   1       1.956  84.699 116.109  0.00  0.00     0.028 C 
ATOM     10  C   LIG d   1       1.456  84.225 117.484  0.00  0.00     0.006 C 
ENDBRANCH   8   9
BRANCH   8  11
ATOM     11  C   LIG d   1       4.366  84.328 116.255  0.00  0.00     0.028 C 
ATOM     12  C   LIG d   1       4.542  85.850 116.132  0.00  0.00     0.006 C 
ENDBRANCH   8  11
ENDBRANCH   7   8
ENDBRANCH   1   7
BRANCH   6  13
ATOM     13  N   LIG d   1       2.645  86.865 113.264  0.00  0.00    -0.311 N 
ATOM     14  C   LIG d   1       3.617  87.706 112.915  0.00  0.00     0.210 C 
ATOM     15  C   LIG d   1       3.811  88.898 113.857  0.00  0.00     0.109 C 
ATOM     16  O   LIG d   1       4.317  87.594 111.897  0.00  0.00    -0.276 OA
ATOM     17  H   LIG d   1       2.106  87.049 114.087  0.00  0.00     0.149 HD
ENDBRANCH   6  13
BRANCH   5  18
ATOM     18  N   LIG d   1       1.503  86.839 110.430  0.00  0.00     0.381 N 
ATOM     19  H   LIG d   1       2.377  86.588 110.012  0.00  0.00    -0.090 HD
ATOM     20  H   LIG d   1       1.601  87.750 110.843  0.00  0.00    -0.090 HD
ATOM     21  H   LIG d   1       0.787  86.855 109.737  0.00  0.00    -0.090 HD
ENDBRANCH   5  18
BRANCH   3  22
ATOM     22  C   LIG d   1      -0.284  82.491 111.349  0.00  0.00     0.382 C 
ATOM     23  O   LIG d   1      -1.390  82.383 111.933  0.00  0.00    -0.241 OA
ATOM     24  O   LIG d   1       0.031  81.663 110.474  0.00  0.00    -0.241 OA
ENDBRANCH   3  22
TORSDOF 7
ENDMDL
MODEL 4
REMARK VINA RESULT:      -5.3     13.960     16.989
REMARK  7 active torsions:
REMARK  status: ('A' for Active; 'I' for Inactive)
REMARK    1  A    between atoms: C_2  and  C_3 
REMARK    2  A    between atoms: C_3  and  O_6 
REMARK    3  A    between atoms: C_3  and  C_4 
REMARK    4  A    between atoms: C_7  and  O_6 
REMARK    5  A    between atoms: C_9  and  C_10 
REMARK    6  A    between atoms: N_15  and  C_14 
REMARK    7  A    between atoms: N_20  and  C_19 
REMARK       I    between atoms: C_22  and  N_20 
ROOT
ATOM      1  C   LIG d   1       3.038  88.243 115.098  0.00  0.00     0.161 C 
ATOM      2  C   LIG d   1       3.190  89.130 116.177  0.00  0.00     0.016 C 
ATOM      3  C   LIG d   1       4.245  90.066 116.271  0.00  0.00     0.038 C 
ATOM      4  C   LIG d   1       5.139  90.285 115.213  0.00  0.00     0.028 C 
ATOM      5  C   LIG d   1       5.328  89.065 114.318  0.00  0.00    -0.047 C 
ATOM      6  C   LIG d   1       3.940  88.542 113.882  0.00  0.00     0.091 C 
ENDROOT
BRANCH   1   7
ATOM      7  O   LIG d   1       1.655  88.195 114.696  0.00  0.00    -0.368 OA
BRANCH   7   8
ATOM      8  C   LIG d   1       0.916  87.013 115.090  0.00  0.00     0.119 C 
BRANCH   8   9
ATOM      9  C   LIG d   1       0.037  87.398 116.296  0.00  0.00     0.028 C 
ATOM     10  C   LIG d   1       0.516  86.746 117.604  0.00  0.00     0.006 C 
ENDBRANCH   8   9
BRANCH   8  11
ATOM     11  C   LIG d   1       1.853  85.917 115.605  0.00  0.00     0.028 C 
ATOM     12  C   LIG d   1       1.911  84.696 114.674  0.00  0.00     0.006 C 
ENDBRANCH   8  11
ENDBRANCH   7   8
ENDBRANCH   1   7
BRANCH   6  13
ATOM     13  N   LIG d   1       4.031  87.300 113.072  0.00  0.00    -0.311 N 
ATOM     14  C   LIG d   1       3.243  87.046 112.029  0.00  0.00     0.210 C 
ATOM     15  C   LIG d   1       3.490  85.697 111.345  0.00  0.00     0.109 C 
ATOM     16  O   LIG d   1       2.385  87.823 111.584  0.00  0.00    -0.276 OA
ATOM     17  H   LIG d   1       4.721  86.627 113.344  0.00  0.00     0.149 HD
ENDBRANCH   6  13
BRANCH   5  18
ATOM     18  N   LIG d   1       6.175  89.473 113.181  0.00  0.00     0.381 N 
ATOM     19  H   LIG d   1       5.670  89.360 112.325  0.00  0.00    -0.090 HD
ATOM     20  H   LIG d   1       6.985  88.879 113.150  0.00  0.00    -0.090 HD
ATOM     21  H   LIG d   1       6.454  90.423 113.288  0.00  0.00    -0.090 HD
ENDBRANCH   5  18
BRANCH   3  22
ATOM     22  C   LIG d   1       4.436  90.769 117.451  0.00  0.00     0.382 C 
ATOM     23  O   LIG d   1       5.543  91.311 117.686  0.00  0.00    -0.241 OA
ATOM     24  O   LIG d   1       3.530  90.830 118.304  0.00  0.00    -0.241 OA
ENDBRANCH   3  22
TORSDOF 7
ENDMDL
MODEL 5
REMARK VINA RESULT:      -5.2     14.828     16.750
REMARK  7 active torsions:
REMARK  status: ('A' for Active; 'I' for Inactive)
REMARK    1  A    between atoms: C_2  and  C_3 
REMARK    2  A    between atoms: C_3  and  O_6 
REMARK    3  A    between atoms: C_3  and  C_4 
REMARK    4  A    between atoms: C_7  and  O_6 
REMARK    5  A    between atoms: C_9  and  C_10 
REMARK    6  A    between atoms: N_15  and  C_14 
REMARK    7  A    between atoms: N_20  and  C_19 
REMARK       I    between atoms: C_22  and  N_20 
ROOT
ATOM      1  C   LIG d   1       2.775  88.662 114.946  0.00  0.00     0.161 C 
ATOM      2  C   LIG d   1       2.592  87.684 113.955  0.00  0.00     0.016 C 
ATOM      3  C   LIG d   1       3.514  87.454 112.908  0.00  0.00     0.038 C 
ATOM      4  C   LIG d   1       4.764  88.090 112.868  0.00  0.00     0.028 C 
ATOM      5  C   LIG d   1       4.775  89.448 113.563  0.00  0.00    -0.047 C 
ATOM      6  C   LIG d   1       4.185  89.290 114.983  0.00  0.00     0.091 C 
ENDROOT
BRANCH   1   7
ATOM      7  O   LIG d   1       2.435  88.119 116.237  0.00  0.00    -0.368 OA
BRANCH   7   8
ATOM      8  C   LIG d   1       1.261  88.680 116.875  0.00  0.00     0.119 C 
BRANCH   8   9
ATOM      9  C   LIG d   1       0.152  87.612 116.824  0.00  0.00     0.028 C 
ATOM     10  C   LIG d   1      -1.212  88.159 117.280  0.00  0.00     0.006 C 
ENDBRANCH   8   9
BRANCH   8  11
ATOM     11  C   LIG d   1       0.712  89.872 116.083  0.00  0.00     0.028 C 
ATOM     12  C   LIG d   1       0.720  91.178 116.892  0.00  0.00     0.006 C 
ENDBRANCH   8  11
ENDBRANCH   7   8
ENDBRANCH   1   7
BRANCH   6  13
ATOM     13  N   LIG d   1       4.081  90.586 115.701  0.00  0.00    -0.311 N 
ATOM     14  C   LIG d   1       4.477  90.760 116.961  0.00  0.00     0.210 C 
ATOM     15  C   LIG d   1       4.263  92.172 117.517  0.00  0.00     0.109 C 
ATOM     16  O   LIG d   1       5.016  89.889 117.659  0.00  0.00    -0.276 OA
ATOM     17  H   LIG d   1       3.684  91.356 115.198  0.00  0.00     0.149 HD
ENDBRANCH   6  13
BRANCH   5  18
ATOM     18  N   LIG d   1       6.167  89.935 113.567  0.00  0.00     0.381 N 
ATOM     19  H   LIG d   1       6.177  90.933 113.639  0.00  0.00    -0.090 HD
ATOM     20  H   LIG d   1       6.605  89.677 112.700  0.00  0.00    -0.090 HD
ATOM     21  H   LIG d   1       6.666  89.535 114.331  0.00  0.00    -0.090 HD
ENDBRANCH   5  18
BRANCH   3  22
ATOM     22  C   LIG d   1       3.172  86.608 111.864  0.00  0.00     0.382 C 
ATOM     23  O   LIG d   1       3.759  85.507 111.732  0.00  0.00    -0.241 OA
ATOM     24  O   LIG d   1       2.317  86.952 111.027  0.00  0.00    -0.241 OA
ENDBRANCH   3  22
TORSDOF 7
ENDMDL
MODEL 6
REMARK VINA RESULT:      -5.2     14.389     16.618
REMARK  7 active torsions:
REMARK  status: ('A' for Active; 'I' for Inactive)
REMARK    1  A    between atoms: C_2  and  C_3 
REMARK    2  A    between atoms: C_3  and  O_6 
REMARK    3  A    between atoms: C_3  and  C_4 
REMARK    4  A    between atoms: C_7  and  O_6 
REMARK    5  A    between atoms: C_9  and  C_10 
REMARK    6  A    between atoms: N_15  and  C_14 
REMARK    7  A    between atoms: N_20  and  C_19 
REMARK       I    between atoms: C_22  and  N_20 
ROOT
ATOM      1  C   LIG d   1       2.617  88.579 114.733  0.00  0.00     0.161 C 
ATOM      2  C   LIG d   1       2.549  87.547 113.783  0.00  0.00     0.016 C 
ATOM      3  C   LIG d   1       3.561  87.301 112.827  0.00  0.00     0.038 C 
ATOM      4  C   LIG d   1       4.788  87.981 112.854  0.00  0.00     0.028 C 
ATOM      5  C   LIG d   1       4.697  89.370 113.476  0.00  0.00    -0.047 C 
ATOM      6  C   LIG d   1       3.997  89.260 114.850  0.00  0.00     0.091 C 
ENDROOT
BRANCH   1   7
ATOM      7  O   LIG d   1       2.190  88.088 116.019  0.00  0.00    -0.368 OA
BRANCH   7   8
ATOM      8  C   LIG d   1       0.800  88.314 116.358  0.00  0.00     0.119 C 
BRANCH   8   9
ATOM      9  C   LIG d   1       0.738  89.571 117.247  0.00  0.00     0.028 C 
ATOM     10  C   LIG d   1       0.241  90.808 116.481  0.00  0.00     0.006 C 
ENDBRANCH   8   9
BRANCH   8  11
ATOM     11  C   LIG d   1       0.245  87.178 117.223  0.00  0.00     0.028 C 
ATOM     12  C   LIG d   1       1.220  85.997 117.351  0.00  0.00     0.006 C 
ENDBRANCH   8  11
ENDBRANCH   7   8
ENDBRANCH   1   7
BRANCH   6  13
ATOM     13  N   LIG d   1       3.792  90.586 115.490  0.00  0.00    -0.311 N 
ATOM     14  C   LIG d   1       4.225  90.885 116.713  0.00  0.00     0.210 C 
ATOM     15  C   LIG d   1       3.890  92.302 117.189  0.00  0.00     0.109 C 
ATOM     16  O   LIG d   1       4.883  90.122 117.436  0.00  0.00    -0.276 OA
ATOM     17  H   LIG d   1       3.294  91.275 114.961  0.00  0.00     0.149 HD
ENDBRANCH   6  13
BRANCH   5  18
ATOM     18  N   LIG d   1       6.067  89.909 113.567  0.00  0.00     0.381 N 
ATOM     19  H   LIG d   1       6.577  89.420 114.275  0.00  0.00    -0.090 HD
ATOM     20  H   LIG d   1       6.019  90.879 113.825  0.00  0.00    -0.090 HD
ATOM     21  H   LIG d   1       6.529  89.814 112.689  0.00  0.00    -0.090 HD
ENDBRANCH   5  18
BRANCH   3  22
ATOM     22  C   LIG d   1       3.334  86.392 111.804  0.00  0.00     0.382 C 
ATOM     23  O   LIG d   1       2.556  86.687 110.865  0.00  0.00    -0.241 OA
ATOM     24  O   LIG d   1       3.863  85.265 111.832  0.00  0.00    -0.241 OA
ENDBRANCH   3  22
TORSDOF 7
ENDMDL
MODEL 7
REMARK VINA RESULT:      -5.2     10.568     14.073
REMARK  7 active torsions:
REMARK  status: ('A' for Active; 'I' for Inactive)
REMARK    1  A    between atoms: C_2  and  C_3 
REMARK    2  A    between atoms: C_3  and  O_6 
REMARK    3  A    between atoms: C_3  and  C_4 
REMARK    4  A    between atoms: C_7  and  O_6 
REMARK    5  A    between atoms: C_9  and  C_10 
REMARK    6  A    between atoms: N_15  and  C_14 
REMARK    7  A    between atoms: N_20  and  C_19 
REMARK       I    between atoms: C_22  and  N_20 
ROOT
ATOM      1  C   LIG d   1       2.519  84.075 113.114  0.00  0.00     0.161 C 
ATOM      2  C   LIG d   1       3.049  85.374 113.177  0.00  0.00     0.016 C 
ATOM      3  C   LIG d   1       2.599  86.439 112.363  0.00  0.00     0.038 C 
ATOM      4  C   LIG d   1       1.477  86.312 111.531  0.00  0.00     0.028 C 
ATOM      5  C   LIG d   1       1.228  84.883 111.062  0.00  0.00    -0.047 C 
ATOM      6  C   LIG d   1       1.219  83.946 112.292  0.00  0.00     0.091 C 
ENDROOT
BRANCH   1   7
ATOM      7  O   LIG d   1       2.321  83.563 114.447  0.00  0.00    -0.368 OA
BRANCH   7   8
ATOM      8  C   LIG d   1       2.724  84.436 115.531  0.00  0.00     0.119 C 
BRANCH   8   9
ATOM      9  C   LIG d   1       3.664  83.631 116.449  0.00  0.00     0.028 C 
ATOM     10  C   LIG d   1       4.996  84.355 116.706  0.00  0.00     0.006 C 
ENDBRANCH   8   9
BRANCH   8  11
ATOM     11  C   LIG d   1       1.530  84.821 116.410  0.00  0.00     0.028 C 
ATOM     12  C   LIG d   1       1.177  86.313 116.316  0.00  0.00     0.006 C 
ENDBRANCH   8  11
ENDBRANCH   7   8
ENDBRANCH   1   7
BRANCH   6  13
ATOM     13  N   LIG d   1       1.066  82.517 111.915  0.00  0.00    -0.311 N 
ATOM     14  C   LIG d   1      -0.116  81.923 111.757  0.00  0.00     0.210 C 
ATOM     15  C   LIG d   1      -0.049  80.438 111.386  0.00  0.00     0.109 C 
ATOM     16  O   LIG d   1      -1.213  82.494 111.856  0.00  0.00    -0.276 OA
ATOM     17  H   LIG d   1       1.905  81.987 111.784  0.00  0.00     0.149 HD
ENDBRANCH   6  13
BRANCH   5  18
ATOM     18  N   LIG d   1      -0.046  84.872 110.319  0.00  0.00     0.381 N 
ATOM     19  H   LIG d   1       0.121  85.089 109.357  0.00  0.00    -0.090 HD
ATOM     20  H   LIG d   1      -0.651  85.579 110.700  0.00  0.00    -0.090 HD
ATOM     21  H   LIG d   1      -0.479  83.978 110.396  0.00  0.00    -0.090 HD
ENDBRANCH   5  18
BRANCH   3  22
ATOM     22  C   LIG d   1       3.300  87.635 112.346  0.00  0.00     0.382 C 
ATOM     23  O   LIG d   1       4.495  87.657 111.965  0.00  0.00    -0.241 OA
ATOM     24  O   LIG d   1       2.765  88.686 112.750  0.00  0.00    -0.241 OA
ENDBRANCH   3  22
TORSDOF 7
ENDMDL
MODEL 8
REMARK VINA RESULT:      -5.2      3.201      5.644
REMARK  7 active torsions:
REMARK  status: ('A' for Active; 'I' for Inactive)
REMARK    1  A    between atoms: C_2  and  C_3 
REMARK    2  A    between atoms: C_3  and  O_6 
REMARK    3  A    between atoms: C_3  and  C_4 
REMARK    4  A    between atoms: C_7  and  O_6 
REMARK    5  A    between atoms: C_9  and  C_10 
REMARK    6  A    between atoms: N_15  and  C_14 
REMARK    7  A    between atoms: N_20  and  C_19 
REMARK       I    between atoms: C_22  and  N_20 
ROOT
ATOM      1  C   LIG d   1      -2.900  74.776 115.861  0.00  0.00     0.161 C 
ATOM      2  C   LIG d   1      -2.189  73.827 116.615  0.00  0.00     0.016 C 
ATOM      3  C   LIG d   1      -0.879  74.043 117.101  0.00  0.00     0.038 C 
ATOM      4  C   LIG d   1      -0.245  75.290 116.995  0.00  0.00     0.028 C 
ATOM      5  C   LIG d   1      -0.724  76.113 115.804  0.00  0.00    -0.047 C 
ATOM      6  C   LIG d   1      -2.268  76.183 115.830  0.00  0.00     0.091 C 
ENDROOT
BRANCH   1   7
ATOM      7  O   LIG d   1      -4.262  74.849 116.327  0.00  0.00    -0.368 OA
BRANCH   7   8
ATOM      8  C   LIG d   1      -5.194  73.920 115.721  0.00  0.00     0.119 C 
BRANCH   8   9
ATOM      9  C   LIG d   1      -5.922  74.669 114.587  0.00  0.00     0.028 C 
ATOM     10  C   LIG d   1      -6.435  76.049 115.031  0.00  0.00     0.006 C 
ENDBRANCH   8   9
BRANCH   8  11
ATOM     11  C   LIG d   1      -6.292  73.509 116.706  0.00  0.00     0.028 C 
ATOM     12  C   LIG d   1      -7.166  72.360 116.179  0.00  0.00     0.006 C 
ENDBRANCH   8  11
ENDBRANCH   7   8
ENDBRANCH   1   7
BRANCH   6  13
ATOM     13  N   LIG d   1      -2.823  76.899 114.652  0.00  0.00    -0.311 N 
ATOM     14  C   LIG d   1      -2.296  76.821 113.431  0.00  0.00     0.210 C 
ATOM     15  C   LIG d   1      -3.012  77.655 112.364  0.00  0.00     0.109 C 
ATOM     16  O   LIG d   1      -1.323  76.116 113.124  0.00  0.00    -0.276 OA
ATOM     17  H   LIG d   1      -3.631  77.470 114.805  0.00  0.00     0.149 HD
ENDBRANCH   6  13
BRANCH   5  18
ATOM     18  N   LIG d   1      -0.084  77.439 115.892  0.00  0.00     0.381 N 
ATOM     19  H   LIG d   1       0.246  77.718 114.989  0.00  0.00    -0.090 HD
ATOM     20  H   LIG d   1       0.706  77.379 116.511  0.00  0.00    -0.090 HD
ATOM     21  H   LIG d   1      -0.735  78.110 116.237  0.00  0.00    -0.090 HD
ENDBRANCH   5  18
BRANCH   3  22
ATOM     22  C   LIG d   1      -0.174  72.992 117.668  0.00  0.00     0.382 C 
ATOM     23  O   LIG d   1       0.975  73.186 118.131  0.00  0.00    -0.241 OA
ATOM     24  O   LIG d   1      -0.656  71.844 117.681  0.00  0.00    -0.241 OA
ENDBRANCH   3  22
TORSDOF 7
ENDMDL
MODEL 9
REMARK VINA RESULT:      -5.1     11.675     14.720
REMARK  7 active torsions:
REMARK  status: ('A' for Active; 'I' for Inactive)
REMARK    1  A    between atoms: C_2  and  C_3 
REMARK    2  A    between atoms: C_3  and  O_6 
REMARK    3  A    between atoms: C_3  and  C_4 
REMARK    4  A    between atoms: C_7  and  O_6 
REMARK    5  A    between atoms: C_9  and  C_10 
REMARK    6  A    between atoms: N_15  and  C_14 
REMARK    7  A    between atoms: N_20  and  C_19 
REMARK       I    between atoms: C_22  and  N_20 
ROOT
ATOM      1  C   LIG d   1     -15.959  65.969 113.952  0.00  0.00     0.161 C 
ATOM      2  C   LIG d   1     -15.642  66.695 112.792  0.00  0.00     0.016 C 
ATOM      3  C   LIG d   1     -14.740  67.784 112.778  0.00  0.00     0.038 C 
ATOM      4  C   LIG d   1     -13.973  68.126 113.901  0.00  0.00     0.028 C 
ATOM      5  C   LIG d   1     -14.631  67.744 115.223  0.00  0.00    -0.047 C 
ATOM      6  C   LIG d   1     -15.049  66.257 115.164  0.00  0.00     0.091 C 
ENDROOT
BRANCH   1   7
ATOM      7  O   LIG d   1     -15.970  64.558 113.657  0.00  0.00    -0.368 OA
BRANCH   7   8
ATOM      8  C   LIG d   1     -17.271  63.920 113.641  0.00  0.00     0.119 C 
BRANCH   8   9
ATOM      9  C   LIG d   1     -18.275  64.900 114.279  0.00  0.00     0.028 C 
ATOM     10  C   LIG d   1     -19.544  65.076 113.429  0.00  0.00     0.006 C 
ENDBRANCH   8   9
BRANCH   8  11
ATOM     11  C   LIG d   1     -17.293  62.677 114.536  0.00  0.00     0.028 C 
ATOM     12  C   LIG d   1     -18.415  61.696 114.163  0.00  0.00     0.006 C 
ENDBRANCH   8  11
ENDBRANCH   7   8
ENDBRANCH   1   7
BRANCH   6  13
ATOM     13  N   LIG d   1     -15.776  65.824 116.386  0.00  0.00    -0.311 N 
ATOM     14  C   LIG d   1     -15.445  64.744 117.092  0.00  0.00     0.210 C 
ATOM     15  C   LIG d   1     -16.338  64.466 118.305  0.00  0.00     0.109 C 
ATOM     16  O   LIG d   1     -14.477  64.009 116.847  0.00  0.00    -0.276 OA
ATOM     17  H   LIG d   1     -16.556  66.381 116.674  0.00  0.00     0.149 HD
ENDBRANCH   6  13
BRANCH   5  18
ATOM     18  N   LIG d   1     -13.666  68.032 116.301  0.00  0.00     0.381 N 
ATOM     19  H   LIG d   1     -13.757  68.985 116.592  0.00  0.00    -0.090 HD
ATOM     20  H   LIG d   1     -12.735  67.897 115.948  0.00  0.00    -0.090 HD
ATOM     21  H   LIG d   1     -13.827  67.424 117.074  0.00  0.00    -0.090 HD
ENDBRANCH   5  18
BRANCH   3  22
ATOM     22  C   LIG d   1     -14.627  68.568 111.640  0.00  0.00     0.382 C 
ATOM     23  O   LIG d   1     -15.085  69.736 111.636  0.00  0.00    -0.241 OA
ATOM     24  O   LIG d   1     -14.114  68.107 110.603  0.00  0.00    -0.241 OA
ENDBRANCH   3  22
TORSDOF 7
ENDMDL
