MODEL 1
REMARK VINA RESULT:      -5.9      0.000      0.000
REMARK  7 active torsions:
REMARK  status: ('A' for Active; 'I' for Inactive)
REMARK    1  A    between atoms: C_2  and  C_3 
REMARK    2  A    between atoms: C_3  and  O_6 
REMARK    3  A    between atoms: C_3  and  C_4 
REMARK    4  A    between atoms: C_7  and  O_6 
REMARK    5  A    between atoms: C_9  and  C_10 
REMARK    6  A    between atoms: N_15  and  C_14 
REMARK    7  A    between atoms: N_20  and  C_19 
REMARK       I    between atoms: C_22  and  N_20 
ROOT
ATOM      1  C   LIG d   1      -0.112  84.714 113.231  0.00  0.00     0.161 C 
ATOM      2  C   LIG d   1       0.627  85.767 112.667  0.00  0.00     0.016 C 
ATOM      3  C   LIG d   1       1.112  85.753 111.339  0.00  0.00     0.038 C 
ATOM      4  C   LIG d   1       0.760  84.743 110.432  0.00  0.00     0.028 C 
ATOM      5  C   LIG d   1       0.437  83.412 111.102  0.00  0.00    -0.047 C 
ATOM      6  C   LIG d   1      -0.601  83.653 112.222  0.00  0.00     0.091 C 
ENDROOT
BRANCH   1   7
ATOM      7  O   LIG d   1      -1.225  85.243 113.979  0.00  0.00    -0.368 OA
BRANCH   7   8
ATOM      8  C   LIG d   1      -1.176  85.052 115.415  0.00  0.00     0.119 C 
BRANCH   8   9
ATOM      9  C   LIG d   1      -2.234  83.993 115.777  0.00  0.00     0.028 C 
ATOM     10  C   LIG d   1      -1.809  83.124 116.973  0.00  0.00     0.006 C 
ENDBRANCH   8   9
BRANCH   8  11
ATOM     11  C   LIG d   1      -1.600  86.321 116.160  0.00  0.00     0.028 C 
ATOM     12  C   LIG d   1      -0.473  86.910 117.023  0.00  0.00     0.006 C 
ENDBRANCH   8  11
ENDBRANCH   7   8
ENDBRANCH   1   7
BRANCH   6  13
ATOM     13  N   LIG d   1      -0.910  82.416 112.984  0.00  0.00    -0.311 N 
ATOM     14  C   LIG d   1      -2.109  81.835 112.984  0.00  0.00     0.210 C 
ATOM     15  C   LIG d   1      -2.218  80.579 113.854  0.00  0.00     0.109 C 
ATOM     16  O   LIG d   1      -3.083  82.223 112.322  0.00  0.00    -0.276 OA
ATOM     17  H   LIG d   1      -0.168  82.016 113.525  0.00  0.00     0.149 HD
ENDBRANCH   6  13
BRANCH   5  18
ATOM     18  N   LIG d   1      -0.046  82.492 110.055  0.00  0.00     0.381 N 
ATOM     19  H   LIG d   1      -0.753  81.892 110.431  0.00  0.00    -0.090 HD
ATOM     20  H   LIG d   1       0.720  81.920 109.746  0.00  0.00    -0.090 HD
ATOM     21  H   LIG d   1      -0.413  83.010 109.288  0.00  0.00    -0.090 HD
ENDBRANCH   5  18
BRANCH   3  22
ATOM     22  C   LIG d   1       1.993  86.738 110.920  0.00  0.00     0.382 C 
ATOM     23  O   LIG d   1       1.757  87.943 111.179  0.00  0.00    -0.241 OA
ATOM     24  O   LIG d   1       2.998  86.441 110.246  0.00  0.00    -0.241 OA
ENDBRANCH   3  22
TORSDOF 7
ENDMDL
MODEL 2
REMARK VINA RESULT:      -5.4      2.547      4.600
REMARK  7 active torsions:
REMARK  status: ('A' for Active; 'I' for Inactive)
REMARK    1  A    between atoms: C_2  and  C_3 
REMARK    2  A    between atoms: C_3  and  O_6 
REMARK    3  A    between atoms: C_3  and  C_4 
REMARK    4  A    between atoms: C_7  and  O_6 
REMARK    5  A    between atoms: C_9  and  C_10 
REMARK    6  A    between atoms: N_15  and  C_14 
REMARK    7  A    between atoms: N_20  and  C_19 
REMARK       I    between atoms: C_22  and  N_20 
ROOT
ATOM      1  C   LIG d   1       1.112  83.403 110.870  0.00  0.00     0.161 C 
ATOM      2  C   LIG d   1       1.982  84.488 110.670  0.00  0.00     0.016 C 
ATOM      3  C   LIG d   1       1.948  85.666 111.452  0.00  0.00     0.038 C 
ATOM      4  C   LIG d   1       1.137  85.777 112.591  0.00  0.00     0.028 C 
ATOM      5  C   LIG d   1      -0.115  84.909 112.529  0.00  0.00    -0.047 C 
ATOM      6  C   LIG d   1       0.295  83.461 112.178  0.00  0.00     0.091 C 
ENDROOT
BRANCH   1   7
ATOM      7  O   LIG d   1       1.848  82.166 110.793  0.00  0.00    -0.368 OA
BRANCH   7   8
ATOM      8  C   LIG d   1       3.266  82.250 111.077  0.00  0.00     0.119 C 
BRANCH   8   9
ATOM      9  C   LIG d   1       3.996  81.356 110.056  0.00  0.00     0.028 C 
ATOM     10  C   LIG d   1       3.879  79.860 110.395  0.00  0.00     0.006 C 
ENDBRANCH   8   9
BRANCH   8  11
ATOM     11  C   LIG d   1       3.597  81.652 112.448  0.00  0.00     0.028 C 
ATOM     12  C   LIG d   1       3.892  82.724 113.509  0.00  0.00     0.006 C 
ENDBRANCH   8  11
ENDBRANCH   7   8
ENDBRANCH   1   7
BRANCH   6  13
ATOM     13  N   LIG d   1      -0.879  82.563 112.015  0.00  0.00    -0.311 N 
ATOM     14  C   LIG d   1      -1.384  81.830 113.006  0.00  0.00     0.210 C 
ATOM     15  C   LIG d   1      -2.582  80.958 112.619  0.00  0.00     0.109 C 
ATOM     16  O   LIG d   1      -0.973  81.844 114.176  0.00  0.00    -0.276 OA
ATOM     17  H   LIG d   1      -1.294  82.515 111.105  0.00  0.00     0.149 HD
ENDBRANCH   6  13
BRANCH   5  18
ATOM     18  N   LIG d   1      -0.796  85.017 113.834  0.00  0.00     0.381 N 
ATOM     19  H   LIG d   1      -0.609  85.911 114.241  0.00  0.00    -0.090 HD
ATOM     20  H   LIG d   1      -0.435  84.309 114.448  0.00  0.00    -0.090 HD
ATOM     21  H   LIG d   1      -1.778  84.896 113.717  0.00  0.00    -0.090 HD
ENDBRANCH   5  18
BRANCH   3  22
ATOM     22  C   LIG d   1       2.705  86.764 111.072  0.00  0.00     0.382 C 
ATOM     23  O   LIG d   1       3.903  86.612 110.731  0.00  0.00    -0.241 OA
ATOM     24  O   LIG d   1       2.218  87.910 111.108  0.00  0.00    -0.241 OA
ENDBRANCH   3  22
TORSDOF 7
ENDMDL
MODEL 3
REMARK VINA RESULT:      -5.3      2.850      5.564
REMARK  7 active torsions:
REMARK  status: ('A' for Active; 'I' for Inactive)
REMARK    1  A    between atoms: C_2  and  C_3 
REMARK    2  A    between atoms: C_3  and  O_6 
REMARK    3  A    between atoms: C_3  and  C_4 
REMARK    4  A    between atoms: C_7  and  O_6 
REMARK    5  A    between atoms: C_9  and  C_10 
REMARK    6  A    between atoms: N_15  and  C_14 
REMARK    7  A    between atoms: N_20  and  C_19 
REMARK       I    between atoms: C_22  and  N_20 
ROOT
ATOM      1  C   LIG d   1       0.437  83.512 112.049  0.00  0.00     0.161 C 
ATOM      2  C   LIG d   1      -0.829  83.115 112.513  0.00  0.00     0.016 C 
ATOM      3  C   LIG d   1      -1.329  81.800 112.379  0.00  0.00     0.038 C 
ATOM      4  C   LIG d   1      -0.532  80.748 111.904  0.00  0.00     0.028 C 
ATOM      5  C   LIG d   1       0.574  81.205 110.959  0.00  0.00    -0.047 C 
ATOM      6  C   LIG d   1       1.364  82.353 111.629  0.00  0.00     0.091 C 
ENDROOT
BRANCH   1   7
ATOM      7  O   LIG d   1       1.083  84.337 113.039  0.00  0.00    -0.368 OA
BRANCH   7   8
ATOM      8  C   LIG d   1       1.164  85.751 112.735  0.00  0.00     0.119 C 
BRANCH   8   9
ATOM      9  C   LIG d   1       0.652  85.946 111.295  0.00  0.00     0.028 C 
ATOM     10  C   LIG d   1       1.670  86.676 110.404  0.00  0.00     0.006 C 
ENDBRANCH   8   9
BRANCH   8  11
ATOM     11  C   LIG d   1       2.616  86.236 112.718  0.00  0.00     0.028 C 
ATOM     12  C   LIG d   1       3.405  85.798 113.962  0.00  0.00     0.006 C 
ENDBRANCH   8  11
ENDBRANCH   7   8
ENDBRANCH   1   7
BRANCH   6  13
ATOM     13  N   LIG d   1       2.412  82.915 110.738  0.00  0.00    -0.311 N 
ATOM     14  C   LIG d   1       3.669  83.124 111.125  0.00  0.00     0.210 C 
ATOM     15  C   LIG d   1       4.583  83.730 110.056  0.00  0.00     0.109 C 
ATOM     16  O   LIG d   1       4.122  82.835 112.243  0.00  0.00    -0.276 OA
ATOM     17  H   LIG d   1       2.139  83.149 109.804  0.00  0.00     0.149 HD
ENDBRANCH   6  13
BRANCH   5  18
ATOM     18  N   LIG d   1       1.411  80.030 110.651  0.00  0.00     0.381 N 
ATOM     19  H   LIG d   1       1.676  80.046 109.687  0.00  0.00    -0.090 HD
ATOM     20  H   LIG d   1       0.875  79.196 110.817  0.00  0.00    -0.090 HD
ATOM     21  H   LIG d   1       2.225  80.030 111.226  0.00  0.00    -0.090 HD
ENDBRANCH   5  18
BRANCH   3  22
ATOM     22  C   LIG d   1      -2.655  81.535 112.685  0.00  0.00     0.382 C 
ATOM     23  O   LIG d   1      -3.431  82.476 112.980  0.00  0.00    -0.241 OA
ATOM     24  O   LIG d   1      -3.075  80.362 112.714  0.00  0.00    -0.241 OA
ENDBRANCH   3  22
TORSDOF 7
ENDMDL
MODEL 4
REMARK VINA RESULT:      -5.1      2.667      5.744
REMARK  7 active torsions:
REMARK  status: ('A' for Active; 'I' for Inactive)
REMARK    1  A    between atoms: C_2  and  C_3 
REMARK    2  A    between atoms: C_3  and  O_6 
REMARK    3  A    between atoms: C_3  and  C_4 
REMARK    4  A    between atoms: C_7  and  O_6 
REMARK    5  A    between atoms: C_9  and  C_10 
REMARK    6  A    between atoms: N_15  and  C_14 
REMARK    7  A    between atoms: N_20  and  C_19 
REMARK       I    between atoms: C_22  and  N_20 
ROOT
ATOM      1  C   LIG d   1      -0.768  82.033 111.848  0.00  0.00     0.161 C 
ATOM      2  C   LIG d   1      -1.863  82.312 112.682  0.00  0.00     0.016 C 
ATOM      3  C   LIG d   1      -1.845  82.113 114.082  0.00  0.00     0.038 C 
ATOM      4  C   LIG d   1      -0.672  81.762 114.766  0.00  0.00     0.028 C 
ATOM      5  C   LIG d   1       0.320  80.984 113.908  0.00  0.00    -0.047 C 
ATOM      6  C   LIG d   1       0.556  81.756 112.589  0.00  0.00     0.091 C 
ENDROOT
BRANCH   1   7
ATOM      7  O   LIG d   1      -0.595  83.102 110.896  0.00  0.00    -0.368 OA
BRANCH   7   8
ATOM      8  C   LIG d   1       0.353  84.135 111.263  0.00  0.00     0.119 C 
BRANCH   8   9
ATOM      9  C   LIG d   1      -0.455  85.375 111.690  0.00  0.00     0.028 C 
ATOM     10  C   LIG d   1      -0.381  85.631 113.205  0.00  0.00     0.006 C 
ENDBRANCH   8   9
BRANCH   8  11
ATOM     11  C   LIG d   1       1.180  84.586 110.055  0.00  0.00     0.028 C 
ATOM     12  C   LIG d   1       1.459  86.097 110.055  0.00  0.00     0.006 C 
ENDBRANCH   8  11
ENDBRANCH   7   8
ENDBRANCH   1   7
BRANCH   6  13
ATOM     13  N   LIG d   1       1.450  81.023 111.655  0.00  0.00    -0.311 N 
ATOM     14  C   LIG d   1       2.752  81.275 111.537  0.00  0.00     0.210 C 
ATOM     15  C   LIG d   1       3.485  80.417 110.501  0.00  0.00     0.109 C 
ATOM     16  O   LIG d   1       3.376  82.106 112.214  0.00  0.00    -0.276 OA
ATOM     17  H   LIG d   1       1.032  80.310 111.090  0.00  0.00     0.149 HD
ENDBRANCH   6  13
BRANCH   5  18
ATOM     18  N   LIG d   1       1.551  80.805 114.701  0.00  0.00     0.381 N 
ATOM     19  H   LIG d   1       1.343  80.302 115.540  0.00  0.00    -0.090 HD
ATOM     20  H   LIG d   1       1.908  81.709 114.955  0.00  0.00    -0.090 HD
ATOM     21  H   LIG d   1       2.231  80.309 114.168  0.00  0.00    -0.090 HD
ENDBRANCH   5  18
BRANCH   3  22
ATOM     22  C   LIG d   1      -3.022  82.226 114.807  0.00  0.00     0.382 C 
ATOM     23  O   LIG d   1      -3.519  81.214 115.358  0.00  0.00    -0.241 OA
ATOM     24  O   LIG d   1      -3.615  83.318 114.881  0.00  0.00    -0.241 OA
ENDBRANCH   3  22
TORSDOF 7
ENDMDL
MODEL 5
REMARK VINA RESULT:      -5.0      4.082      5.904
REMARK  7 active torsions:
REMARK  status: ('A' for Active; 'I' for Inactive)
REMARK    1  A    between atoms: C_2  and  C_3 
REMARK    2  A    between atoms: C_3  and  O_6 
REMARK    3  A    between atoms: C_3  and  C_4 
REMARK    4  A    between atoms: C_7  and  O_6 
REMARK    5  A    between atoms: C_9  and  C_10 
REMARK    6  A    between atoms: N_15  and  C_14 
REMARK    7  A    between atoms: N_20  and  C_19 
REMARK       I    between atoms: C_22  and  N_20 
ROOT
ATOM      1  C   LIG d   1       3.447  85.579 112.201  0.00  0.00     0.161 C 
ATOM      2  C   LIG d   1       3.949  86.889 112.115  0.00  0.00     0.016 C 
ATOM      3  C   LIG d   1       4.400  87.624 113.235  0.00  0.00     0.038 C 
ATOM      4  C   LIG d   1       4.522  87.040 114.505  0.00  0.00     0.028 C 
ATOM      5  C   LIG d   1       3.555  85.884 114.735  0.00  0.00    -0.047 C 
ATOM      6  C   LIG d   1       3.676  84.887 113.560  0.00  0.00     0.091 C 
ENDROOT
BRANCH   1   7
ATOM      7  O   LIG d   1       3.989  84.778 111.132  0.00  0.00    -0.368 OA
BRANCH   7   8
ATOM      8  C   LIG d   1       3.052  84.363 110.108  0.00  0.00     0.119 C 
BRANCH   8   9
ATOM      9  C   LIG d   1       1.658  84.876 110.521  0.00  0.00     0.028 C 
ATOM     10  C   LIG d   1       0.584  83.778 110.448  0.00  0.00     0.006 C 
ENDBRANCH   8   9
BRANCH   8  11
ATOM     11  C   LIG d   1       2.923  82.838 110.055  0.00  0.00     0.028 C 
ATOM     12  C   LIG d   1       4.107  82.117 110.718  0.00  0.00     0.006 C 
ENDBRANCH   8  11
ENDBRANCH   7   8
ENDBRANCH   1   7
BRANCH   6  13
ATOM     13  N   LIG d   1       2.704  83.767 113.664  0.00  0.00    -0.311 N 
ATOM     14  C   LIG d   1       3.017  82.567 114.150  0.00  0.00     0.210 C 
ATOM     15  C   LIG d   1       1.871  81.551 114.149  0.00  0.00     0.109 C 
ATOM     16  O   LIG d   1       4.126  82.258 114.611  0.00  0.00    -0.276 OA
ATOM     17  H   LIG d   1       1.772  83.941 113.342  0.00  0.00     0.149 HD
ENDBRANCH   6  13
BRANCH   5  18
ATOM     18  N   LIG d   1       3.884  85.281 116.041  0.00  0.00     0.381 N 
ATOM     19  H   LIG d   1       3.083  85.311 116.639  0.00  0.00    -0.090 HD
ATOM     20  H   LIG d   1       4.618  85.816 116.470  0.00  0.00    -0.090 HD
ATOM     21  H   LIG d   1       4.180  84.338 115.916  0.00  0.00    -0.090 HD
ENDBRANCH   5  18
BRANCH   3  22
ATOM     22  C   LIG d   1       4.698  88.971 113.099  0.00  0.00     0.382 C 
ATOM     23  O   LIG d   1       5.864  89.329 112.802  0.00  0.00    -0.241 OA
ATOM     24  O   LIG d   1       3.827  89.835 113.311  0.00  0.00    -0.241 OA
ENDBRANCH   3  22
TORSDOF 7
ENDMDL
MODEL 6
REMARK VINA RESULT:      -5.0      3.016      4.205
REMARK  7 active torsions:
REMARK  status: ('A' for Active; 'I' for Inactive)
REMARK    1  A    between atoms: C_2  and  C_3 
REMARK    2  A    between atoms: C_3  and  O_6 
REMARK    3  A    between atoms: C_3  and  C_4 
REMARK    4  A    between atoms: C_7  and  O_6 
REMARK    5  A    between atoms: C_9  and  C_10 
REMARK    6  A    between atoms: N_15  and  C_14 
REMARK    7  A    between atoms: N_20  and  C_19 
REMARK       I    between atoms: C_22  and  N_20 
ROOT
ATOM      1  C   LIG d   1       2.671  85.341 113.930  0.00  0.00     0.161 C 
ATOM      2  C   LIG d   1       2.771  86.703 114.257  0.00  0.00     0.016 C 
ATOM      3  C   LIG d   1       3.370  87.664 113.410  0.00  0.00     0.038 C 
ATOM      4  C   LIG d   1       3.777  87.351 112.105  0.00  0.00     0.028 C 
ATOM      5  C   LIG d   1       4.156  85.885 111.924  0.00  0.00    -0.047 C 
ATOM      6  C   LIG d   1       3.010  85.000 112.464  0.00  0.00     0.091 C 
ENDROOT
BRANCH   1   7
ATOM      7  O   LIG d   1       1.358  84.852 114.267  0.00  0.00    -0.368 OA
BRANCH   7   8
ATOM      8  C   LIG d   1       0.249  85.720 113.928  0.00  0.00     0.119 C 
BRANCH   8   9
ATOM      9  C   LIG d   1      -0.749  85.678 115.101  0.00  0.00     0.028 C 
ATOM     10  C   LIG d   1      -0.410  86.702 116.197  0.00  0.00     0.006 C 
ENDBRANCH   8   9
BRANCH   8  11
ATOM     11  C   LIG d   1      -0.525  85.188 112.718  0.00  0.00     0.028 C 
ATOM     12  C   LIG d   1      -0.342  86.057 111.464  0.00  0.00     0.006 C 
ENDBRANCH   8  11
ENDBRANCH   7   8
ENDBRANCH   1   7
BRANCH   6  13
ATOM     13  N   LIG d   1       3.335  83.551 112.402  0.00  0.00    -0.311 N 
ATOM     14  C   LIG d   1       2.620  82.668 111.707  0.00  0.00     0.210 C 
ATOM     15  C   LIG d   1       3.116  81.222 111.795  0.00  0.00     0.109 C 
ATOM     16  O   LIG d   1       1.640  82.951 111.001  0.00  0.00    -0.276 OA
ATOM     17  H   LIG d   1       4.133  83.240 112.921  0.00  0.00     0.149 HD
ENDBRANCH   6  13
BRANCH   5  18
ATOM     18  N   LIG d   1       4.428  85.669 110.490  0.00  0.00     0.381 N 
ATOM     19  H   LIG d   1       4.074  86.439 109.958  0.00  0.00    -0.090 HD
ATOM     20  H   LIG d   1       3.953  84.835 110.192  0.00  0.00    -0.090 HD
ATOM     21  H   LIG d   1       5.408  85.574 110.339  0.00  0.00    -0.090 HD
ENDBRANCH   5  18
BRANCH   3  22
ATOM     22  C   LIG d   1       3.603  88.947 113.883  0.00  0.00     0.382 C 
ATOM     23  O   LIG d   1       3.702  89.904 113.078  0.00  0.00    -0.241 OA
ATOM     24  O   LIG d   1       3.759  89.152 115.102  0.00  0.00    -0.241 OA
ENDBRANCH   3  22
TORSDOF 7
ENDMDL
MODEL 7
REMARK VINA RESULT:      -5.0      2.737      6.106
REMARK  7 active torsions:
REMARK  status: ('A' for Active; 'I' for Inactive)
REMARK    1  A    between atoms: C_2  and  C_3 
REMARK    2  A    between atoms: C_3  and  O_6 
REMARK    3  A    between atoms: C_3  and  C_4 
REMARK    4  A    between atoms: C_7  and  O_6 
REMARK    5  A    between atoms: C_9  and  C_10 
REMARK    6  A    between atoms: N_15  and  C_14 
REMARK    7  A    between atoms: N_20  and  C_19 
REMARK       I    between atoms: C_22  and  N_20 
ROOT
ATOM      1  C   LIG d   1       1.985  84.027 113.234  0.00  0.00     0.161 C 
ATOM      2  C   LIG d   1       1.074  83.201 112.555  0.00  0.00     0.016 C 
ATOM      3  C   LIG d   1      -0.329  83.353 112.641  0.00  0.00     0.038 C 
ATOM      4  C   LIG d   1      -0.917  84.445 113.297  0.00  0.00     0.028 C 
ATOM      5  C   LIG d   1      -0.054  85.016 114.416  0.00  0.00    -0.047 C 
ATOM      6  C   LIG d   1       1.364  85.291 113.865  0.00  0.00     0.091 C 
ENDROOT
BRANCH   1   7
ATOM      7  O   LIG d   1       3.068  84.386 112.354  0.00  0.00    -0.368 OA
BRANCH   7   8
ATOM      8  C   LIG d   1       2.695  84.777 111.010  0.00  0.00     0.119 C 
BRANCH   8   9
ATOM      9  C   LIG d   1       3.781  84.244 110.055  0.00  0.00     0.028 C 
ATOM     10  C   LIG d   1       4.490  82.997 110.610  0.00  0.00     0.006 C 
ENDBRANCH   8   9
BRANCH   8  11
ATOM     11  C   LIG d   1       2.721  86.299 110.845  0.00  0.00     0.028 C 
ATOM     12  C   LIG d   1       1.367  86.873 110.398  0.00  0.00     0.006 C 
ENDBRANCH   8  11
ENDBRANCH   7   8
ENDBRANCH   1   7
BRANCH   6  13
ATOM     13  N   LIG d   1       2.298  85.773 114.917  0.00  0.00    -0.311 N 
ATOM     14  C   LIG d   1       2.855  86.983 114.904  0.00  0.00     0.210 C 
ATOM     15  C   LIG d   1       3.802  87.271 116.073  0.00  0.00     0.109 C 
ATOM     16  O   LIG d   1       2.629  87.857 114.053  0.00  0.00    -0.276 OA
ATOM     17  H   LIG d   1       2.512  85.140 115.662  0.00  0.00     0.149 HD
ENDBRANCH   6  13
BRANCH   5  18
ATOM     18  N   LIG d   1      -0.723  86.230 114.921  0.00  0.00     0.381 N 
ATOM     19  H   LIG d   1      -0.702  86.237 115.921  0.00  0.00    -0.090 HD
ATOM     20  H   LIG d   1      -1.684  86.218 114.625  0.00  0.00    -0.090 HD
ATOM     21  H   LIG d   1      -0.269  87.043 114.566  0.00  0.00    -0.090 HD
ENDBRANCH   5  18
BRANCH   3  22
ATOM     22  C   LIG d   1      -1.160  82.384 112.100  0.00  0.00     0.382 C 
ATOM     23  O   LIG d   1      -2.401  82.456 112.272  0.00  0.00    -0.241 OA
ATOM     24  O   LIG d   1      -0.681  81.416 111.480  0.00  0.00    -0.241 OA
ENDBRANCH   3  22
TORSDOF 7
ENDMDL
MODEL 8
REMARK VINA RESULT:      -4.9      2.711      6.634
REMARK  7 active torsions:
REMARK  status: ('A' for Active; 'I' for Inactive)
REMARK    1  A    between atoms: C_2  and  C_3 
REMARK    2  A    between atoms: C_3  and  O_6 
REMARK    3  A    between atoms: C_3  and  C_4 
REMARK    4  A    between atoms: C_7  and  O_6 
REMARK    5  A    between atoms: C_9  and  C_10 
REMARK    6  A    between atoms: N_15  and  C_14 
REMARK    7  A    between atoms: N_20  and  C_19 
REMARK       I    between atoms: C_22  and  N_20 
ROOT
ATOM      1  C   LIG d   1       1.512  83.727 112.579  0.00  0.00     0.161 C 
ATOM      2  C   LIG d   1       0.377  82.903 112.499  0.00  0.00     0.016 C 
ATOM      3  C   LIG d   1      -0.845  83.197 113.147  0.00  0.00     0.038 C 
ATOM      4  C   LIG d   1      -1.063  84.420 113.798  0.00  0.00     0.028 C 
ATOM      5  C   LIG d   1       0.215  85.059 114.332  0.00  0.00    -0.047 C 
ATOM      6  C   LIG d   1       1.259  85.120 113.193  0.00  0.00     0.091 C 
ENDROOT
BRANCH   1   7
ATOM      7  O   LIG d   1       2.114  83.857 111.276  0.00  0.00    -0.368 OA
BRANCH   7   8
ATOM      8  C   LIG d   1       3.244  82.991 111.007  0.00  0.00     0.119 C 
BRANCH   8   9
ATOM      9  C   LIG d   1       4.191  83.747 110.055  0.00  0.00     0.028 C 
ATOM     10  C   LIG d   1       4.005  85.272 110.132  0.00  0.00     0.006 C 
ENDBRANCH   8   9
BRANCH   8  11
ATOM     11  C   LIG d   1       2.815  81.737 110.239  0.00  0.00     0.028 C 
ATOM     12  C   LIG d   1       3.716  80.525 110.526  0.00  0.00     0.006 C 
ENDBRANCH   8  11
ENDBRANCH   7   8
ENDBRANCH   1   7
BRANCH   6  13
ATOM     13  N   LIG d   1       2.567  85.654 113.652  0.00  0.00    -0.311 N 
ATOM     14  C   LIG d   1       3.074  86.813 113.233  0.00  0.00     0.210 C 
ATOM     15  C   LIG d   1       4.445  87.167 113.816  0.00  0.00     0.109 C 
ATOM     16  O   LIG d   1       2.502  87.596 112.460  0.00  0.00    -0.276 OA
ATOM     17  H   LIG d   1       3.084  85.097 114.304  0.00  0.00     0.149 HD
ENDBRANCH   6  13
BRANCH   5  18
ATOM     18  N   LIG d   1      -0.139  86.389 114.863  0.00  0.00     0.381 N 
ATOM     19  H   LIG d   1      -1.016  86.339 115.342  0.00  0.00    -0.090 HD
ATOM     20  H   LIG d   1      -0.235  87.030 114.096  0.00  0.00    -0.090 HD
ATOM     21  H   LIG d   1       0.570  86.707 115.486  0.00  0.00    -0.090 HD
ENDBRANCH   5  18
BRANCH   3  22
ATOM     22  C   LIG d   1      -1.852  82.245 113.180  0.00  0.00     0.382 C 
ATOM     23  O   LIG d   1      -1.829  81.339 114.047  0.00  0.00    -0.241 OA
ATOM     24  O   LIG d   1      -2.759  82.254 112.326  0.00  0.00    -0.241 OA
ENDBRANCH   3  22
TORSDOF 7
ENDMDL
MODEL 9
REMARK VINA RESULT:      -4.9      2.816      5.293
REMARK  7 active torsions:
REMARK  status: ('A' for Active; 'I' for Inactive)
REMARK    1  A    between atoms: C_2  and  C_3 
REMARK    2  A    between atoms: C_3  and  O_6 
REMARK    3  A    between atoms: C_3  and  C_4 
REMARK    4  A    between atoms: C_7  and  O_6 
REMARK    5  A    between atoms: C_9  and  C_10 
REMARK    6  A    between atoms: N_15  and  C_14 
REMARK    7  A    between atoms: N_20  and  C_19 
REMARK       I    between atoms: C_22  and  N_20 
ROOT
ATOM      1  C   LIG d   1       0.558  82.976 112.456  0.00  0.00     0.161 C 
ATOM      2  C   LIG d   1      -0.745  82.616 112.838  0.00  0.00     0.016 C 
ATOM      3  C   LIG d   1      -1.368  81.412 112.438  0.00  0.00     0.038 C 
ATOM      4  C   LIG d   1      -0.671  80.410 111.748  0.00  0.00     0.028 C 
ATOM      5  C   LIG d   1       0.484  80.944 110.908  0.00  0.00    -0.047 C 
ATOM      6  C   LIG d   1       1.374  81.846 111.795  0.00  0.00     0.091 C 
ENDROOT
BRANCH   1   7
ATOM      7  O   LIG d   1       1.270  83.511 113.589  0.00  0.00    -0.368 OA
BRANCH   7   8
ATOM      8  C   LIG d   1       0.551  83.521 114.847  0.00  0.00     0.119 C 
BRANCH   8   9
ATOM      9  C   LIG d   1       0.511  84.979 115.345  0.00  0.00     0.028 C 
ATOM     10  C   LIG d   1      -0.788  85.700 114.948  0.00  0.00     0.006 C 
ENDBRANCH   8   9
BRANCH   8  11
ATOM     11  C   LIG d   1       1.306  82.743 115.928  0.00  0.00     0.028 C 
ATOM     12  C   LIG d   1       1.605  81.292 115.519  0.00  0.00     0.006 C 
ENDBRANCH   8  11
ENDBRANCH   7   8
ENDBRANCH   1   7
BRANCH   6  13
ATOM     13  N   LIG d   1       2.481  82.477 111.030  0.00  0.00    -0.311 N 
ATOM     14  C   LIG d   1       3.672  81.907 110.859  0.00  0.00     0.210 C 
ATOM     15  C   LIG d   1       4.678  82.738 110.055  0.00  0.00     0.109 C 
ATOM     16  O   LIG d   1       3.982  80.778 111.269  0.00  0.00    -0.276 OA
ATOM     17  H   LIG d   1       2.306  83.381 110.637  0.00  0.00     0.149 HD
ENDBRANCH   6  13
BRANCH   5  18
ATOM     18  N   LIG d   1       1.207  79.784 110.354  0.00  0.00     0.381 N 
ATOM     19  H   LIG d   1       2.182  79.860 110.566  0.00  0.00    -0.090 HD
ATOM     20  H   LIG d   1       1.100  79.781 109.355  0.00  0.00    -0.090 HD
ATOM     21  H   LIG d   1       0.842  78.940 110.737  0.00  0.00    -0.090 HD
ENDBRANCH   5  18
BRANCH   3  22
ATOM     22  C   LIG d   1      -2.717  81.219 112.695  0.00  0.00     0.382 C 
ATOM     23  O   LIG d   1      -3.559  82.056 112.289  0.00  0.00    -0.241 OA
ATOM     24  O   LIG d   1      -3.099  80.241 113.365  0.00  0.00    -0.241 OA
ENDBRANCH   3  22
TORSDOF 7
ENDMDL
