MODEL 1
REMARK VINA RESULT:      -5.8      0.000      0.000
REMARK  7 active torsions:
REMARK  status: ('A' for Active; 'I' for Inactive)
REMARK    1  A    between atoms: C_2  and  C_3 
REMARK    2  A    between atoms: C_3  and  O_6 
REMARK    3  A    between atoms: C_3  and  C_4 
REMARK    4  A    between atoms: C_7  and  O_6 
REMARK    5  A    between atoms: C_9  and  C_10 
REMARK    6  A    between atoms: N_15  and  C_14 
REMARK    7  A    between atoms: N_20  and  C_19 
REMARK       I    between atoms: C_22  and  N_20 
ROOT
ATOM      1  C   LIG d   1       2.893  84.199 110.599  0.00  0.00     0.161 C 
ATOM      2  C   LIG d   1       1.960  85.243 110.717  0.00  0.00     0.016 C 
ATOM      3  C   LIG d   1       0.562  85.036 110.769  0.00  0.00     0.038 C 
ATOM      4  C   LIG d   1       0.006  83.751 110.858  0.00  0.00     0.028 C 
ATOM      5  C   LIG d   1       0.880  82.668 110.235  0.00  0.00    -0.047 C 
ATOM      6  C   LIG d   1       2.310  82.785 110.808  0.00  0.00     0.091 C 
ENDROOT
BRANCH   1   7
ATOM      7  O   LIG d   1       3.995  84.424 111.500  0.00  0.00    -0.368 OA
BRANCH   7   8
ATOM      8  C   LIG d   1       3.859  85.548 112.404  0.00  0.00     0.119 C 
BRANCH   8   9
ATOM      9  C   LIG d   1       4.949  86.573 112.036  0.00  0.00     0.028 C 
ATOM     10  C   LIG d   1       5.546  87.265 113.273  0.00  0.00     0.006 C 
ENDBRANCH   8   9
BRANCH   8  11
ATOM     11  C   LIG d   1       4.159  85.139 113.850  0.00  0.00     0.028 C 
ATOM     12  C   LIG d   1       4.397  83.628 114.004  0.00  0.00     0.006 C 
ENDBRANCH   8  11
ENDBRANCH   7   8
ENDBRANCH   1   7
BRANCH   6  13
ATOM     13  N   LIG d   1       3.251  81.816 110.187  0.00  0.00    -0.311 N 
ATOM     14  C   LIG d   1       4.008  80.976 110.891  0.00  0.00     0.210 C 
ATOM     15  C   LIG d   1       4.922  80.074 110.056  0.00  0.00     0.109 C 
ATOM     16  O   LIG d   1       3.986  80.870 112.127  0.00  0.00    -0.276 OA
ATOM     17  H   LIG d   1       3.309  81.812 109.188  0.00  0.00     0.149 HD
ENDBRANCH   6  13
BRANCH   5  18
ATOM     18  N   LIG d   1       0.247  81.366 110.520  0.00  0.00     0.381 N 
ATOM     19  H   LIG d   1      -0.425  81.153 109.811  0.00  0.00    -0.090 HD
ATOM     20  H   LIG d   1      -0.231  81.424 111.402  0.00  0.00    -0.090 HD
ATOM     21  H   LIG d   1       0.940  80.651 110.556  0.00  0.00    -0.090 HD
ENDBRANCH   5  18
BRANCH   3  22
ATOM     22  C   LIG d   1      -0.297  86.121 110.690  0.00  0.00     0.382 C 
ATOM     23  O   LIG d   1      -1.514  85.941 110.444  0.00  0.00    -0.241 OA
ATOM     24  O   LIG d   1       0.138  87.281 110.819  0.00  0.00    -0.241 OA
ENDBRANCH   3  22
TORSDOF 7
ENDMDL
MODEL 2
REMARK VINA RESULT:      -5.6      2.626      4.654
REMARK  7 active torsions:
REMARK  status: ('A' for Active; 'I' for Inactive)
REMARK    1  A    between atoms: C_2  and  C_3 
REMARK    2  A    between atoms: C_3  and  O_6 
REMARK    3  A    between atoms: C_3  and  C_4 
REMARK    4  A    between atoms: C_7  and  O_6 
REMARK    5  A    between atoms: C_9  and  C_10 
REMARK    6  A    between atoms: N_15  and  C_14 
REMARK    7  A    between atoms: N_20  and  C_19 
REMARK       I    between atoms: C_22  and  N_20 
ROOT
ATOM      1  C   LIG d   1       2.374  84.207 112.754  0.00  0.00     0.161 C 
ATOM      2  C   LIG d   1       1.452  83.195 112.438  0.00  0.00     0.016 C 
ATOM      3  C   LIG d   1       0.367  83.380 111.551  0.00  0.00     0.038 C 
ATOM      4  C   LIG d   1       0.217  84.554 110.798  0.00  0.00     0.028 C 
ATOM      5  C   LIG d   1       0.833  85.782 111.461  0.00  0.00    -0.047 C 
ATOM      6  C   LIG d   1       2.291  85.460 111.858  0.00  0.00     0.091 C 
ENDROOT
BRANCH   1   7
ATOM      7  O   LIG d   1       3.712  83.670 112.743  0.00  0.00    -0.368 OA
BRANCH   7   8
ATOM      8  C   LIG d   1       3.864  82.349 112.169  0.00  0.00     0.119 C 
BRANCH   8   9
ATOM      9  C   LIG d   1       4.798  81.546 113.095  0.00  0.00     0.028 C 
ATOM     10  C   LIG d   1       4.030  80.795 114.195  0.00  0.00     0.006 C 
ENDBRANCH   8   9
BRANCH   8  11
ATOM     11  C   LIG d   1       4.584  82.407 110.819  0.00  0.00     0.028 C 
ATOM     12  C   LIG d   1       4.528  81.075 110.055  0.00  0.00     0.006 C 
ENDBRANCH   8  11
ENDBRANCH   7   8
ENDBRANCH   1   7
BRANCH   6  13
ATOM     13  N   LIG d   1       2.940  86.580 112.589  0.00  0.00    -0.311 N 
ATOM     14  C   LIG d   1       4.123  87.089 112.249  0.00  0.00     0.210 C 
ATOM     15  C   LIG d   1       4.620  88.225 113.148  0.00  0.00     0.109 C 
ATOM     16  O   LIG d   1       4.794  86.728 111.270  0.00  0.00    -0.276 OA
ATOM     17  H   LIG d   1       2.451  86.953 113.378  0.00  0.00     0.149 HD
ENDBRANCH   6  13
BRANCH   5  18
ATOM     18  N   LIG d   1       0.726  86.904 110.509  0.00  0.00     0.381 N 
ATOM     19  H   LIG d   1       1.250  87.686 110.847  0.00  0.00    -0.090 HD
ATOM     20  H   LIG d   1      -0.238  87.178 110.436  0.00  0.00    -0.090 HD
ATOM     21  H   LIG d   1       1.069  86.626 109.616  0.00  0.00    -0.090 HD
ENDBRANCH   5  18
BRANCH   3  22
ATOM     22  C   LIG d   1      -0.605  82.398 111.440  0.00  0.00     0.382 C 
ATOM     23  O   LIG d   1      -1.769  82.618 111.855  0.00  0.00    -0.241 OA
ATOM     24  O   LIG d   1      -0.323  81.280 110.970  0.00  0.00    -0.241 OA
ENDBRANCH   3  22
TORSDOF 7
ENDMDL
MODEL 3
REMARK VINA RESULT:      -5.6      2.863      4.263
REMARK  7 active torsions:
REMARK  status: ('A' for Active; 'I' for Inactive)
REMARK    1  A    between atoms: C_2  and  C_3 
REMARK    2  A    between atoms: C_3  and  O_6 
REMARK    3  A    between atoms: C_3  and  C_4 
REMARK    4  A    between atoms: C_7  and  O_6 
REMARK    5  A    between atoms: C_9  and  C_10 
REMARK    6  A    between atoms: N_15  and  C_14 
REMARK    7  A    between atoms: N_20  and  C_19 
REMARK       I    between atoms: C_22  and  N_20 
ROOT
ATOM      1  C   LIG d   1       0.492  82.221 110.635  0.00  0.00     0.161 C 
ATOM      2  C   LIG d   1      -0.812  82.052 111.129  0.00  0.00     0.016 C 
ATOM      3  C   LIG d   1      -1.114  81.298 112.287  0.00  0.00     0.038 C 
ATOM      4  C   LIG d   1      -0.109  80.784 113.120  0.00  0.00     0.028 C 
ATOM      5  C   LIG d   1       1.199  80.501 112.388  0.00  0.00    -0.047 C 
ATOM      6  C   LIG d   1       1.611  81.761 111.592  0.00  0.00     0.091 C 
ENDROOT
BRANCH   1   7
ATOM      7  O   LIG d   1       0.694  83.595 110.251  0.00  0.00    -0.368 OA
BRANCH   7   8
ATOM      8  C   LIG d   1      -0.012  84.587 111.036  0.00  0.00     0.119 C 
BRANCH   8   9
ATOM      9  C   LIG d   1      -0.607  85.616 110.055  0.00  0.00     0.028 C 
ATOM     10  C   LIG d   1      -1.254  86.810 110.778  0.00  0.00     0.006 C 
ENDBRANCH   8   9
BRANCH   8  11
ATOM     11  C   LIG d   1       0.949  85.383 111.924  0.00  0.00     0.028 C 
ATOM     12  C   LIG d   1       0.918  84.928 113.392  0.00  0.00     0.006 C 
ENDBRANCH   8  11
ENDBRANCH   7   8
ENDBRANCH   1   7
BRANCH   6  13
ATOM     13  N   LIG d   1       2.836  81.542 110.779  0.00  0.00    -0.311 N 
ATOM     14  C   LIG d   1       4.062  81.840 111.206  0.00  0.00     0.210 C 
ATOM     15  C   LIG d   1       5.183  81.553 110.202  0.00  0.00     0.109 C 
ATOM     16  O   LIG d   1       4.330  82.284 112.332  0.00  0.00    -0.276 OA
ATOM     17  H   LIG d   1       2.713  81.155 109.864  0.00  0.00     0.149 HD
ENDBRANCH   6  13
BRANCH   5  18
ATOM     18  N   LIG d   1       2.198  80.102 113.397  0.00  0.00     0.381 N 
ATOM     19  H   LIG d   1       2.982  79.675 112.946  0.00  0.00    -0.090 HD
ATOM     20  H   LIG d   1       1.783  79.427 114.015  0.00  0.00    -0.090 HD
ATOM     21  H   LIG d   1       2.496  80.899 113.915  0.00  0.00    -0.090 HD
ENDBRANCH   5  18
BRANCH   3  22
ATOM     22  C   LIG d   1      -2.435  81.018 112.600  0.00  0.00     0.382 C 
ATOM     23  O   LIG d   1      -2.708  80.078 113.385  0.00  0.00    -0.241 OA
ATOM     24  O   LIG d   1      -3.360  81.666 112.073  0.00  0.00    -0.241 OA
ENDBRANCH   3  22
TORSDOF 7
ENDMDL
MODEL 4
REMARK VINA RESULT:      -5.6      2.698      4.624
REMARK  7 active torsions:
REMARK  status: ('A' for Active; 'I' for Inactive)
REMARK    1  A    between atoms: C_2  and  C_3 
REMARK    2  A    between atoms: C_3  and  O_6 
REMARK    3  A    between atoms: C_3  and  C_4 
REMARK    4  A    between atoms: C_7  and  O_6 
REMARK    5  A    between atoms: C_9  and  C_10 
REMARK    6  A    between atoms: N_15  and  C_14 
REMARK    7  A    between atoms: N_20  and  C_19 
REMARK       I    between atoms: C_22  and  N_20 
ROOT
ATOM      1  C   LIG d   1       3.026  85.225 111.376  0.00  0.00     0.161 C 
ATOM      2  C   LIG d   1       3.970  86.237 111.615  0.00  0.00     0.016 C 
ATOM      3  C   LIG d   1       3.955  87.058 112.767  0.00  0.00     0.038 C 
ATOM      4  C   LIG d   1       3.079  86.819 113.836  0.00  0.00     0.028 C 
ATOM      5  C   LIG d   1       1.784  86.132 113.416  0.00  0.00    -0.047 C 
ATOM      6  C   LIG d   1       2.130  84.877 112.583  0.00  0.00     0.091 C 
ENDROOT
BRANCH   1   7
ATOM      7  O   LIG d   1       3.691  84.043 110.888  0.00  0.00    -0.368 OA
BRANCH   7   8
ATOM      8  C   LIG d   1       3.663  82.889 111.763  0.00  0.00     0.119 C 
BRANCH   8   9
ATOM      9  C   LIG d   1       5.052  82.771 112.418  0.00  0.00     0.028 C 
ATOM     10  C   LIG d   1       5.014  83.048 113.931  0.00  0.00     0.006 C 
ENDBRANCH   8   9
BRANCH   8  11
ATOM     11  C   LIG d   1       3.477  81.592 110.970  0.00  0.00     0.028 C 
ATOM     12  C   LIG d   1       4.811  80.935 110.581  0.00  0.00     0.006 C 
ENDBRANCH   8  11
ENDBRANCH   7   8
ENDBRANCH   1   7
BRANCH   6  13
ATOM     13  N   LIG d   1       0.918  84.192 112.061  0.00  0.00    -0.311 N 
ATOM     14  C   LIG d   1       0.320  83.181 112.689  0.00  0.00     0.210 C 
ATOM     15  C   LIG d   1      -0.903  82.605 111.968  0.00  0.00     0.109 C 
ATOM     16  O   LIG d   1       0.667  82.728 113.790  0.00  0.00    -0.276 OA
ATOM     17  H   LIG d   1       0.551  84.516 111.188  0.00  0.00     0.149 HD
ENDBRANCH   6  13
BRANCH   5  18
ATOM     18  N   LIG d   1       1.027  85.820 114.643  0.00  0.00     0.381 N 
ATOM     19  H   LIG d   1       1.021  84.832 114.796  0.00  0.00    -0.090 HD
ATOM     20  H   LIG d   1       0.077  86.127 114.526  0.00  0.00    -0.090 HD
ATOM     21  H   LIG d   1       1.439  86.282 115.425  0.00  0.00    -0.090 HD
ENDBRANCH   5  18
BRANCH   3  22
ATOM     22  C   LIG d   1       4.799  88.156 112.839  0.00  0.00     0.382 C 
ATOM     23  O   LIG d   1       4.370  89.248 113.283  0.00  0.00    -0.241 OA
ATOM     24  O   LIG d   1       5.971  88.080 112.424  0.00  0.00    -0.241 OA
ENDBRANCH   3  22
TORSDOF 7
ENDMDL
MODEL 5
REMARK VINA RESULT:      -5.3      2.235      3.979
REMARK  7 active torsions:
REMARK  status: ('A' for Active; 'I' for Inactive)
REMARK    1  A    between atoms: C_2  and  C_3 
REMARK    2  A    between atoms: C_3  and  O_6 
REMARK    3  A    between atoms: C_3  and  C_4 
REMARK    4  A    between atoms: C_7  and  O_6 
REMARK    5  A    between atoms: C_9  and  C_10 
REMARK    6  A    between atoms: N_15  and  C_14 
REMARK    7  A    between atoms: N_20  and  C_19 
REMARK       I    between atoms: C_22  and  N_20 
ROOT
ATOM      1  C   LIG d   1       2.738  83.261 111.777  0.00  0.00     0.161 C 
ATOM      2  C   LIG d   1       3.252  84.527 112.101  0.00  0.00     0.016 C 
ATOM      3  C   LIG d   1       2.597  85.738 111.780  0.00  0.00     0.038 C 
ATOM      4  C   LIG d   1       1.301  85.761 111.244  0.00  0.00     0.028 C 
ATOM      5  C   LIG d   1       0.957  84.512 110.439  0.00  0.00    -0.047 C 
ATOM      6  C   LIG d   1       1.273  83.263 111.292  0.00  0.00     0.091 C 
ENDROOT
BRANCH   1   7
ATOM      7  O   LIG d   1       2.893  82.369 112.899  0.00  0.00    -0.368 OA
BRANCH   7   8
ATOM      8  C   LIG d   1       3.660  81.165 112.654  0.00  0.00     0.119 C 
BRANCH   8   9
ATOM      9  C   LIG d   1       4.497  80.885 113.918  0.00  0.00     0.028 C 
ATOM     10  C   LIG d   1       3.636  80.404 115.098  0.00  0.00     0.006 C 
ENDBRANCH   8   9
BRANCH   8  11
ATOM     11  C   LIG d   1       4.680  81.372 111.530  0.00  0.00     0.028 C 
ATOM     12  C   LIG d   1       4.501  80.378 110.372  0.00  0.00     0.006 C 
ENDBRANCH   8  11
ENDBRANCH   7   8
ENDBRANCH   1   7
BRANCH   6  13
ATOM     13  N   LIG d   1       1.044  81.996 110.548  0.00  0.00    -0.311 N 
ATOM     14  C   LIG d   1       0.207  81.045 110.960  0.00  0.00     0.210 C 
ATOM     15  C   LIG d   1       0.135  79.811 110.055  0.00  0.00     0.109 C 
ATOM     16  O   LIG d   1      -0.506  81.120 111.972  0.00  0.00    -0.276 OA
ATOM     17  H   LIG d   1       1.559  81.866 109.699  0.00  0.00     0.149 HD
ENDBRANCH   6  13
BRANCH   5  18
ATOM     18  N   LIG d   1      -0.465  84.607 110.057  0.00  0.00     0.381 N 
ATOM     19  H   LIG d   1      -1.019  84.043 110.670  0.00  0.00    -0.090 HD
ATOM     20  H   LIG d   1      -0.574  84.257 109.121  0.00  0.00    -0.090 HD
ATOM     21  H   LIG d   1      -0.768  85.555 110.102  0.00  0.00    -0.090 HD
ENDBRANCH   5  18
BRANCH   3  22
ATOM     22  C   LIG d   1       3.257  86.945 111.959  0.00  0.00     0.382 C 
ATOM     23  O   LIG d   1       2.638  87.937 112.413  0.00  0.00    -0.241 OA
ATOM     24  O   LIG d   1       4.453  87.066 111.631  0.00  0.00    -0.241 OA
ENDBRANCH   3  22
TORSDOF 7
ENDMDL
MODEL 6
REMARK VINA RESULT:      -5.3      2.774      4.983
REMARK  7 active torsions:
REMARK  status: ('A' for Active; 'I' for Inactive)
REMARK    1  A    between atoms: C_2  and  C_3 
REMARK    2  A    between atoms: C_3  and  O_6 
REMARK    3  A    between atoms: C_3  and  C_4 
REMARK    4  A    between atoms: C_7  and  O_6 
REMARK    5  A    between atoms: C_9  and  C_10 
REMARK    6  A    between atoms: N_15  and  C_14 
REMARK    7  A    between atoms: N_20  and  C_19 
REMARK       I    between atoms: C_22  and  N_20 
ROOT
ATOM      1  C   LIG d   1       3.846  85.371 112.412  0.00  0.00     0.161 C 
ATOM      2  C   LIG d   1       4.145  86.742 112.467  0.00  0.00     0.016 C 
ATOM      3  C   LIG d   1       4.608  87.392 113.635  0.00  0.00     0.038 C 
ATOM      4  C   LIG d   1       4.948  86.679 114.794  0.00  0.00     0.028 C 
ATOM      5  C   LIG d   1       4.185  85.367 114.945  0.00  0.00    -0.047 C 
ATOM      6  C   LIG d   1       4.317  84.557 113.635  0.00  0.00     0.091 C 
ENDROOT
BRANCH   1   7
ATOM      7  O   LIG d   1       4.376  84.803 111.198  0.00  0.00    -0.368 OA
BRANCH   7   8
ATOM      8  C   LIG d   1       3.400  84.357 110.224  0.00  0.00     0.119 C 
BRANCH   8   9
ATOM      9  C   LIG d   1       2.002  84.679 110.788  0.00  0.00     0.028 C 
ATOM     10  C   LIG d   1       1.092  83.440 110.841  0.00  0.00     0.006 C 
ENDBRANCH   8   9
BRANCH   8  11
ATOM     11  C   LIG d   1       3.431  82.835 110.061  0.00  0.00     0.028 C 
ATOM     12  C   LIG d   1       4.859  82.265 110.057  0.00  0.00     0.006 C 
ENDBRANCH   8  11
ENDBRANCH   7   8
ENDBRANCH   1   7
BRANCH   6  13
ATOM     13  N   LIG d   1       3.529  83.297 113.667  0.00  0.00    -0.311 N 
ATOM     14  C   LIG d   1       4.083  82.086 113.642  0.00  0.00     0.210 C 
ATOM     15  C   LIG d   1       3.089  80.920 113.662  0.00  0.00     0.109 C 
ATOM     16  O   LIG d   1       5.303  81.866 113.638  0.00  0.00    -0.276 OA
ATOM     17  H   LIG d   1       2.532  83.383 113.702  0.00  0.00     0.149 HD
ENDBRANCH   6  13
BRANCH   5  18
ATOM     18  N   LIG d   1       4.736  84.664 116.118  0.00  0.00     0.381 N 
ATOM     19  H   LIG d   1       5.537  85.154 116.462  0.00  0.00    -0.090 HD
ATOM     20  H   LIG d   1       5.026  83.743 115.839  0.00  0.00    -0.090 HD
ATOM     21  H   LIG d   1       4.045  84.600 116.833  0.00  0.00    -0.090 HD
ENDBRANCH   5  18
BRANCH   3  22
ATOM     22  C   LIG d   1       4.695  88.775 113.662  0.00  0.00     0.382 C 
ATOM     23  O   LIG d   1       5.167  89.353 114.671  0.00  0.00    -0.241 OA
ATOM     24  O   LIG d   1       4.269  89.455 112.710  0.00  0.00    -0.241 OA
ENDBRANCH   3  22
TORSDOF 7
ENDMDL
MODEL 7
REMARK VINA RESULT:      -5.1      2.716      4.816
REMARK  7 active torsions:
REMARK  status: ('A' for Active; 'I' for Inactive)
REMARK    1  A    between atoms: C_2  and  C_3 
REMARK    2  A    between atoms: C_3  and  O_6 
REMARK    3  A    between atoms: C_3  and  C_4 
REMARK    4  A    between atoms: C_7  and  O_6 
REMARK    5  A    between atoms: C_9  and  C_10 
REMARK    6  A    between atoms: N_15  and  C_14 
REMARK    7  A    between atoms: N_20  and  C_19 
REMARK       I    between atoms: C_22  and  N_20 
ROOT
ATOM      1  C   LIG d   1       2.240  84.428 113.208  0.00  0.00     0.161 C 
ATOM      2  C   LIG d   1       1.168  84.358 112.302  0.00  0.00     0.016 C 
ATOM      3  C   LIG d   1       0.769  85.439 111.484  0.00  0.00     0.038 C 
ATOM      4  C   LIG d   1       1.514  86.625 111.406  0.00  0.00     0.028 C 
ATOM      5  C   LIG d   1       2.308  86.926 112.673  0.00  0.00    -0.047 C 
ATOM      6  C   LIG d   1       3.134  85.677 113.056  0.00  0.00     0.091 C 
ENDROOT
BRANCH   1   7
ATOM      7  O   LIG d   1       3.035  83.230 113.118  0.00  0.00    -0.368 OA
BRANCH   7   8
ATOM      8  C   LIG d   1       2.816  82.405 111.947  0.00  0.00     0.119 C 
BRANCH   8   9
ATOM      9  C   LIG d   1       2.664  80.949 112.428  0.00  0.00     0.028 C 
ATOM     10  C   LIG d   1       1.433  80.754 113.330  0.00  0.00     0.006 C 
ENDBRANCH   8   9
BRANCH   8  11
ATOM     11  C   LIG d   1       4.041  82.403 111.029  0.00  0.00     0.028 C 
ATOM     12  C   LIG d   1       4.059  83.593 110.056  0.00  0.00     0.006 C 
ENDBRANCH   8  11
ENDBRANCH   7   8
ENDBRANCH   1   7
BRANCH   6  13
ATOM     13  N   LIG d   1       3.876  85.857 114.331  0.00  0.00    -0.311 N 
ATOM     14  C   LIG d   1       5.073  86.435 114.407  0.00  0.00     0.210 C 
ATOM     15  C   LIG d   1       5.670  86.502 115.816  0.00  0.00     0.109 C 
ATOM     16  O   LIG d   1       5.684  86.927 113.446  0.00  0.00    -0.276 OA
ATOM     17  H   LIG d   1       3.439  85.515 115.165  0.00  0.00     0.149 HD
ENDBRANCH   6  13
BRANCH   5  18
ATOM     18  N   LIG d   1       3.143  88.112 112.404  0.00  0.00     0.381 N 
ATOM     19  H   LIG d   1       2.976  88.440 111.474  0.00  0.00    -0.090 HD
ATOM     20  H   LIG d   1       4.111  87.852 112.478  0.00  0.00    -0.090 HD
ATOM     21  H   LIG d   1       2.934  88.832 113.060  0.00  0.00    -0.090 HD
ENDBRANCH   5  18
BRANCH   3  22
ATOM     22  C   LIG d   1      -0.412  85.355 110.762  0.00  0.00     0.382 C 
ATOM     23  O   LIG d   1      -0.826  84.239 110.366  0.00  0.00    -0.241 OA
ATOM     24  O   LIG d   1      -1.045  86.385 110.463  0.00  0.00    -0.241 OA
ENDBRANCH   3  22
TORSDOF 7
ENDMDL
MODEL 8
REMARK VINA RESULT:      -5.0      2.261      3.098
REMARK  7 active torsions:
REMARK  status: ('A' for Active; 'I' for Inactive)
REMARK    1  A    between atoms: C_2  and  C_3 
REMARK    2  A    between atoms: C_3  and  O_6 
REMARK    3  A    between atoms: C_3  and  C_4 
REMARK    4  A    between atoms: C_7  and  O_6 
REMARK    5  A    between atoms: C_9  and  C_10 
REMARK    6  A    between atoms: N_15  and  C_14 
REMARK    7  A    between atoms: N_20  and  C_19 
REMARK       I    between atoms: C_22  and  N_20 
ROOT
ATOM      1  C   LIG d   1       2.956  83.718 111.871  0.00  0.00     0.161 C 
ATOM      2  C   LIG d   1       3.157  85.083 112.136  0.00  0.00     0.016 C 
ATOM      3  C   LIG d   1       2.211  86.085 111.820  0.00  0.00     0.038 C 
ATOM      4  C   LIG d   1       0.927  85.770 111.351  0.00  0.00     0.028 C 
ATOM      5  C   LIG d   1       0.865  84.447 110.596  0.00  0.00    -0.047 C 
ATOM      6  C   LIG d   1       1.516  83.344 111.462  0.00  0.00     0.091 C 
ENDROOT
BRANCH   1   7
ATOM      7  O   LIG d   1       3.375  82.933 113.005  0.00  0.00    -0.368 OA
BRANCH   7   8
ATOM      8  C   LIG d   1       3.087  83.494 114.310  0.00  0.00     0.119 C 
BRANCH   8   9
ATOM      9  C   LIG d   1       4.411  83.540 115.097  0.00  0.00     0.028 C 
ATOM     10  C   LIG d   1       4.789  84.968 115.526  0.00  0.00     0.006 C 
ENDBRANCH   8   9
BRANCH   8  11
ATOM     11  C   LIG d   1       2.165  82.577 115.119  0.00  0.00     0.028 C 
ATOM     12  C   LIG d   1       1.915  81.226 114.431  0.00  0.00     0.006 C 
ENDBRANCH   8  11
ENDBRANCH   7   8
ENDBRANCH   1   7
BRANCH   6  13
ATOM     13  N   LIG d   1       1.573  82.034 110.763  0.00  0.00    -0.311 N 
ATOM     14  C   LIG d   1       0.607  81.120 110.838  0.00  0.00     0.210 C 
ATOM     15  C   LIG d   1       0.875  79.830 110.056  0.00  0.00     0.109 C 
ATOM     16  O   LIG d   1      -0.461  81.269 111.450  0.00  0.00    -0.276 OA
ATOM     17  H   LIG d   1       2.391  81.843 110.217  0.00  0.00     0.149 HD
ENDBRANCH   6  13
BRANCH   5  18
ATOM     18  N   LIG d   1      -0.551  84.176 110.285  0.00  0.00     0.381 N 
ATOM     19  H   LIG d   1      -0.863  84.793 109.561  0.00  0.00    -0.090 HD
ATOM     20  H   LIG d   1      -1.103  84.350 111.106  0.00  0.00    -0.090 HD
ATOM     21  H   LIG d   1      -0.662  83.230 109.995  0.00  0.00    -0.090 HD
ENDBRANCH   5  18
BRANCH   3  22
ATOM     22  C   LIG d   1       2.561  87.422 111.935  0.00  0.00     0.382 C 
ATOM     23  O   LIG d   1       1.843  88.305 111.407  0.00  0.00    -0.241 OA
ATOM     24  O   LIG d   1       3.609  87.752 112.521  0.00  0.00    -0.241 OA
ENDBRANCH   3  22
TORSDOF 7
ENDMDL
MODEL 9
REMARK VINA RESULT:      -4.9      2.647      5.595
REMARK  7 active torsions:
REMARK  status: ('A' for Active; 'I' for Inactive)
REMARK    1  A    between atoms: C_2  and  C_3 
REMARK    2  A    between atoms: C_3  and  O_6 
REMARK    3  A    between atoms: C_3  and  C_4 
REMARK    4  A    between atoms: C_7  and  O_6 
REMARK    5  A    between atoms: C_9  and  C_10 
REMARK    6  A    between atoms: N_15  and  C_14 
REMARK    7  A    between atoms: N_20  and  C_19 
REMARK       I    between atoms: C_22  and  N_20 
ROOT
ATOM      1  C   LIG d   1       3.098  84.226 112.005  0.00  0.00     0.161 C 
ATOM      2  C   LIG d   1       4.060  83.938 112.987  0.00  0.00     0.016 C 
ATOM      3  C   LIG d   1       3.898  84.260 114.354  0.00  0.00     0.038 C 
ATOM      4  C   LIG d   1       2.688  84.759 114.859  0.00  0.00     0.028 C 
ATOM      5  C   LIG d   1       1.875  85.534 113.827  0.00  0.00    -0.047 C 
ATOM      6  C   LIG d   1       1.726  84.670 112.554  0.00  0.00     0.091 C 
ENDROOT
BRANCH   1   7
ATOM      7  O   LIG d   1       2.943  83.094 111.125  0.00  0.00    -0.368 OA
BRANCH   7   8
ATOM      8  C   LIG d   1       3.174  81.792 111.716  0.00  0.00     0.119 C 
BRANCH   8   9
ATOM      9  C   LIG d   1       3.899  80.929 110.665  0.00  0.00     0.028 C 
ATOM     10  C   LIG d   1       5.220  81.562 110.196  0.00  0.00     0.006 C 
ENDBRANCH   8   9
BRANCH   8  11
ATOM     11  C   LIG d   1       1.856  81.065 111.998  0.00  0.00     0.028 C 
ATOM     12  C   LIG d   1       1.576  80.899 113.500  0.00  0.00     0.006 C 
ENDBRANCH   8  11
ENDBRANCH   7   8
ENDBRANCH   1   7
BRANCH   6  13
ATOM     13  N   LIG d   1       1.015  85.386 111.463  0.00  0.00    -0.311 N 
ATOM     14  C   LIG d   1      -0.295  85.274 111.245  0.00  0.00     0.210 C 
ATOM     15  C   LIG d   1      -0.823  86.082 110.055  0.00  0.00     0.109 C 
ATOM     16  O   LIG d   1      -1.074  84.608 111.943  0.00  0.00    -0.276 OA
ATOM     17  H   LIG d   1       1.565  85.973 110.868  0.00  0.00     0.149 HD
ENDBRANCH   6  13
BRANCH   5  18
ATOM     18  N   LIG d   1       0.581  85.878 114.447  0.00  0.00     0.381 N 
ATOM     19  H   LIG d   1       0.654  85.813 115.443  0.00  0.00    -0.090 HD
ATOM     20  H   LIG d   1      -0.113  85.219 114.139  0.00  0.00    -0.090 HD
ATOM     21  H   LIG d   1       0.312  86.801 114.186  0.00  0.00    -0.090 HD
ENDBRANCH   5  18
BRANCH   3  22
ATOM     22  C   LIG d   1       4.967  84.119 115.225  0.00  0.00     0.382 C 
ATOM     23  O   LIG d   1       5.418  85.121 115.831  0.00  0.00    -0.241 OA
ATOM     24  O   LIG d   1       5.516  83.012 115.378  0.00  0.00    -0.241 OA
ENDBRANCH   3  22
TORSDOF 7
ENDMDL
