MODEL 1
REMARK VINA RESULT:      -5.8      0.000      0.000
REMARK  7 active torsions:
REMARK  status: ('A' for Active; 'I' for Inactive)
REMARK    1  A    between atoms: C_2  and  C_3 
REMARK    2  A    between atoms: C_3  and  O_6 
REMARK    3  A    between atoms: C_3  and  C_4 
REMARK    4  A    between atoms: C_7  and  O_6 
REMARK    5  A    between atoms: C_9  and  C_10 
REMARK    6  A    between atoms: N_15  and  C_14 
REMARK    7  A    between atoms: N_20  and  C_19 
REMARK       I    between atoms: C_22  and  N_20 
ROOT
ATOM      1  C   LIG d   1       3.469  85.899 112.143  0.00  0.00     0.161 C 
ATOM      2  C   LIG d   1       3.998  87.194 112.022  0.00  0.00     0.016 C 
ATOM      3  C   LIG d   1       4.515  87.929 113.113  0.00  0.00     0.038 C 
ATOM      4  C   LIG d   1       4.677  87.355 114.383  0.00  0.00     0.028 C 
ATOM      5  C   LIG d   1       3.693  86.225 114.667  0.00  0.00    -0.047 C 
ATOM      6  C   LIG d   1       3.739  85.214 113.499  0.00  0.00     0.091 C 
ENDROOT
BRANCH   1   7
ATOM      7  O   LIG d   1       3.945  85.073 111.061  0.00  0.00    -0.368 OA
BRANCH   7   8
ATOM      8  C   LIG d   1       2.965  84.712 110.057  0.00  0.00     0.119 C 
BRANCH   8   9
ATOM      9  C   LIG d   1       1.842  85.765 110.105  0.00  0.00     0.028 C 
ATOM     10  C   LIG d   1       0.441  85.132 110.055  0.00  0.00     0.006 C 
ENDBRANCH   8   9
BRANCH   8  11
ATOM     11  C   LIG d   1       2.287  83.380 110.393  0.00  0.00     0.028 C 
ATOM     12  C   LIG d   1       3.255  82.188 110.337  0.00  0.00     0.006 C 
ENDBRANCH   8  11
ENDBRANCH   7   8
ENDBRANCH   1   7
BRANCH   6  13
ATOM     13  N   LIG d   1       2.746  84.120 113.657  0.00  0.00    -0.311 N 
ATOM     14  C   LIG d   1       2.992  82.998 114.330  0.00  0.00     0.210 C 
ATOM     15  C   LIG d   1       1.837  81.991 114.354  0.00  0.00     0.109 C 
ATOM     16  O   LIG d   1       4.045  82.754 114.938  0.00  0.00    -0.276 OA
ATOM     17  H   LIG d   1       1.853  84.248 113.221  0.00  0.00     0.149 HD
ENDBRANCH   6  13
BRANCH   5  18
ATOM     18  N   LIG d   1       4.063  85.628 115.964  0.00  0.00     0.381 N 
ATOM     19  H   LIG d   1       3.380  85.868 116.655  0.00  0.00    -0.090 HD
ATOM     20  H   LIG d   1       4.950  86.002 116.253  0.00  0.00    -0.090 HD
ATOM     21  H   LIG d   1       4.124  84.637 115.878  0.00  0.00    -0.090 HD
ENDBRANCH   5  18
BRANCH   3  22
ATOM     22  C   LIG d   1       4.839  89.267 112.949  0.00  0.00     0.382 C 
ATOM     23  O   LIG d   1       6.024  89.600 112.709  0.00  0.00    -0.241 OA
ATOM     24  O   LIG d   1       3.969  90.149 113.082  0.00  0.00    -0.241 OA
ENDBRANCH   3  22
TORSDOF 7
ENDMDL
MODEL 2
REMARK VINA RESULT:      -5.6      1.172      2.019
REMARK  7 active torsions:
REMARK  status: ('A' for Active; 'I' for Inactive)
REMARK    1  A    between atoms: C_2  and  C_3 
REMARK    2  A    between atoms: C_3  and  O_6 
REMARK    3  A    between atoms: C_3  and  C_4 
REMARK    4  A    between atoms: C_7  and  O_6 
REMARK    5  A    between atoms: C_9  and  C_10 
REMARK    6  A    between atoms: N_15  and  C_14 
REMARK    7  A    between atoms: N_20  and  C_19 
REMARK       I    between atoms: C_22  and  N_20 
ROOT
ATOM      1  C   LIG d   1       3.566  85.771 113.125  0.00  0.00     0.161 C 
ATOM      2  C   LIG d   1       3.883  87.061 112.667  0.00  0.00     0.016 C 
ATOM      3  C   LIG d   1       4.615  88.000 113.430  0.00  0.00     0.038 C 
ATOM      4  C   LIG d   1       5.214  87.657 114.651  0.00  0.00     0.028 C 
ATOM      5  C   LIG d   1       4.496  86.527 115.382  0.00  0.00    -0.047 C 
ATOM      6  C   LIG d   1       4.306  85.341 114.409  0.00  0.00     0.091 C 
ENDROOT
BRANCH   1   7
ATOM      7  O   LIG d   1       3.787  84.811 112.073  0.00  0.00    -0.368 OA
BRANCH   7   8
ATOM      8  C   LIG d   1       2.600  84.259 111.453  0.00  0.00     0.119 C 
BRANCH   8   9
ATOM      9  C   LIG d   1       2.861  82.761 111.205  0.00  0.00     0.028 C 
ATOM     10  C   LIG d   1       2.147  81.863 112.229  0.00  0.00     0.006 C 
ENDBRANCH   8   9
BRANCH   8  11
ATOM     11  C   LIG d   1       2.362  84.865 110.067  0.00  0.00     0.028 C 
ATOM     12  C   LIG d   1       1.227  85.900 110.055  0.00  0.00     0.006 C 
ENDBRANCH   8  11
ENDBRANCH   7   8
ENDBRANCH   1   7
BRANCH   6  13
ATOM     13  N   LIG d   1       3.537  84.225 115.019  0.00  0.00    -0.311 N 
ATOM     14  C   LIG d   1       4.108  83.144 115.546  0.00  0.00     0.210 C 
ATOM     15  C   LIG d   1       3.131  82.104 116.104  0.00  0.00     0.109 C 
ATOM     16  O   LIG d   1       5.332  82.961 115.634  0.00  0.00    -0.276 OA
ATOM     17  H   LIG d   1       2.539  84.305 115.018  0.00  0.00     0.149 HD
ENDBRANCH   6  13
BRANCH   5  18
ATOM     18  N   LIG d   1       5.303  86.179 116.567  0.00  0.00     0.381 N 
ATOM     19  H   LIG d   1       4.821  85.496 117.116  0.00  0.00    -0.090 HD
ATOM     20  H   LIG d   1       5.429  87.003 117.127  0.00  0.00    -0.090 HD
ATOM     21  H   LIG d   1       6.189  85.823 116.283  0.00  0.00    -0.090 HD
ENDBRANCH   5  18
BRANCH   3  22
ATOM     22  C   LIG d   1       4.720  89.310 112.990  0.00  0.00     0.382 C 
ATOM     23  O   LIG d   1       3.716  90.063 113.016  0.00  0.00    -0.241 OA
ATOM     24  O   LIG d   1       5.794  89.737 112.526  0.00  0.00    -0.241 OA
ENDBRANCH   3  22
TORSDOF 7
ENDMDL
MODEL 3
REMARK VINA RESULT:      -5.6     12.778     15.176
REMARK  7 active torsions:
REMARK  status: ('A' for Active; 'I' for Inactive)
REMARK    1  A    between atoms: C_2  and  C_3 
REMARK    2  A    between atoms: C_3  and  O_6 
REMARK    3  A    between atoms: C_3  and  C_4 
REMARK    4  A    between atoms: C_7  and  O_6 
REMARK    5  A    between atoms: C_9  and  C_10 
REMARK    6  A    between atoms: N_15  and  C_14 
REMARK    7  A    between atoms: N_20  and  C_19 
REMARK       I    between atoms: C_22  and  N_20 
ROOT
ATOM      1  C   LIG d   1      -6.090  75.065 117.916  0.00  0.00     0.161 C 
ATOM      2  C   LIG d   1      -7.468  75.334 117.873  0.00  0.00     0.016 C 
ATOM      3  C   LIG d   1      -8.004  76.637 117.749  0.00  0.00     0.038 C 
ATOM      4  C   LIG d   1      -7.189  77.753 117.506  0.00  0.00     0.028 C 
ATOM      5  C   LIG d   1      -5.771  77.597 118.046  0.00  0.00    -0.047 C 
ATOM      6  C   LIG d   1      -5.187  76.258 117.541  0.00  0.00     0.091 C 
ENDROOT
BRANCH   1   7
ATOM      7  O   LIG d   1      -5.789  73.927 117.085  0.00  0.00    -0.368 OA
BRANCH   7   8
ATOM      8  C   LIG d   1      -6.662  73.719 115.948  0.00  0.00     0.119 C 
BRANCH   8   9
ATOM      9  C   LIG d   1      -7.008  72.218 115.898  0.00  0.00     0.028 C 
ATOM     10  C   LIG d   1      -8.314  71.892 116.642  0.00  0.00     0.006 C 
ENDBRANCH   8   9
BRANCH   8  11
ATOM     11  C   LIG d   1      -5.940  74.012 114.629  0.00  0.00     0.028 C 
ATOM     12  C   LIG d   1      -6.203  75.435 114.110  0.00  0.00     0.006 C 
ENDBRANCH   8  11
ENDBRANCH   7   8
ENDBRANCH   1   7
BRANCH   6  13
ATOM     13  N   LIG d   1      -3.833  75.988 118.091  0.00  0.00    -0.311 N 
ATOM     14  C   LIG d   1      -2.763  75.765 117.329  0.00  0.00     0.210 C 
ATOM     15  C   LIG d   1      -1.468  75.487 118.098  0.00  0.00     0.109 C 
ATOM     16  O   LIG d   1      -2.757  75.802 116.089  0.00  0.00    -0.276 OA
ATOM     17  H   LIG d   1      -3.741  75.970 119.087  0.00  0.00     0.149 HD
ENDBRANCH   6  13
BRANCH   5  18
ATOM     18  N   LIG d   1      -4.995  78.771 117.603  0.00  0.00     0.381 N 
ATOM     19  H   LIG d   1      -5.609  79.546 117.452  0.00  0.00    -0.090 HD
ATOM     20  H   LIG d   1      -4.543  78.552 116.733  0.00  0.00    -0.090 HD
ATOM     21  H   LIG d   1      -4.313  79.007 118.290  0.00  0.00    -0.090 HD
ENDBRANCH   5  18
BRANCH   3  22
ATOM     22  C   LIG d   1      -9.366  76.838 117.909  0.00  0.00     0.382 C 
ATOM     23  O   LIG d   1      -9.794  77.950 118.303  0.00  0.00    -0.241 OA
ATOM     24  O   LIG d   1     -10.170  75.909 117.705  0.00  0.00    -0.241 OA
ENDBRANCH   3  22
TORSDOF 7
ENDMDL
MODEL 4
REMARK VINA RESULT:      -5.6      2.324      4.211
REMARK  7 active torsions:
REMARK  status: ('A' for Active; 'I' for Inactive)
REMARK    1  A    between atoms: C_2  and  C_3 
REMARK    2  A    between atoms: C_3  and  O_6 
REMARK    3  A    between atoms: C_3  and  C_4 
REMARK    4  A    between atoms: C_7  and  O_6 
REMARK    5  A    between atoms: C_9  and  C_10 
REMARK    6  A    between atoms: N_15  and  C_14 
REMARK    7  A    between atoms: N_20  and  C_19 
REMARK       I    between atoms: C_22  and  N_20 
ROOT
ATOM      1  C   LIG d   1       3.209  84.303 111.733  0.00  0.00     0.161 C 
ATOM      2  C   LIG d   1       3.608  85.611 112.055  0.00  0.00     0.016 C 
ATOM      3  C   LIG d   1       2.754  86.733 111.947  0.00  0.00     0.038 C 
ATOM      4  C   LIG d   1       1.389  86.600 111.653  0.00  0.00     0.028 C 
ATOM      5  C   LIG d   1       1.064  85.358 110.830  0.00  0.00    -0.047 C 
ATOM      6  C   LIG d   1       1.692  84.123 111.517  0.00  0.00     0.091 C 
ENDROOT
BRANCH   1   7
ATOM      7  O   LIG d   1       3.684  83.387 112.740  0.00  0.00    -0.368 OA
BRANCH   7   8
ATOM      8  C   LIG d   1       2.981  83.411 114.007  0.00  0.00     0.119 C 
BRANCH   8   9
ATOM      9  C   LIG d   1       4.034  83.593 115.117  0.00  0.00     0.028 C 
ATOM     10  C   LIG d   1       4.114  85.044 115.619  0.00  0.00     0.006 C 
ENDBRANCH   8   9
BRANCH   8  11
ATOM     11  C   LIG d   1       2.311  82.065 114.299  0.00  0.00     0.028 C 
ATOM     12  C   LIG d   1       1.633  82.024 115.677  0.00  0.00     0.006 C 
ENDBRANCH   8  11
ENDBRANCH   7   8
ENDBRANCH   1   7
BRANCH   6  13
ATOM     13  N   LIG d   1       1.494  82.877 110.733  0.00  0.00    -0.311 N 
ATOM     14  C   LIG d   1       0.509  82.012 110.967  0.00  0.00     0.210 C 
ATOM     15  C   LIG d   1       0.498  80.781 110.055  0.00  0.00     0.109 C 
ATOM     16  O   LIG d   1      -0.376  82.163 111.823  0.00  0.00    -0.276 OA
ATOM     17  H   LIG d   1       2.149  82.691 109.999  0.00  0.00     0.149 HD
ENDBRANCH   6  13
BRANCH   5  18
ATOM     18  N   LIG d   1      -0.403  85.271 110.714  0.00  0.00     0.381 N 
ATOM     19  H   LIG d   1      -0.654  84.990 109.787  0.00  0.00    -0.090 HD
ATOM     20  H   LIG d   1      -0.798  86.179 110.886  0.00  0.00    -0.090 HD
ATOM     21  H   LIG d   1      -0.760  84.615 111.375  0.00  0.00    -0.090 HD
ENDBRANCH   5  18
BRANCH   3  22
ATOM     22  C   LIG d   1       3.274  88.010 112.097  0.00  0.00     0.382 C 
ATOM     23  O   LIG d   1       4.508  88.202 111.976  0.00  0.00    -0.241 OA
ATOM     24  O   LIG d   1       2.531  88.964 112.394  0.00  0.00    -0.241 OA
ENDBRANCH   3  22
TORSDOF 7
ENDMDL
MODEL 5
REMARK VINA RESULT:      -5.2     10.218     14.403
REMARK  7 active torsions:
REMARK  status: ('A' for Active; 'I' for Inactive)
REMARK    1  A    between atoms: C_2  and  C_3 
REMARK    2  A    between atoms: C_3  and  O_6 
REMARK    3  A    between atoms: C_3  and  C_4 
REMARK    4  A    between atoms: C_7  and  O_6 
REMARK    5  A    between atoms: C_9  and  C_10 
REMARK    6  A    between atoms: N_15  and  C_14 
REMARK    7  A    between atoms: N_20  and  C_19 
REMARK       I    between atoms: C_22  and  N_20 
ROOT
ATOM      1  C   LIG d   1      -4.374  75.359 116.526  0.00  0.00     0.161 C 
ATOM      2  C   LIG d   1      -5.327  74.382 116.860  0.00  0.00     0.016 C 
ATOM      3  C   LIG d   1      -6.204  73.795 115.919  0.00  0.00     0.038 C 
ATOM      4  C   LIG d   1      -6.083  74.037 114.542  0.00  0.00     0.028 C 
ATOM      5  C   LIG d   1      -5.470  75.395 114.218  0.00  0.00    -0.047 C 
ATOM      6  C   LIG d   1      -4.153  75.554 115.011  0.00  0.00     0.091 C 
ENDROOT
BRANCH   1   7
ATOM      7  O   LIG d   1      -3.124  75.066 117.181  0.00  0.00    -0.368 OA
BRANCH   7   8
ATOM      8  C   LIG d   1      -2.732  75.975 118.239  0.00  0.00     0.119 C 
BRANCH   8   9
ATOM      9  C   LIG d   1      -3.789  77.094 118.305  0.00  0.00     0.028 C 
ATOM     10  C   LIG d   1      -3.174  78.493 118.137  0.00  0.00     0.006 C 
ENDBRANCH   8   9
BRANCH   8  11
ATOM     11  C   LIG d   1      -1.414  76.681 117.907  0.00  0.00     0.028 C 
ATOM     12  C   LIG d   1      -0.493  75.835 117.014  0.00  0.00     0.006 C 
ENDBRANCH   8  11
ENDBRANCH   7   8
ENDBRANCH   1   7
BRANCH   6  13
ATOM     13  N   LIG d   1      -3.531  76.890 114.816  0.00  0.00    -0.311 N 
ATOM     14  C   LIG d   1      -2.410  77.082 114.123  0.00  0.00     0.210 C 
ATOM     15  C   LIG d   1      -1.929  78.535 114.062  0.00  0.00     0.109 C 
ATOM     16  O   LIG d   1      -1.786  76.192 113.526  0.00  0.00    -0.276 OA
ATOM     17  H   LIG d   1      -3.989  77.672 115.240  0.00  0.00     0.149 HD
ENDBRANCH   6  13
BRANCH   5  18
ATOM     18  N   LIG d   1      -5.276  75.459 112.757  0.00  0.00     0.381 N 
ATOM     19  H   LIG d   1      -5.114  74.540 112.396  0.00  0.00    -0.090 HD
ATOM     20  H   LIG d   1      -4.467  76.022 112.560  0.00  0.00    -0.090 HD
ATOM     21  H   LIG d   1      -6.080  75.857 112.323  0.00  0.00    -0.090 HD
ENDBRANCH   5  18
BRANCH   3  22
ATOM     22  C   LIG d   1      -7.241  72.986 116.357  0.00  0.00     0.382 C 
ATOM     23  O   LIG d   1      -7.442  71.874 115.811  0.00  0.00    -0.241 OA
ATOM     24  O   LIG d   1      -8.005  73.372 117.262  0.00  0.00    -0.241 OA
ENDBRANCH   3  22
TORSDOF 7
ENDMDL
MODEL 6
REMARK VINA RESULT:      -5.1      3.152      4.749
REMARK  7 active torsions:
REMARK  status: ('A' for Active; 'I' for Inactive)
REMARK    1  A    between atoms: C_2  and  C_3 
REMARK    2  A    between atoms: C_3  and  O_6 
REMARK    3  A    between atoms: C_3  and  C_4 
REMARK    4  A    between atoms: C_7  and  O_6 
REMARK    5  A    between atoms: C_9  and  C_10 
REMARK    6  A    between atoms: N_15  and  C_14 
REMARK    7  A    between atoms: N_20  and  C_19 
REMARK       I    between atoms: C_22  and  N_20 
ROOT
ATOM      1  C   LIG d   1       4.140  87.129 115.568  0.00  0.00     0.161 C 
ATOM      2  C   LIG d   1       3.312  88.262 115.621  0.00  0.00     0.016 C 
ATOM      3  C   LIG d   1       3.630  89.424 116.361  0.00  0.00     0.038 C 
ATOM      4  C   LIG d   1       4.878  89.590 116.981  0.00  0.00     0.028 C 
ATOM      5  C   LIG d   1       5.538  88.273 117.374  0.00  0.00    -0.047 C 
ATOM      6  C   LIG d   1       5.555  87.334 116.147  0.00  0.00     0.091 C 
ENDROOT
BRANCH   1   7
ATOM      7  O   LIG d   1       4.219  86.644 114.213  0.00  0.00    -0.368 OA
BRANCH   7   8
ATOM      8  C   LIG d   1       3.884  87.597 113.174  0.00  0.00     0.119 C 
BRANCH   8   9
ATOM      9  C   LIG d   1       3.040  86.856 112.119  0.00  0.00     0.028 C 
ATOM     10  C   LIG d   1       3.891  85.937 111.227  0.00  0.00     0.006 C 
ENDBRANCH   8   9
BRANCH   8  11
ATOM     11  C   LIG d   1       5.136  88.073 112.431  0.00  0.00     0.028 C 
ATOM     12  C   LIG d   1       5.737  89.353 113.034  0.00  0.00     0.006 C 
ENDBRANCH   8  11
ENDBRANCH   7   8
ENDBRANCH   1   7
BRANCH   6  13
ATOM     13  N   LIG d   1       6.109  85.992 116.468  0.00  0.00    -0.311 N 
ATOM     14  C   LIG d   1       7.388  85.666 116.290  0.00  0.00     0.210 C 
ATOM     15  C   LIG d   1       7.745  84.224 116.666  0.00  0.00     0.109 C 
ATOM     16  O   LIG d   1       8.267  86.442 115.887  0.00  0.00    -0.276 OA
ATOM     17  H   LIG d   1       5.471  85.310 116.829  0.00  0.00     0.149 HD
ENDBRANCH   6  13
BRANCH   5  18
ATOM     18  N   LIG d   1       6.887  88.586 117.882  0.00  0.00     0.381 N 
ATOM     19  H   LIG d   1       7.047  89.572 117.834  0.00  0.00    -0.090 HD
ATOM     20  H   LIG d   1       7.568  88.128 117.302  0.00  0.00    -0.090 HD
ATOM     21  H   LIG d   1       6.978  88.273 118.824  0.00  0.00    -0.090 HD
ENDBRANCH   5  18
BRANCH   3  22
ATOM     22  C   LIG d   1       2.678  90.420 116.519  0.00  0.00     0.382 C 
ATOM     23  O   LIG d   1       3.030  91.624 116.554  0.00  0.00    -0.241 OA
ATOM     24  O   LIG d   1       1.477  90.127 116.673  0.00  0.00    -0.241 OA
ENDBRANCH   3  22
TORSDOF 7
ENDMDL
MODEL 7
REMARK VINA RESULT:      -5.1     12.085     14.235
REMARK  7 active torsions:
REMARK  status: ('A' for Active; 'I' for Inactive)
REMARK    1  A    between atoms: C_2  and  C_3 
REMARK    2  A    between atoms: C_3  and  O_6 
REMARK    3  A    between atoms: C_3  and  C_4 
REMARK    4  A    between atoms: C_7  and  O_6 
REMARK    5  A    between atoms: C_9  and  C_10 
REMARK    6  A    between atoms: N_15  and  C_14 
REMARK    7  A    between atoms: N_20  and  C_19 
REMARK       I    between atoms: C_22  and  N_20 
ROOT
ATOM      1  C   LIG d   1      -5.135  75.458 115.550  0.00  0.00     0.161 C 
ATOM      2  C   LIG d   1      -5.924  75.672 114.408  0.00  0.00     0.016 C 
ATOM      3  C   LIG d   1      -5.394  76.068 113.159  0.00  0.00     0.038 C 
ATOM      4  C   LIG d   1      -4.012  76.131 112.926  0.00  0.00     0.028 C 
ATOM      5  C   LIG d   1      -3.198  76.413 114.185  0.00  0.00    -0.047 C 
ATOM      6  C   LIG d   1      -3.615  75.413 115.287  0.00  0.00     0.091 C 
ENDROOT
BRANCH   1   7
ATOM      7  O   LIG d   1      -5.563  74.256 116.221  0.00  0.00    -0.368 OA
BRANCH   7   8
ATOM      8  C   LIG d   1      -6.583  74.422 117.237  0.00  0.00     0.119 C 
BRANCH   8   9
ATOM      9  C   LIG d   1      -7.573  73.250 117.094  0.00  0.00     0.028 C 
ATOM     10  C   LIG d   1      -7.185  72.289 115.958  0.00  0.00     0.006 C 
ENDBRANCH   8   9
BRANCH   8  11
ATOM     11  C   LIG d   1      -7.413  75.686 116.992  0.00  0.00     0.028 C 
ATOM     12  C   LIG d   1      -8.806  75.618 117.638  0.00  0.00     0.006 C 
ENDBRANCH   8  11
ENDBRANCH   7   8
ENDBRANCH   1   7
BRANCH   6  13
ATOM     13  N   LIG d   1      -2.927  75.673 116.578  0.00  0.00    -0.311 N 
ATOM     14  C   LIG d   1      -1.768  75.112 116.918  0.00  0.00     0.210 C 
ATOM     15  C   LIG d   1      -1.243  75.501 118.303  0.00  0.00     0.109 C 
ATOM     16  O   LIG d   1      -1.110  74.353 116.190  0.00  0.00    -0.276 OA
ATOM     17  H   LIG d   1      -3.376  76.301 117.216  0.00  0.00     0.149 HD
ENDBRANCH   6  13
BRANCH   5  18
ATOM     18  N   LIG d   1      -1.771  76.314 113.824  0.00  0.00     0.381 N 
ATOM     19  H   LIG d   1      -1.257  75.912 114.583  0.00  0.00    -0.090 HD
ATOM     20  H   LIG d   1      -1.413  77.238 113.656  0.00  0.00    -0.090 HD
ATOM     21  H   LIG d   1      -1.664  75.754 113.007  0.00  0.00    -0.090 HD
ENDBRANCH   5  18
BRANCH   3  22
ATOM     22  C   LIG d   1      -6.251  76.446 112.136  0.00  0.00     0.382 C 
ATOM     23  O   LIG d   1      -6.029  76.069 110.960  0.00  0.00    -0.241 OA
ATOM     24  O   LIG d   1      -7.219  77.195 112.368  0.00  0.00    -0.241 OA
ENDBRANCH   3  22
TORSDOF 7
ENDMDL
MODEL 8
REMARK VINA RESULT:      -5.1      9.962     12.141
REMARK  7 active torsions:
REMARK  status: ('A' for Active; 'I' for Inactive)
REMARK    1  A    between atoms: C_2  and  C_3 
REMARK    2  A    between atoms: C_3  and  O_6 
REMARK    3  A    between atoms: C_3  and  C_4 
REMARK    4  A    between atoms: C_7  and  O_6 
REMARK    5  A    between atoms: C_9  and  C_10 
REMARK    6  A    between atoms: N_15  and  C_14 
REMARK    7  A    between atoms: N_20  and  C_19 
REMARK       I    between atoms: C_22  and  N_20 
ROOT
ATOM      1  C   LIG d   1      -2.711  76.335 116.366  0.00  0.00     0.161 C 
ATOM      2  C   LIG d   1      -3.379  77.393 117.004  0.00  0.00     0.016 C 
ATOM      3  C   LIG d   1      -3.359  78.725 116.529  0.00  0.00     0.038 C 
ATOM      4  C   LIG d   1      -2.790  79.062 115.292  0.00  0.00     0.028 C 
ATOM      5  C   LIG d   1      -1.671  78.119 114.862  0.00  0.00    -0.047 C 
ATOM      6  C   LIG d   1      -2.178  76.662 114.956  0.00  0.00     0.091 C 
ENDROOT
BRANCH   1   7
ATOM      7  O   LIG d   1      -3.565  75.174 116.323  0.00  0.00    -0.368 OA
BRANCH   7   8
ATOM      8  C   LIG d   1      -4.965  75.423 116.045  0.00  0.00     0.119 C 
BRANCH   8   9
ATOM      9  C   LIG d   1      -5.787  74.716 117.140  0.00  0.00     0.028 C 
ATOM     10  C   LIG d   1      -6.878  73.803 116.556  0.00  0.00     0.006 C 
ENDBRANCH   8   9
BRANCH   8  11
ATOM     11  C   LIG d   1      -5.396  74.771 114.728  0.00  0.00     0.028 C 
ATOM     12  C   LIG d   1      -5.630  75.793 113.605  0.00  0.00     0.006 C 
ENDBRANCH   8  11
ENDBRANCH   7   8
ENDBRANCH   1   7
BRANCH   6  13
ATOM     13  N   LIG d   1      -1.119  75.671 114.634  0.00  0.00    -0.311 N 
ATOM     14  C   LIG d   1      -1.300  74.649 113.799  0.00  0.00     0.210 C 
ATOM     15  C   LIG d   1      -0.084  73.735 113.623  0.00  0.00     0.109 C 
ATOM     16  O   LIG d   1      -2.342  74.432 113.163  0.00  0.00    -0.276 OA
ATOM     17  H   LIG d   1      -0.231  75.791 115.082  0.00  0.00     0.149 HD
ENDBRANCH   6  13
BRANCH   5  18
ATOM     18  N   LIG d   1      -1.264  78.503 113.498  0.00  0.00     0.381 N 
ATOM     19  H   LIG d   1      -0.752  79.363 113.526  0.00  0.00    -0.090 HD
ATOM     20  H   LIG d   1      -2.088  78.645 112.940  0.00  0.00    -0.090 HD
ATOM     21  H   LIG d   1      -0.700  77.787 113.095  0.00  0.00    -0.090 HD
ENDBRANCH   5  18
BRANCH   3  22
ATOM     22  C   LIG d   1      -3.878  79.743 117.315  0.00  0.00     0.382 C 
ATOM     23  O   LIG d   1      -3.193  80.224 118.250  0.00  0.00    -0.241 OA
ATOM     24  O   LIG d   1      -5.038  80.156 117.128  0.00  0.00    -0.241 OA
ENDBRANCH   3  22
TORSDOF 7
ENDMDL
MODEL 9
REMARK VINA RESULT:      -5.0      5.843      9.859
REMARK  7 active torsions:
REMARK  status: ('A' for Active; 'I' for Inactive)
REMARK    1  A    between atoms: C_2  and  C_3 
REMARK    2  A    between atoms: C_3  and  O_6 
REMARK    3  A    between atoms: C_3  and  C_4 
REMARK    4  A    between atoms: C_7  and  O_6 
REMARK    5  A    between atoms: C_9  and  C_10 
REMARK    6  A    between atoms: N_15  and  C_14 
REMARK    7  A    between atoms: N_20  and  C_19 
REMARK       I    between atoms: C_22  and  N_20 
ROOT
ATOM      1  C   LIG d   1      -2.234  80.411 114.430  0.00  0.00     0.161 C 
ATOM      2  C   LIG d   1      -2.652  79.208 115.023  0.00  0.00     0.016 C 
ATOM      3  C   LIG d   1      -2.645  77.964 114.351  0.00  0.00     0.038 C 
ATOM      4  C   LIG d   1      -2.073  77.813 113.079  0.00  0.00     0.028 C 
ATOM      5  C   LIG d   1      -2.100  79.090 112.246  0.00  0.00    -0.047 C 
ATOM      6  C   LIG d   1      -1.503  80.246 113.081  0.00  0.00     0.091 C 
ENDROOT
BRANCH   1   7
ATOM      7  O   LIG d   1      -1.417  81.154 115.355  0.00  0.00    -0.368 OA
BRANCH   7   8
ATOM      8  C   LIG d   1      -0.757  80.380 116.387  0.00  0.00     0.119 C 
BRANCH   8   9
ATOM      9  C   LIG d   1      -0.976  81.112 117.725  0.00  0.00     0.028 C 
ATOM     10  C   LIG d   1      -2.429  81.579 117.909  0.00  0.00     0.006 C 
ENDBRANCH   8   9
BRANCH   8  11
ATOM     11  C   LIG d   1       0.760  80.355 116.181  0.00  0.00     0.028 C 
ATOM     12  C   LIG d   1       1.255  81.484 115.263  0.00  0.00     0.006 C 
ENDBRANCH   8  11
ENDBRANCH   7   8
ENDBRANCH   1   7
BRANCH   6  13
ATOM     13  N   LIG d   1      -1.569  81.550 112.371  0.00  0.00    -0.311 N 
ATOM     14  C   LIG d   1      -0.558  82.052 111.664  0.00  0.00     0.210 C 
ATOM     15  C   LIG d   1      -0.829  83.419 111.029  0.00  0.00     0.109 C 
ATOM     16  O   LIG d   1       0.526  81.479 111.474  0.00  0.00    -0.276 OA
ATOM     17  H   LIG d   1      -2.423  82.067 112.446  0.00  0.00     0.149 HD
ENDBRANCH   6  13
BRANCH   5  18
ATOM     18  N   LIG d   1      -1.351  78.827 111.003  0.00  0.00     0.381 N 
ATOM     19  H   LIG d   1      -0.368  78.860 111.186  0.00  0.00    -0.090 HD
ATOM     20  H   LIG d   1      -1.571  79.544 110.334  0.00  0.00    -0.090 HD
ATOM     21  H   LIG d   1      -1.598  77.934 110.638  0.00  0.00    -0.090 HD
ENDBRANCH   5  18
BRANCH   3  22
ATOM     22  C   LIG d   1      -3.251  76.863 114.936  0.00  0.00     0.382 C 
ATOM     23  O   LIG d   1      -4.404  76.965 115.419  0.00  0.00    -0.241 OA
ATOM     24  O   LIG d   1      -2.641  75.780 115.026  0.00  0.00    -0.241 OA
ENDBRANCH   3  22
TORSDOF 7
ENDMDL
