MODEL 1
REMARK VINA RESULT:      -5.3      0.000      0.000
REMARK  7 active torsions:
REMARK  status: ('A' for Active; 'I' for Inactive)
REMARK    1  A    between atoms: C_2  and  C_3 
REMARK    2  A    between atoms: C_3  and  O_6 
REMARK    3  A    between atoms: C_3  and  C_4 
REMARK    4  A    between atoms: C_7  and  O_6 
REMARK    5  A    between atoms: C_9  and  C_10 
REMARK    6  A    between atoms: N_15  and  C_14 
REMARK    7  A    between atoms: N_20  and  C_19 
REMARK       I    between atoms: C_22  and  N_20 
ROOT
ATOM      1  C   LIG d   1       1.988  86.881 112.644  0.00  0.00     0.161 C 
ATOM      2  C   LIG d   1       0.764  86.335 112.222  0.00  0.00     0.016 C 
ATOM      3  C   LIG d   1       0.666  85.254 111.316  0.00  0.00     0.038 C 
ATOM      4  C   LIG d   1       1.795  84.543 110.885  0.00  0.00     0.028 C 
ATOM      5  C   LIG d   1       3.073  85.376 110.887  0.00  0.00    -0.047 C 
ATOM      6  C   LIG d   1       3.231  86.047 112.271  0.00  0.00     0.091 C 
ENDROOT
BRANCH   1   7
ATOM      7  O   LIG d   1       1.952  87.119 114.065  0.00  0.00    -0.368 OA
BRANCH   7   8
ATOM      8  C   LIG d   1       1.094  86.243 114.837  0.00  0.00     0.119 C 
BRANCH   8   9
ATOM      9  C   LIG d   1       0.509  87.072 115.997  0.00  0.00     0.028 C 
ATOM     10  C   LIG d   1       0.865  86.487 117.374  0.00  0.00     0.006 C 
ENDBRANCH   8   9
BRANCH   8  11
ATOM     11  C   LIG d   1       1.898  85.123 115.504  0.00  0.00     0.028 C 
ATOM     12  C   LIG d   1       1.717  83.764 114.808  0.00  0.00     0.006 C 
ENDBRANCH   8  11
ENDBRANCH   7   8
ENDBRANCH   1   7
BRANCH   6  13
ATOM     13  N   LIG d   1       4.412  86.948 112.332  0.00  0.00    -0.311 N 
ATOM     14  C   LIG d   1       5.250  86.988 113.366  0.00  0.00     0.210 C 
ATOM     15  C   LIG d   1       6.391  88.003 113.234  0.00  0.00     0.109 C 
ATOM     16  O   LIG d   1       5.177  86.257 114.365  0.00  0.00    -0.276 OA
ATOM     17  H   LIG d   1       4.565  87.553 111.549  0.00  0.00     0.149 HD
ENDBRANCH   6  13
BRANCH   5  18
ATOM     18  N   LIG d   1       4.192  84.476 110.550  0.00  0.00     0.381 N 
ATOM     19  H   LIG d   1       4.793  84.919 109.884  0.00  0.00    -0.090 HD
ATOM     20  H   LIG d   1       3.822  83.640 110.133  0.00  0.00    -0.090 HD
ATOM     21  H   LIG d   1       4.706  84.248 111.372  0.00  0.00    -0.090 HD
ENDBRANCH   5  18
BRANCH   3  22
ATOM     22  C   LIG d   1      -0.572  84.900 110.801  0.00  0.00     0.382 C 
ATOM     23  O   LIG d   1      -0.932  83.698 110.806  0.00  0.00    -0.241 OA
ATOM     24  O   LIG d   1      -1.314  85.761 110.291  0.00  0.00    -0.241 OA
ENDBRANCH   3  22
TORSDOF 7
ENDMDL
MODEL 2
REMARK VINA RESULT:      -5.3     25.540     28.150
REMARK  7 active torsions:
REMARK  status: ('A' for Active; 'I' for Inactive)
REMARK    1  A    between atoms: C_2  and  C_3 
REMARK    2  A    between atoms: C_3  and  O_6 
REMARK    3  A    between atoms: C_3  and  C_4 
REMARK    4  A    between atoms: C_7  and  O_6 
REMARK    5  A    between atoms: C_9  and  C_10 
REMARK    6  A    between atoms: N_15  and  C_14 
REMARK    7  A    between atoms: N_20  and  C_19 
REMARK       I    between atoms: C_22  and  N_20 
ROOT
ATOM      1  C   LIG d   1     -25.685  85.326 112.856  0.00  0.00     0.161 C 
ATOM      2  C   LIG d   1     -24.631  86.217 113.118  0.00  0.00     0.016 C 
ATOM      3  C   LIG d   1     -23.359  85.804 113.576  0.00  0.00     0.038 C 
ATOM      4  C   LIG d   1     -23.005  84.449 113.659  0.00  0.00     0.028 C 
ATOM      5  C   LIG d   1     -24.196  83.525 113.888  0.00  0.00    -0.047 C 
ATOM      6  C   LIG d   1     -25.283  83.836 112.834  0.00  0.00     0.091 C 
ENDROOT
BRANCH   1   7
ATOM      7  O   LIG d   1     -26.335  85.687 111.621  0.00  0.00    -0.368 OA
BRANCH   7   8
ATOM      8  C   LIG d   1     -27.084  86.927 111.634  0.00  0.00     0.119 C 
BRANCH   8   9
ATOM      9  C   LIG d   1     -28.564  86.576 111.383  0.00  0.00     0.028 C 
ATOM     10  C   LIG d   1     -28.731  85.408 110.396  0.00  0.00     0.006 C 
ENDBRANCH   8   9
BRANCH   8  11
ATOM     11  C   LIG d   1     -26.680  87.835 110.469  0.00  0.00     0.028 C 
ATOM     12  C   LIG d   1     -26.858  89.328 110.788  0.00  0.00     0.006 C 
ENDBRANCH   8  11
ENDBRANCH   7   8
ENDBRANCH   1   7
BRANCH   6  13
ATOM     13  N   LIG d   1     -26.517  83.034 113.039  0.00  0.00    -0.311 N 
ATOM     14  C   LIG d   1     -27.082  82.300 112.081  0.00  0.00     0.210 C 
ATOM     15  C   LIG d   1     -28.360  81.567 112.498  0.00  0.00     0.109 C 
ATOM     16  O   LIG d   1     -26.627  82.161 110.936  0.00  0.00    -0.276 OA
ATOM     17  H   LIG d   1     -26.936  83.065 113.948  0.00  0.00     0.149 HD
ENDBRANCH   6  13
BRANCH   5  18
ATOM     18  N   LIG d   1     -23.703  82.136 113.816  0.00  0.00     0.381 N 
ATOM     19  H   LIG d   1     -22.978  82.069 113.130  0.00  0.00    -0.090 HD
ATOM     20  H   LIG d   1     -24.459  81.537 113.536  0.00  0.00    -0.090 HD
ATOM     21  H   LIG d   1     -23.356  81.851 114.706  0.00  0.00    -0.090 HD
ENDBRANCH   5  18
BRANCH   3  22
ATOM     22  C   LIG d   1     -22.438  86.752 113.994  0.00  0.00     0.382 C 
ATOM     23  O   LIG d   1     -22.815  87.730 114.684  0.00  0.00    -0.241 OA
ATOM     24  O   LIG d   1     -21.243  86.665 113.654  0.00  0.00    -0.241 OA
ENDBRANCH   3  22
TORSDOF 7
ENDMDL
MODEL 3
REMARK VINA RESULT:      -5.0      2.663      5.578
REMARK  7 active torsions:
REMARK  status: ('A' for Active; 'I' for Inactive)
REMARK    1  A    between atoms: C_2  and  C_3 
REMARK    2  A    between atoms: C_3  and  O_6 
REMARK    3  A    between atoms: C_3  and  C_4 
REMARK    4  A    between atoms: C_7  and  O_6 
REMARK    5  A    between atoms: C_9  and  C_10 
REMARK    6  A    between atoms: N_15  and  C_14 
REMARK    7  A    between atoms: N_20  and  C_19 
REMARK       I    between atoms: C_22  and  N_20 
ROOT
ATOM      1  C   LIG d   1       0.539  84.273 113.119  0.00  0.00     0.161 C 
ATOM      2  C   LIG d   1       0.673  85.540 113.711  0.00  0.00     0.016 C 
ATOM      3  C   LIG d   1       1.454  85.781 114.864  0.00  0.00     0.038 C 
ATOM      4  C   LIG d   1       2.282  84.794 115.419  0.00  0.00     0.028 C 
ATOM      5  C   LIG d   1       1.790  83.374 115.158  0.00  0.00    -0.047 C 
ATOM      6  C   LIG d   1       1.523  83.206 113.644  0.00  0.00     0.091 C 
ENDROOT
BRANCH   1   7
ATOM      7  O   LIG d   1       0.645  84.390 111.686  0.00  0.00    -0.368 OA
BRANCH   7   8
ATOM      8  C   LIG d   1       1.459  85.482 111.194  0.00  0.00     0.119 C 
BRANCH   8   9
ATOM      9  C   LIG d   1       0.678  86.165 110.055  0.00  0.00     0.028 C 
ATOM     10  C   LIG d   1      -0.827  86.267 110.354  0.00  0.00     0.006 C 
ENDBRANCH   8   9
BRANCH   8  11
ATOM     11  C   LIG d   1       2.750  84.969 110.550  0.00  0.00     0.028 C 
ATOM     12  C   LIG d   1       3.996  85.250 111.405  0.00  0.00     0.006 C 
ENDBRANCH   8  11
ENDBRANCH   7   8
ENDBRANCH   1   7
BRANCH   6  13
ATOM     13  N   LIG d   1       0.958  81.872 113.313  0.00  0.00    -0.311 N 
ATOM     14  C   LIG d   1       1.451  81.084 112.359  0.00  0.00     0.210 C 
ATOM     15  C   LIG d   1       0.708  79.758 112.167  0.00  0.00     0.109 C 
ATOM     16  O   LIG d   1       2.453  81.343 111.676  0.00  0.00    -0.276 OA
ATOM     17  H   LIG d   1       0.163  81.569 113.840  0.00  0.00     0.149 HD
ENDBRANCH   6  13
BRANCH   5  18
ATOM     18  N   LIG d   1       2.815  82.446 115.670  0.00  0.00     0.381 N 
ATOM     19  H   LIG d   1       3.719  82.726 115.344  0.00  0.00    -0.090 HD
ATOM     20  H   LIG d   1       2.624  81.524 115.318  0.00  0.00    -0.090 HD
ATOM     21  H   LIG d   1       2.801  82.439 116.666  0.00  0.00    -0.090 HD
ENDBRANCH   5  18
BRANCH   3  22
ATOM     22  C   LIG d   1       1.381  87.012 115.498  0.00  0.00     0.382 C 
ATOM     23  O   LIG d   1       0.487  87.226 116.352  0.00  0.00    -0.241 OA
ATOM     24  O   LIG d   1       2.171  87.927 115.195  0.00  0.00    -0.241 OA
ENDBRANCH   3  22
TORSDOF 7
ENDMDL
MODEL 4
REMARK VINA RESULT:      -4.9      2.760      4.912
REMARK  7 active torsions:
REMARK  status: ('A' for Active; 'I' for Inactive)
REMARK    1  A    between atoms: C_2  and  C_3 
REMARK    2  A    between atoms: C_3  and  O_6 
REMARK    3  A    between atoms: C_3  and  C_4 
REMARK    4  A    between atoms: C_7  and  O_6 
REMARK    5  A    between atoms: C_9  and  C_10 
REMARK    6  A    between atoms: N_15  and  C_14 
REMARK    7  A    between atoms: N_20  and  C_19 
REMARK       I    between atoms: C_22  and  N_20 
ROOT
ATOM      1  C   LIG d   1       4.429  84.749 112.494  0.00  0.00     0.161 C 
ATOM      2  C   LIG d   1       4.650  86.041 112.999  0.00  0.00     0.016 C 
ATOM      3  C   LIG d   1       3.806  87.140 112.719  0.00  0.00     0.038 C 
ATOM      4  C   LIG d   1       2.592  86.987 112.034  0.00  0.00     0.028 C 
ATOM      5  C   LIG d   1       2.582  85.801 111.076  0.00  0.00    -0.047 C 
ATOM      6  C   LIG d   1       3.050  84.538 111.836  0.00  0.00     0.091 C 
ENDROOT
BRANCH   1   7
ATOM      7  O   LIG d   1       4.642  83.775 113.535  0.00  0.00    -0.368 OA
BRANCH   7   8
ATOM      8  C   LIG d   1       3.969  84.029 114.793  0.00  0.00     0.119 C 
BRANCH   8   9
ATOM      9  C   LIG d   1       4.986  83.775 115.922  0.00  0.00     0.028 C 
ATOM     10  C   LIG d   1       5.652  85.070 116.415  0.00  0.00     0.006 C 
ENDBRANCH   8   9
BRANCH   8  11
ATOM     11  C   LIG d   1       2.837  83.025 115.032  0.00  0.00     0.028 C 
ATOM     12  C   LIG d   1       3.208  81.944 116.060  0.00  0.00     0.006 C 
ENDBRANCH   8  11
ENDBRANCH   7   8
ENDBRANCH   1   7
BRANCH   6  13
ATOM     13  N   LIG d   1       3.150  83.348 110.952  0.00  0.00    -0.311 N 
ATOM     14  C   LIG d   1       2.348  82.290 111.053  0.00  0.00     0.210 C 
ATOM     15  C   LIG d   1       2.636  81.163 110.055  0.00  0.00     0.109 C 
ATOM     16  O   LIG d   1       1.406  82.191 111.853  0.00  0.00    -0.276 OA
ATOM     17  H   LIG d   1       3.868  83.358 110.253  0.00  0.00     0.149 HD
ENDBRANCH   6  13
BRANCH   5  18
ATOM     18  N   LIG d   1       1.216  85.676 110.534  0.00  0.00     0.381 N 
ATOM     19  H   LIG d   1       0.556  85.637 111.284  0.00  0.00    -0.090 HD
ATOM     20  H   LIG d   1       1.151  84.821 110.011  0.00  0.00    -0.090 HD
ATOM     21  H   LIG d   1       1.012  86.452 109.943  0.00  0.00    -0.090 HD
ENDBRANCH   5  18
BRANCH   3  22
ATOM     22  C   LIG d   1       4.195  88.418 113.093  0.00  0.00     0.382 C 
ATOM     23  O   LIG d   1       3.329  89.270 113.405  0.00  0.00    -0.241 OA
ATOM     24  O   LIG d   1       5.398  88.741 113.080  0.00  0.00    -0.241 OA
ENDBRANCH   3  22
TORSDOF 7
ENDMDL
MODEL 5
REMARK VINA RESULT:      -4.5      3.475      6.355
REMARK  7 active torsions:
REMARK  status: ('A' for Active; 'I' for Inactive)
REMARK    1  A    between atoms: C_2  and  C_3 
REMARK    2  A    between atoms: C_3  and  O_6 
REMARK    3  A    between atoms: C_3  and  C_4 
REMARK    4  A    between atoms: C_7  and  O_6 
REMARK    5  A    between atoms: C_9  and  C_10 
REMARK    6  A    between atoms: N_15  and  C_14 
REMARK    7  A    between atoms: N_20  and  C_19 
REMARK       I    between atoms: C_22  and  N_20 
ROOT
ATOM      1  C   LIG d   1       1.114  82.526 112.899  0.00  0.00     0.161 C 
ATOM      2  C   LIG d   1       1.840  81.925 113.941  0.00  0.00     0.016 C 
ATOM      3  C   LIG d   1       2.375  82.645 115.033  0.00  0.00     0.038 C 
ATOM      4  C   LIG d   1       2.088  84.003 115.238  0.00  0.00     0.028 C 
ATOM      5  C   LIG d   1       1.781  84.758 113.949  0.00  0.00    -0.047 C 
ATOM      6  C   LIG d   1       0.696  83.988 113.162  0.00  0.00     0.091 C 
ENDROOT
BRANCH   1   7
ATOM      7  O   LIG d   1      -0.041  81.724 112.583  0.00  0.00    -0.368 OA
BRANCH   7   8
ATOM      8  C   LIG d   1       0.042  80.938 111.368  0.00  0.00     0.119 C 
BRANCH   8   9
ATOM      9  C   LIG d   1       0.310  79.477 111.780  0.00  0.00     0.028 C 
ATOM     10  C   LIG d   1      -0.886  78.556 111.486  0.00  0.00     0.006 C 
ENDBRANCH   8   9
BRANCH   8  11
ATOM     11  C   LIG d   1       1.249  81.349 110.520  0.00  0.00     0.028 C 
ATOM     12  C   LIG d   1       2.250  80.200 110.312  0.00  0.00     0.006 C 
ENDBRANCH   8  11
ENDBRANCH   7   8
ENDBRANCH   1   7
BRANCH   6  13
ATOM     13  N   LIG d   1       0.397  84.614 111.848  0.00  0.00    -0.311 N 
ATOM     14  C   LIG d   1      -0.515  85.570 111.682  0.00  0.00     0.210 C 
ATOM     15  C   LIG d   1      -0.680  86.063 110.241  0.00  0.00     0.109 C 
ATOM     16  O   LIG d   1      -1.180  86.080 112.596  0.00  0.00    -0.276 OA
ATOM     17  H   LIG d   1       0.913  84.282 111.057  0.00  0.00     0.149 HD
ENDBRANCH   6  13
BRANCH   5  18
ATOM     18  N   LIG d   1       1.366  86.124 114.321  0.00  0.00     0.381 N 
ATOM     19  H   LIG d   1       1.879  86.792 113.781  0.00  0.00    -0.090 HD
ATOM     20  H   LIG d   1       1.576  86.274 115.292  0.00  0.00    -0.090 HD
ATOM     21  H   LIG d   1       0.389  86.238 114.163  0.00  0.00    -0.090 HD
ENDBRANCH   5  18
BRANCH   3  22
ATOM     22  C   LIG d   1       3.240  82.015 115.915  0.00  0.00     0.382 C 
ATOM     23  O   LIG d   1       2.784  81.399 116.908  0.00  0.00    -0.241 OA
ATOM     24  O   LIG d   1       4.473  82.092 115.754  0.00  0.00    -0.241 OA
ENDBRANCH   3  22
TORSDOF 7
ENDMDL
MODEL 6
REMARK VINA RESULT:      -4.4     11.353     13.273
REMARK  7 active torsions:
REMARK  status: ('A' for Active; 'I' for Inactive)
REMARK    1  A    between atoms: C_2  and  C_3 
REMARK    2  A    between atoms: C_3  and  O_6 
REMARK    3  A    between atoms: C_3  and  C_4 
REMARK    4  A    between atoms: C_7  and  O_6 
REMARK    5  A    between atoms: C_9  and  C_10 
REMARK    6  A    between atoms: N_15  and  C_14 
REMARK    7  A    between atoms: N_20  and  C_19 
REMARK       I    between atoms: C_22  and  N_20 
ROOT
ATOM      1  C   LIG d   1      13.197  79.168 114.602  0.00  0.00     0.161 C 
ATOM      2  C   LIG d   1      12.077  79.679 115.279  0.00  0.00     0.016 C 
ATOM      3  C   LIG d   1      10.910  80.131 114.621  0.00  0.00     0.038 C 
ATOM      4  C   LIG d   1      10.724  79.962 113.241  0.00  0.00     0.028 C 
ATOM      5  C   LIG d   1      12.030  79.914 112.455  0.00  0.00    -0.047 C 
ATOM      6  C   LIG d   1      12.969  78.872 113.105  0.00  0.00     0.091 C 
ENDROOT
BRANCH   1   7
ATOM      7  O   LIG d   1      13.680  77.990 115.277  0.00  0.00    -0.368 OA
BRANCH   7   8
ATOM      8  C   LIG d   1      13.201  76.721 114.767  0.00  0.00     0.119 C 
BRANCH   8   9
ATOM      9  C   LIG d   1      12.068  76.246 115.699  0.00  0.00     0.028 C 
ATOM     10  C   LIG d   1      10.693  76.271 115.010  0.00  0.00     0.006 C 
ENDBRANCH   8   9
BRANCH   8  11
ATOM     11  C   LIG d   1      14.281  75.639 114.859  0.00  0.00     0.028 C 
ATOM     12  C   LIG d   1      15.678  76.159 114.484  0.00  0.00     0.006 C 
ENDBRANCH   8  11
ENDBRANCH   7   8
ENDBRANCH   1   7
BRANCH   6  13
ATOM     13  N   LIG d   1      14.301  78.822 112.448  0.00  0.00    -0.311 N 
ATOM     14  C   LIG d   1      14.592  77.997 111.443  0.00  0.00     0.210 C 
ATOM     15  C   LIG d   1      16.031  78.093 110.924  0.00  0.00     0.109 C 
ATOM     16  O   LIG d   1      13.787  77.218 110.912  0.00  0.00    -0.276 OA
ATOM     17  H   LIG d   1      15.005  79.443 112.796  0.00  0.00     0.149 HD
ENDBRANCH   6  13
BRANCH   5  18
ATOM     18  N   LIG d   1      11.695  79.596 111.054  0.00  0.00     0.381 N 
ATOM     19  H   LIG d   1      10.874  80.098 110.779  0.00  0.00    -0.090 HD
ATOM     20  H   LIG d   1      11.503  78.613 110.980  0.00  0.00    -0.090 HD
ATOM     21  H   LIG d   1      12.456  79.839 110.458  0.00  0.00    -0.090 HD
ENDBRANCH   5  18
BRANCH   3  22
ATOM     22  C   LIG d   1       9.931  80.798 115.341  0.00  0.00     0.382 C 
ATOM     23  O   LIG d   1       9.219  80.170 116.161  0.00  0.00    -0.241 OA
ATOM     24  O   LIG d   1       9.720  82.010 115.148  0.00  0.00    -0.241 OA
ENDBRANCH   3  22
TORSDOF 7
ENDMDL
MODEL 7
REMARK VINA RESULT:      -4.4      1.502      2.100
REMARK  7 active torsions:
REMARK  status: ('A' for Active; 'I' for Inactive)
REMARK    1  A    between atoms: C_2  and  C_3 
REMARK    2  A    between atoms: C_3  and  O_6 
REMARK    3  A    between atoms: C_3  and  C_4 
REMARK    4  A    between atoms: C_7  and  O_6 
REMARK    5  A    between atoms: C_9  and  C_10 
REMARK    6  A    between atoms: N_15  and  C_14 
REMARK    7  A    between atoms: N_20  and  C_19 
REMARK       I    between atoms: C_22  and  N_20 
ROOT
ATOM      1  C   LIG d   1       1.266  86.134 113.750  0.00  0.00     0.161 C 
ATOM      2  C   LIG d   1       0.364  85.126 113.367  0.00  0.00     0.016 C 
ATOM      3  C   LIG d   1       0.577  84.270 112.263  0.00  0.00     0.038 C 
ATOM      4  C   LIG d   1       1.787  84.264 111.552  0.00  0.00     0.028 C 
ATOM      5  C   LIG d   1       2.516  85.602 111.586  0.00  0.00    -0.047 C 
ATOM      6  C   LIG d   1       2.642  86.069 113.054  0.00  0.00     0.091 C 
ENDROOT
BRANCH   1   7
ATOM      7  O   LIG d   1       1.428  86.127 115.182  0.00  0.00    -0.368 OA
BRANCH   7   8
ATOM      8  C   LIG d   1       1.313  87.411 115.843  0.00  0.00     0.119 C 
BRANCH   8   9
ATOM      9  C   LIG d   1       2.526  87.558 116.782  0.00  0.00     0.028 C 
ATOM     10  C   LIG d   1       3.179  88.947 116.683  0.00  0.00     0.006 C 
ENDBRANCH   8   9
BRANCH   8  11
ATOM     11  C   LIG d   1       0.085  87.459 116.756  0.00  0.00     0.028 C 
ATOM     12  C   LIG d   1       0.344  86.836 118.137  0.00  0.00     0.006 C 
ENDBRANCH   8  11
ENDBRANCH   7   8
ENDBRANCH   1   7
BRANCH   6  13
ATOM     13  N   LIG d   1       3.269  87.411 113.171  0.00  0.00    -0.311 N 
ATOM     14  C   LIG d   1       4.571  87.596 113.378  0.00  0.00     0.210 C 
ATOM     15  C   LIG d   1       5.007  89.061 113.488  0.00  0.00     0.109 C 
ATOM     16  O   LIG d   1       5.412  86.687 113.450  0.00  0.00    -0.276 OA
ATOM     17  H   LIG d   1       2.664  88.205 113.094  0.00  0.00     0.149 HD
ENDBRANCH   6  13
BRANCH   5  18
ATOM     18  N   LIG d   1       3.822  85.415 110.925  0.00  0.00     0.381 N 
ATOM     19  H   LIG d   1       4.313  86.286 110.894  0.00  0.00    -0.090 HD
ATOM     20  H   LIG d   1       3.667  85.106 109.981  0.00  0.00    -0.090 HD
ATOM     21  H   LIG d   1       4.360  84.739 111.420  0.00  0.00    -0.090 HD
ENDBRANCH   5  18
BRANCH   3  22
ATOM     22  C   LIG d   1      -0.443  83.434 111.834  0.00  0.00     0.382 C 
ATOM     23  O   LIG d   1      -0.415  82.954 110.675  0.00  0.00    -0.241 OA
ATOM     24  O   LIG d   1      -1.413  83.190 112.577  0.00  0.00    -0.241 OA
ENDBRANCH   3  22
TORSDOF 7
ENDMDL
MODEL 8
REMARK VINA RESULT:      -4.3      1.365      2.075
REMARK  7 active torsions:
REMARK  status: ('A' for Active; 'I' for Inactive)
REMARK    1  A    between atoms: C_2  and  C_3 
REMARK    2  A    between atoms: C_3  and  O_6 
REMARK    3  A    between atoms: C_3  and  C_4 
REMARK    4  A    between atoms: C_7  and  O_6 
REMARK    5  A    between atoms: C_9  and  C_10 
REMARK    6  A    between atoms: N_15  and  C_14 
REMARK    7  A    between atoms: N_20  and  C_19 
REMARK       I    between atoms: C_22  and  N_20 
ROOT
ATOM      1  C   LIG d   1       1.094  86.106 113.209  0.00  0.00     0.161 C 
ATOM      2  C   LIG d   1       0.369  85.022 112.687  0.00  0.00     0.016 C 
ATOM      3  C   LIG d   1       0.865  84.169 111.674  0.00  0.00     0.038 C 
ATOM      4  C   LIG d   1       2.189  84.251 111.218  0.00  0.00     0.028 C 
ATOM      5  C   LIG d   1       2.790  85.646 111.354  0.00  0.00    -0.047 C 
ATOM      6  C   LIG d   1       2.582  86.144 112.802  0.00  0.00     0.091 C 
ENDROOT
BRANCH   1   7
ATOM      7  O   LIG d   1       0.966  86.134 114.644  0.00  0.00    -0.368 OA
BRANCH   7   8
ATOM      8  C   LIG d   1       2.083  85.597 115.394  0.00  0.00     0.119 C 
BRANCH   8   9
ATOM      9  C   LIG d   1       1.610  84.287 116.054  0.00  0.00     0.028 C 
ATOM     10  C   LIG d   1       2.058  83.041 115.271  0.00  0.00     0.006 C 
ENDBRANCH   8   9
BRANCH   8  11
ATOM     11  C   LIG d   1       2.469  86.518 116.555  0.00  0.00     0.028 C 
ATOM     12  C   LIG d   1       1.779  86.137 117.874  0.00  0.00     0.006 C 
ENDBRANCH   8  11
ENDBRANCH   7   8
ENDBRANCH   1   7
BRANCH   6  13
ATOM     13  N   LIG d   1       3.067  87.535 112.999  0.00  0.00    -0.311 N 
ATOM     14  C   LIG d   1       4.285  87.830 113.450  0.00  0.00     0.210 C 
ATOM     15  C   LIG d   1       4.574  89.327 113.598  0.00  0.00     0.109 C 
ATOM     16  O   LIG d   1       5.164  86.995 113.711  0.00  0.00    -0.276 OA
ATOM     17  H   LIG d   1       2.429  88.275 112.782  0.00  0.00     0.149 HD
ENDBRANCH   6  13
BRANCH   5  18
ATOM     18  N   LIG d   1       4.212  85.557 110.971  0.00  0.00     0.381 N 
ATOM     19  H   LIG d   1       4.300  85.622 109.977  0.00  0.00    -0.090 HD
ATOM     20  H   LIG d   1       4.572  84.666 111.263  0.00  0.00    -0.090 HD
ATOM     21  H   LIG d   1       4.729  86.290 111.406  0.00  0.00    -0.090 HD
ENDBRANCH   5  18
BRANCH   3  22
ATOM     22  C   LIG d   1       0.019  83.245 111.079  0.00  0.00     0.382 C 
ATOM     23  O   LIG d   1      -1.219  83.313 111.272  0.00  0.00    -0.241 OA
ATOM     24  O   LIG d   1       0.482  82.319 110.387  0.00  0.00    -0.241 OA
ENDBRANCH   3  22
TORSDOF 7
ENDMDL
MODEL 9
REMARK VINA RESULT:      -4.3     25.007     27.152
REMARK  7 active torsions:
REMARK  status: ('A' for Active; 'I' for Inactive)
REMARK    1  A    between atoms: C_2  and  C_3 
REMARK    2  A    between atoms: C_3  and  O_6 
REMARK    3  A    between atoms: C_3  and  C_4 
REMARK    4  A    between atoms: C_7  and  O_6 
REMARK    5  A    between atoms: C_9  and  C_10 
REMARK    6  A    between atoms: N_15  and  C_14 
REMARK    7  A    between atoms: N_20  and  C_19 
REMARK       I    between atoms: C_22  and  N_20 
ROOT
ATOM      1  C   LIG d   1     -24.595  83.894 114.988  0.00  0.00     0.161 C 
ATOM      2  C   LIG d   1     -23.532  84.811 114.947  0.00  0.00     0.016 C 
ATOM      3  C   LIG d   1     -23.546  85.984 114.158  0.00  0.00     0.038 C 
ATOM      4  C   LIG d   1     -24.694  86.399 113.467  0.00  0.00     0.028 C 
ATOM      5  C   LIG d   1     -25.615  85.247 113.077  0.00  0.00    -0.047 C 
ATOM      6  C   LIG d   1     -25.900  84.386 114.328  0.00  0.00     0.091 C 
ENDROOT
BRANCH   1   7
ATOM      7  O   LIG d   1     -24.843  83.494 116.351  0.00  0.00    -0.368 OA
BRANCH   7   8
ATOM      8  C   LIG d   1     -24.510  82.123 116.683  0.00  0.00     0.119 C 
BRANCH   8   9
ATOM      9  C   LIG d   1     -23.482  82.162 117.831  0.00  0.00     0.028 C 
ATOM     10  C   LIG d   1     -22.036  82.281 117.321  0.00  0.00     0.006 C 
ENDBRANCH   8   9
BRANCH   8  11
ATOM     11  C   LIG d   1     -23.795  81.426 115.522  0.00  0.00     0.028 C 
ATOM     12  C   LIG d   1     -24.338  80.014 115.250  0.00  0.00     0.006 C 
ENDBRANCH   8  11
ENDBRANCH   7   8
ENDBRANCH   1   7
BRANCH   6  13
ATOM     13  N   LIG d   1     -26.725  83.190 114.017  0.00  0.00    -0.311 N 
ATOM     14  C   LIG d   1     -26.385  82.282 113.104  0.00  0.00     0.210 C 
ATOM     15  C   LIG d   1     -27.388  81.137 112.926  0.00  0.00     0.109 C 
ATOM     16  O   LIG d   1     -25.333  82.298 112.447  0.00  0.00    -0.276 OA
ATOM     17  H   LIG d   1     -27.581  83.081 114.526  0.00  0.00     0.149 HD
ENDBRANCH   6  13
BRANCH   5  18
ATOM     18  N   LIG d   1     -26.835  85.832 112.488  0.00  0.00     0.381 N 
ATOM     19  H   LIG d   1     -26.793  85.770 111.490  0.00  0.00    -0.090 HD
ATOM     20  H   LIG d   1     -26.885  86.803 112.742  0.00  0.00    -0.090 HD
ATOM     21  H   LIG d   1     -27.640  85.352 112.824  0.00  0.00    -0.090 HD
ENDBRANCH   5  18
BRANCH   3  22
ATOM     22  C   LIG d   1     -22.389  86.735 114.022  0.00  0.00     0.382 C 
ATOM     23  O   LIG d   1     -22.340  87.901 114.483  0.00  0.00    -0.241 OA
ATOM     24  O   LIG d   1     -21.408  86.278 113.405  0.00  0.00    -0.241 OA
ENDBRANCH   3  22
TORSDOF 7
ENDMDL
