MODEL 1
REMARK VINA RESULT:      -5.7      0.000      0.000
REMARK  7 active torsions:
REMARK  status: ('A' for Active; 'I' for Inactive)
REMARK    1  A    between atoms: C_2  and  C_3 
REMARK    2  A    between atoms: C_3  and  O_6 
REMARK    3  A    between atoms: C_3  and  C_4 
REMARK    4  A    between atoms: C_7  and  O_6 
REMARK    5  A    between atoms: C_9  and  C_10 
REMARK    6  A    between atoms: N_15  and  C_14 
REMARK    7  A    between atoms: N_20  and  C_19 
REMARK       I    between atoms: C_22  and  N_20 
ROOT
ATOM      1  C   LIG d   1       2.492  87.356 114.321  0.00  0.00     0.161 C 
ATOM      2  C   LIG d   1       2.457  88.314 115.349  0.00  0.00     0.016 C 
ATOM      3  C   LIG d   1       3.437  89.320 115.507  0.00  0.00     0.038 C 
ATOM      4  C   LIG d   1       4.444  89.532 114.552  0.00  0.00     0.028 C 
ATOM      5  C   LIG d   1       4.811  88.275 113.771  0.00  0.00    -0.047 C 
ATOM      6  C   LIG d   1       3.520  87.640 113.207  0.00  0.00     0.091 C 
ENDROOT
BRANCH   1   7
ATOM      7  O   LIG d   1       1.174  87.196 113.759  0.00  0.00    -0.368 OA
BRANCH   7   8
ATOM      8  C   LIG d   1       0.461  85.993 114.138  0.00  0.00     0.119 C 
BRANCH   8   9
ATOM      9  C   LIG d   1       1.484  85.026 114.765  0.00  0.00     0.028 C 
ATOM     10  C   LIG d   1       1.626  83.722 113.963  0.00  0.00     0.006 C 
ENDBRANCH   8   9
BRANCH   8  11
ATOM     11  C   LIG d   1      -0.090  85.261 112.911  0.00  0.00     0.028 C 
ATOM     12  C   LIG d   1      -0.529  86.220 111.793  0.00  0.00     0.006 C 
ENDBRANCH   8  11
ENDBRANCH   7   8
ENDBRANCH   1   7
BRANCH   6  13
ATOM     13  N   LIG d   1       3.781  86.359 112.499  0.00  0.00    -0.311 N 
ATOM     14  C   LIG d   1       3.248  86.052 111.318  0.00  0.00     0.210 C 
ATOM     15  C   LIG d   1       3.632  84.672 110.774  0.00  0.00     0.109 C 
ATOM     16  O   LIG d   1       2.520  86.805 110.654  0.00  0.00    -0.276 OA
ATOM     17  H   LIG d   1       4.386  85.702 112.953  0.00  0.00     0.149 HD
ENDBRANCH   6  13
BRANCH   5  18
ATOM     18  N   LIG d   1       5.769  88.668 112.720  0.00  0.00     0.381 N 
ATOM     19  H   LIG d   1       6.053  89.618 112.858  0.00  0.00    -0.090 HD
ATOM     20  H   LIG d   1       5.317  88.600 111.826  0.00  0.00    -0.090 HD
ATOM     21  H   LIG d   1       6.566  88.070 112.744  0.00  0.00    -0.090 HD
ENDBRANCH   5  18
BRANCH   3  22
ATOM     22  C   LIG d   1       3.440  90.103 116.651  0.00  0.00     0.382 C 
ATOM     23  O   LIG d   1       4.199  91.099 116.728  0.00  0.00    -0.241 OA
ATOM     24  O   LIG d   1       2.725  89.801 117.625  0.00  0.00    -0.241 OA
ENDBRANCH   3  22
TORSDOF 7
ENDMDL
MODEL 2
REMARK VINA RESULT:      -5.6      4.106      6.286
REMARK  7 active torsions:
REMARK  status: ('A' for Active; 'I' for Inactive)
REMARK    1  A    between atoms: C_2  and  C_3 
REMARK    2  A    between atoms: C_3  and  O_6 
REMARK    3  A    between atoms: C_3  and  C_4 
REMARK    4  A    between atoms: C_7  and  O_6 
REMARK    5  A    between atoms: C_9  and  C_10 
REMARK    6  A    between atoms: N_15  and  C_14 
REMARK    7  A    between atoms: N_20  and  C_19 
REMARK       I    between atoms: C_22  and  N_20 
ROOT
ATOM      1  C   LIG d   1       0.499  83.591 110.778  0.00  0.00     0.161 C 
ATOM      2  C   LIG d   1       1.376  84.667 110.563  0.00  0.00     0.016 C 
ATOM      3  C   LIG d   1       1.793  85.549 111.588  0.00  0.00     0.038 C 
ATOM      4  C   LIG d   1       1.477  85.321 112.935  0.00  0.00     0.028 C 
ATOM      5  C   LIG d   1       0.182  84.539 113.130  0.00  0.00    -0.047 C 
ATOM      6  C   LIG d   1       0.232  83.261 112.262  0.00  0.00     0.091 C 
ENDROOT
BRANCH   1   7
ATOM      7  O   LIG d   1       0.979  82.423 110.084  0.00  0.00    -0.368 OA
BRANCH   7   8
ATOM      8  C   LIG d   1       2.029  81.675 110.744  0.00  0.00     0.119 C 
BRANCH   8   9
ATOM      9  C   LIG d   1       3.359  82.040 110.057  0.00  0.00     0.028 C 
ATOM     10  C   LIG d   1       4.335  82.753 111.008  0.00  0.00     0.006 C 
ENDBRANCH   8   9
BRANCH   8  11
ATOM     11  C   LIG d   1       1.861  80.169 110.528  0.00  0.00     0.028 C 
ATOM     12  C   LIG d   1       0.448  79.788 110.058  0.00  0.00     0.006 C 
ENDBRANCH   8  11
ENDBRANCH   7   8
ENDBRANCH   1   7
BRANCH   6  13
ATOM     13  N   LIG d   1      -1.031  82.481 112.329  0.00  0.00    -0.311 N 
ATOM     14  C   LIG d   1      -1.149  81.333 112.994  0.00  0.00     0.210 C 
ATOM     15  C   LIG d   1      -2.533  80.681 112.917  0.00  0.00     0.109 C 
ATOM     16  O   LIG d   1      -0.248  80.809 113.666  0.00  0.00    -0.276 OA
ATOM     17  H   LIG d   1      -1.822  82.849 111.837  0.00  0.00     0.149 HD
ENDBRANCH   6  13
BRANCH   5  18
ATOM     18  N   LIG d   1       0.046  84.254 114.571  0.00  0.00     0.381 N 
ATOM     19  H   LIG d   1       0.406  85.021 115.103  0.00  0.00    -0.090 HD
ATOM     20  H   LIG d   1       0.585  83.436 114.793  0.00  0.00    -0.090 HD
ATOM     21  H   LIG d   1      -0.912  84.102 114.800  0.00  0.00    -0.090 HD
ENDBRANCH   5  18
BRANCH   3  22
ATOM     22  C   LIG d   1       2.502  86.695 111.262  0.00  0.00     0.382 C 
ATOM     23  O   LIG d   1       1.891  87.770 111.049  0.00  0.00    -0.241 OA
ATOM     24  O   LIG d   1       3.740  86.657 111.134  0.00  0.00    -0.241 OA
ENDBRANCH   3  22
TORSDOF 7
ENDMDL
MODEL 3
REMARK VINA RESULT:      -5.5      4.105      7.300
REMARK  7 active torsions:
REMARK  status: ('A' for Active; 'I' for Inactive)
REMARK    1  A    between atoms: C_2  and  C_3 
REMARK    2  A    between atoms: C_3  and  O_6 
REMARK    3  A    between atoms: C_3  and  C_4 
REMARK    4  A    between atoms: C_7  and  O_6 
REMARK    5  A    between atoms: C_9  and  C_10 
REMARK    6  A    between atoms: N_15  and  C_14 
REMARK    7  A    between atoms: N_20  and  C_19 
REMARK       I    between atoms: C_22  and  N_20 
ROOT
ATOM      1  C   LIG d   1       0.118  83.149 112.339  0.00  0.00     0.161 C 
ATOM      2  C   LIG d   1      -1.091  82.713 112.906  0.00  0.00     0.016 C 
ATOM      3  C   LIG d   1      -1.548  81.377 112.831  0.00  0.00     0.038 C 
ATOM      4  C   LIG d   1      -0.749  80.348 112.311  0.00  0.00     0.028 C 
ATOM      5  C   LIG d   1       0.261  80.830 111.275  0.00  0.00    -0.047 C 
ATOM      6  C   LIG d   1       1.055  82.018 111.864  0.00  0.00     0.091 C 
ENDROOT
BRANCH   1   7
ATOM      7  O   LIG d   1       0.807  84.015 113.263  0.00  0.00    -0.368 OA
BRANCH   7   8
ATOM      8  C   LIG d   1       0.567  85.435 113.104  0.00  0.00     0.119 C 
BRANCH   8   9
ATOM      9  C   LIG d   1       0.587  85.742 111.594  0.00  0.00     0.028 C 
ATOM     10  C   LIG d   1      -0.655  86.526 111.138  0.00  0.00     0.006 C 
ENDBRANCH   8   9
BRANCH   8  11
ATOM     11  C   LIG d   1       1.709  86.263 113.701  0.00  0.00     0.028 C 
ATOM     12  C   LIG d   1       2.800  86.603 112.673  0.00  0.00     0.006 C 
ENDBRANCH   8  11
ENDBRANCH   7   8
ENDBRANCH   1   7
BRANCH   6  13
ATOM     13  N   LIG d   1       2.007  82.604 110.885  0.00  0.00    -0.311 N 
ATOM     14  C   LIG d   1       3.227  83.028 111.213  0.00  0.00     0.210 C 
ATOM     15  C   LIG d   1       4.039  83.617 110.055  0.00  0.00     0.109 C 
ATOM     16  O   LIG d   1       3.725  82.943 112.345  0.00  0.00    -0.276 OA
ATOM     17  H   LIG d   1       1.696  82.683 109.937  0.00  0.00     0.149 HD
ENDBRANCH   6  13
BRANCH   5  18
ATOM     18  N   LIG d   1       1.117  79.682 110.920  0.00  0.00     0.381 N 
ATOM     19  H   LIG d   1       1.966  79.716 111.448  0.00  0.00    -0.090 HD
ATOM     20  H   LIG d   1       1.351  79.741 109.944  0.00  0.00    -0.090 HD
ATOM     21  H   LIG d   1       0.637  78.829 111.103  0.00  0.00    -0.090 HD
ENDBRANCH   5  18
BRANCH   3  22
ATOM     22  C   LIG d   1      -2.835  81.067 113.245  0.00  0.00     0.382 C 
ATOM     23  O   LIG d   1      -3.767  81.886 113.059  0.00  0.00    -0.241 OA
ATOM     24  O   LIG d   1      -3.067  79.998 113.840  0.00  0.00    -0.241 OA
ENDBRANCH   3  22
TORSDOF 7
ENDMDL
MODEL 4
REMARK VINA RESULT:      -5.5      4.402      6.470
REMARK  7 active torsions:
REMARK  status: ('A' for Active; 'I' for Inactive)
REMARK    1  A    between atoms: C_2  and  C_3 
REMARK    2  A    between atoms: C_3  and  O_6 
REMARK    3  A    between atoms: C_3  and  C_4 
REMARK    4  A    between atoms: C_7  and  O_6 
REMARK    5  A    between atoms: C_9  and  C_10 
REMARK    6  A    between atoms: N_15  and  C_14 
REMARK    7  A    between atoms: N_20  and  C_19 
REMARK       I    between atoms: C_22  and  N_20 
ROOT
ATOM      1  C   LIG d   1      -0.767  83.391 114.602  0.00  0.00     0.161 C 
ATOM      2  C   LIG d   1      -0.088  84.611 114.756  0.00  0.00     0.016 C 
ATOM      3  C   LIG d   1       0.387  85.380 113.669  0.00  0.00     0.038 C 
ATOM      4  C   LIG d   1       0.079  85.054 112.340  0.00  0.00     0.028 C 
ATOM      5  C   LIG d   1      -0.170  83.565 112.124  0.00  0.00    -0.047 C 
ATOM      6  C   LIG d   1      -1.209  83.075 113.158  0.00  0.00     0.091 C 
ENDROOT
BRANCH   1   7
ATOM      7  O   LIG d   1      -1.899  83.346 115.494  0.00  0.00    -0.368 OA
BRANCH   7   8
ATOM      8  C   LIG d   1      -1.845  82.346 116.542  0.00  0.00     0.119 C 
BRANCH   8   9
ATOM      9  C   LIG d   1      -3.231  81.676 116.613  0.00  0.00     0.028 C 
ATOM     10  C   LIG d   1      -3.141  80.141 116.604  0.00  0.00     0.006 C 
ENDBRANCH   8   9
BRANCH   8  11
ATOM     11  C   LIG d   1      -1.635  82.990 117.915  0.00  0.00     0.028 C 
ATOM     12  C   LIG d   1      -0.154  83.254 118.229  0.00  0.00     0.006 C 
ENDBRANCH   8  11
ENDBRANCH   7   8
ENDBRANCH   1   7
BRANCH   6  13
ATOM     13  N   LIG d   1      -1.448  81.610 113.072  0.00  0.00    -0.311 N 
ATOM     14  C   LIG d   1      -2.662  81.068 113.006  0.00  0.00     0.210 C 
ATOM     15  C   LIG d   1      -2.685  79.538 112.943  0.00  0.00     0.109 C 
ATOM     16  O   LIG d   1      -3.722  81.711 112.963  0.00  0.00    -0.276 OA
ATOM     17  H   LIG d   1      -0.642  81.016 113.070  0.00  0.00     0.149 HD
ENDBRANCH   6  13
BRANCH   5  18
ATOM     18  N   LIG d   1      -0.613  83.385 110.729  0.00  0.00     0.381 N 
ATOM     19  H   LIG d   1      -1.523  83.784 110.608  0.00  0.00    -0.090 HD
ATOM     20  H   LIG d   1      -0.672  82.401 110.531  0.00  0.00    -0.090 HD
ATOM     21  H   LIG d   1       0.033  83.819 110.107  0.00  0.00    -0.090 HD
ENDBRANCH   5  18
BRANCH   3  22
ATOM     22  C   LIG d   1       1.212  86.469 113.906  0.00  0.00     0.382 C 
ATOM     23  O   LIG d   1       1.391  86.877 115.079  0.00  0.00    -0.241 OA
ATOM     24  O   LIG d   1       1.745  87.075 112.958  0.00  0.00    -0.241 OA
ENDBRANCH   3  22
TORSDOF 7
ENDMDL
MODEL 5
REMARK VINA RESULT:      -5.4      2.664      5.737
REMARK  7 active torsions:
REMARK  status: ('A' for Active; 'I' for Inactive)
REMARK    1  A    between atoms: C_2  and  C_3 
REMARK    2  A    between atoms: C_3  and  O_6 
REMARK    3  A    between atoms: C_3  and  C_4 
REMARK    4  A    between atoms: C_7  and  O_6 
REMARK    5  A    between atoms: C_9  and  C_10 
REMARK    6  A    between atoms: N_15  and  C_14 
REMARK    7  A    between atoms: N_20  and  C_19 
REMARK       I    between atoms: C_22  and  N_20 
ROOT
ATOM      1  C   LIG d   1       2.623  84.025 113.529  0.00  0.00     0.161 C 
ATOM      2  C   LIG d   1       1.452  83.392 113.080  0.00  0.00     0.016 C 
ATOM      3  C   LIG d   1       0.164  83.966 113.193  0.00  0.00     0.038 C 
ATOM      4  C   LIG d   1      -0.023  85.286 113.630  0.00  0.00     0.028 C 
ATOM      5  C   LIG d   1       1.077  85.776 114.566  0.00  0.00    -0.047 C 
ATOM      6  C   LIG d   1       2.450  85.511 113.908  0.00  0.00     0.091 C 
ENDROOT
BRANCH   1   7
ATOM      7  O   LIG d   1       3.667  83.876 112.547  0.00  0.00    -0.368 OA
BRANCH   7   8
ATOM      8  C   LIG d   1       3.234  83.763 111.169  0.00  0.00     0.119 C 
BRANCH   8   9
ATOM      9  C   LIG d   1       4.203  82.800 110.457  0.00  0.00     0.028 C 
ATOM     10  C   LIG d   1       3.798  81.326 110.627  0.00  0.00     0.006 C 
ENDBRANCH   8   9
BRANCH   8  11
ATOM     11  C   LIG d   1       3.372  85.097 110.430  0.00  0.00     0.028 C 
ATOM     12  C   LIG d   1       2.033  85.834 110.276  0.00  0.00     0.006 C 
ENDBRANCH   8  11
ENDBRANCH   7   8
ENDBRANCH   1   7
BRANCH   6  13
ATOM     13  N   LIG d   1       3.585  85.884 114.792  0.00  0.00    -0.311 N 
ATOM     14  C   LIG d   1       4.382  86.926 114.562  0.00  0.00     0.210 C 
ATOM     15  C   LIG d   1       5.503  87.121 115.588  0.00  0.00     0.109 C 
ATOM     16  O   LIG d   1       4.248  87.726 113.624  0.00  0.00    -0.276 OA
ATOM     17  H   LIG d   1       3.746  85.307 115.595  0.00  0.00     0.149 HD
ENDBRANCH   6  13
BRANCH   5  18
ATOM     18  N   LIG d   1       0.831  87.206 114.833  0.00  0.00     0.381 N 
ATOM     19  H   LIG d   1       0.707  87.695 113.970  0.00  0.00    -0.090 HD
ATOM     20  H   LIG d   1       1.631  87.591 115.303  0.00  0.00    -0.090 HD
ATOM     21  H   LIG d   1       0.019  87.311 115.402  0.00  0.00    -0.090 HD
ENDBRANCH   5  18
BRANCH   3  22
ATOM     22  C   LIG d   1      -0.956  83.202 112.904  0.00  0.00     0.382 C 
ATOM     23  O   LIG d   1      -1.658  82.742 113.837  0.00  0.00    -0.241 OA
ATOM     24  O   LIG d   1      -1.249  82.931 111.724  0.00  0.00    -0.241 OA
ENDBRANCH   3  22
TORSDOF 7
ENDMDL
MODEL 6
REMARK VINA RESULT:      -5.3      4.590      7.467
REMARK  7 active torsions:
REMARK  status: ('A' for Active; 'I' for Inactive)
REMARK    1  A    between atoms: C_2  and  C_3 
REMARK    2  A    between atoms: C_3  and  O_6 
REMARK    3  A    between atoms: C_3  and  C_4 
REMARK    4  A    between atoms: C_7  and  O_6 
REMARK    5  A    between atoms: C_9  and  C_10 
REMARK    6  A    between atoms: N_15  and  C_14 
REMARK    7  A    between atoms: N_20  and  C_19 
REMARK       I    between atoms: C_22  and  N_20 
ROOT
ATOM      1  C   LIG d   1       1.120  82.721 113.036  0.00  0.00     0.161 C 
ATOM      2  C   LIG d   1       2.275  82.745 112.237  0.00  0.00     0.016 C 
ATOM      3  C   LIG d   1       2.531  81.808 111.209  0.00  0.00     0.038 C 
ATOM      4  C   LIG d   1       1.570  80.868 110.808  0.00  0.00     0.028 C 
ATOM      5  C   LIG d   1       0.598  80.483 111.918  0.00  0.00    -0.047 C 
ATOM      6  C   LIG d   1       0.010  81.770 112.539  0.00  0.00     0.091 C 
ENDROOT
BRANCH   1   7
ATOM      7  O   LIG d   1       0.603  84.058 113.188  0.00  0.00    -0.368 OA
BRANCH   7   8
ATOM      8  C   LIG d   1       0.903  84.983 112.114  0.00  0.00     0.119 C 
BRANCH   8   9
ATOM      9  C   LIG d   1       1.540  86.236 112.747  0.00  0.00     0.028 C 
ATOM     10  C   LIG d   1       2.946  86.521 112.195  0.00  0.00     0.006 C 
ENDBRANCH   8   9
BRANCH   8  11
ATOM     11  C   LIG d   1      -0.376  85.479 111.433  0.00  0.00     0.028 C 
ATOM     12  C   LIG d   1      -0.112  86.107 110.055  0.00  0.00     0.006 C 
ENDBRANCH   8  11
ENDBRANCH   7   8
ENDBRANCH   1   7
BRANCH   6  13
ATOM     13  N   LIG d   1      -0.887  81.486 113.689  0.00  0.00    -0.311 N 
ATOM     14  C   LIG d   1      -2.212  81.606 113.632  0.00  0.00     0.210 C 
ATOM     15  C   LIG d   1      -2.947  81.283 114.937  0.00  0.00     0.109 C 
ATOM     16  O   LIG d   1      -2.851  81.916 112.616  0.00  0.00    -0.276 OA
ATOM     17  H   LIG d   1      -0.454  81.198 114.545  0.00  0.00     0.149 HD
ENDBRANCH   6  13
BRANCH   5  18
ATOM     18  N   LIG d   1      -0.429  79.605 111.326  0.00  0.00     0.381 N 
ATOM     19  H   LIG d   1      -1.097  79.347 112.025  0.00  0.00    -0.090 HD
ATOM     20  H   LIG d   1       0.014  78.768 110.989  0.00  0.00    -0.090 HD
ATOM     21  H   LIG d   1      -0.887  80.073 110.576  0.00  0.00    -0.090 HD
ENDBRANCH   5  18
BRANCH   3  22
ATOM     22  C   LIG d   1       3.775  81.781 110.598  0.00  0.00     0.382 C 
ATOM     23  O   LIG d   1       4.260  82.833 110.117  0.00  0.00    -0.241 OA
ATOM     24  O   LIG d   1       4.398  80.709 110.482  0.00  0.00    -0.241 OA
ENDBRANCH   3  22
TORSDOF 7
ENDMDL
MODEL 7
REMARK VINA RESULT:      -5.3      2.891      4.455
REMARK  7 active torsions:
REMARK  status: ('A' for Active; 'I' for Inactive)
REMARK    1  A    between atoms: C_2  and  C_3 
REMARK    2  A    between atoms: C_3  and  O_6 
REMARK    3  A    between atoms: C_3  and  C_4 
REMARK    4  A    between atoms: C_7  and  O_6 
REMARK    5  A    between atoms: C_9  and  C_10 
REMARK    6  A    between atoms: N_15  and  C_14 
REMARK    7  A    between atoms: N_20  and  C_19 
REMARK       I    between atoms: C_22  and  N_20 
ROOT
ATOM      1  C   LIG d   1       2.795  85.201 112.152  0.00  0.00     0.161 C 
ATOM      2  C   LIG d   1       3.405  86.461 112.040  0.00  0.00     0.016 C 
ATOM      3  C   LIG d   1       3.920  87.177 113.145  0.00  0.00     0.038 C 
ATOM      4  C   LIG d   1       3.996  86.610 114.426  0.00  0.00     0.028 C 
ATOM      5  C   LIG d   1       2.935  85.544 114.680  0.00  0.00    -0.047 C 
ATOM      6  C   LIG d   1       2.968  84.518 113.525  0.00  0.00     0.091 C 
ENDROOT
BRANCH   1   7
ATOM      7  O   LIG d   1       3.264  84.336 111.099  0.00  0.00    -0.368 OA
BRANCH   7   8
ATOM      8  C   LIG d   1       2.300  84.002 110.071  0.00  0.00     0.119 C 
BRANCH   8   9
ATOM      9  C   LIG d   1       0.970  84.685 110.444  0.00  0.00     0.028 C 
ATOM     10  C   LIG d   1      -0.139  83.670 110.770  0.00  0.00     0.006 C 
ENDBRANCH   8   9
BRANCH   8  11
ATOM     11  C   LIG d   1       1.996  82.501 110.057  0.00  0.00     0.028 C 
ATOM     12  C   LIG d   1       3.262  81.636 110.169  0.00  0.00     0.006 C 
ENDBRANCH   8  11
ENDBRANCH   7   8
ENDBRANCH   1   7
BRANCH   6  13
ATOM     13  N   LIG d   1       1.905  83.487 113.652  0.00  0.00    -0.311 N 
ATOM     14  C   LIG d   1       2.155  82.180 113.706  0.00  0.00     0.210 C 
ATOM     15  C   LIG d   1       0.913  81.289 113.817  0.00  0.00     0.109 C 
ATOM     16  O   LIG d   1       3.288  81.675 113.707  0.00  0.00    -0.276 OA
ATOM     17  H   LIG d   1       0.959  83.811 113.690  0.00  0.00     0.149 HD
ENDBRANCH   6  13
BRANCH   5  18
ATOM     18  N   LIG d   1       3.215  84.942 115.997  0.00  0.00     0.381 N 
ATOM     19  H   LIG d   1       4.075  84.432 115.960  0.00  0.00    -0.090 HD
ATOM     20  H   LIG d   1       2.477  84.299 116.224  0.00  0.00    -0.090 HD
ATOM     21  H   LIG d   1       3.273  85.653 116.692  0.00  0.00    -0.090 HD
ENDBRANCH   5  18
BRANCH   3  22
ATOM     22  C   LIG d   1       4.330  88.492 112.982  0.00  0.00     0.382 C 
ATOM     23  O   LIG d   1       3.497  89.425 113.074  0.00  0.00    -0.241 OA
ATOM     24  O   LIG d   1       5.515  88.754 112.699  0.00  0.00    -0.241 OA
ENDBRANCH   3  22
TORSDOF 7
ENDMDL
MODEL 8
REMARK VINA RESULT:      -5.2      6.067      9.164
REMARK  7 active torsions:
REMARK  status: ('A' for Active; 'I' for Inactive)
REMARK    1  A    between atoms: C_2  and  C_3 
REMARK    2  A    between atoms: C_3  and  O_6 
REMARK    3  A    between atoms: C_3  and  C_4 
REMARK    4  A    between atoms: C_7  and  O_6 
REMARK    5  A    between atoms: C_9  and  C_10 
REMARK    6  A    between atoms: N_15  and  C_14 
REMARK    7  A    between atoms: N_20  and  C_19 
REMARK       I    between atoms: C_22  and  N_20 
ROOT
ATOM      1  C   LIG d   1      -2.683  81.404 113.135  0.00  0.00     0.161 C 
ATOM      2  C   LIG d   1      -3.122  80.097 113.404  0.00  0.00     0.016 C 
ATOM      3  C   LIG d   1      -2.313  78.952 113.218  0.00  0.00     0.038 C 
ATOM      4  C   LIG d   1      -0.953  79.050 112.892  0.00  0.00     0.028 C 
ATOM      5  C   LIG d   1      -0.604  80.319 112.121  0.00  0.00    -0.047 C 
ATOM      6  C   LIG d   1      -1.167  81.540 112.885  0.00  0.00     0.091 C 
ENDROOT
BRANCH   1   7
ATOM      7  O   LIG d   1      -3.096  82.286 114.198  0.00  0.00    -0.368 OA
BRANCH   7   8
ATOM      8  C   LIG d   1      -2.454  82.084 115.480  0.00  0.00     0.119 C 
BRANCH   8   9
ATOM      9  C   LIG d   1      -3.565  81.918 116.534  0.00  0.00     0.028 C 
ATOM     10  C   LIG d   1      -3.727  80.460 116.994  0.00  0.00     0.006 C 
ENDBRANCH   8   9
BRANCH   8  11
ATOM     11  C   LIG d   1      -1.667  83.325 115.912  0.00  0.00     0.028 C 
ATOM     12  C   LIG d   1      -0.955  83.140 117.261  0.00  0.00     0.006 C 
ENDBRANCH   8  11
ENDBRANCH   7   8
ENDBRANCH   1   7
BRANCH   6  13
ATOM     13  N   LIG d   1      -0.943  82.816 112.157  0.00  0.00    -0.311 N 
ATOM     14  C   LIG d   1      -0.027  83.714 112.515  0.00  0.00     0.210 C 
ATOM     15  C   LIG d   1       0.024  84.970 111.640  0.00  0.00     0.109 C 
ATOM     16  O   LIG d   1       0.769  83.575 113.456  0.00  0.00    -0.276 OA
ATOM     17  H   LIG d   1      -1.525  82.995 111.362  0.00  0.00     0.149 HD
ENDBRANCH   6  13
BRANCH   5  18
ATOM     18  N   LIG d   1       0.862  80.359 111.968  0.00  0.00     0.381 N 
ATOM     19  H   LIG d   1       1.122  81.134 111.391  0.00  0.00    -0.090 HD
ATOM     20  H   LIG d   1       1.165  79.514 111.516  0.00  0.00    -0.090 HD
ATOM     21  H   LIG d   1       1.297  80.440 112.861  0.00  0.00    -0.090 HD
ENDBRANCH   5  18
BRANCH   3  22
ATOM     22  C   LIG d   1      -2.877  77.689 113.320  0.00  0.00     0.382 C 
ATOM     23  O   LIG d   1      -2.142  76.686 113.486  0.00  0.00    -0.241 OA
ATOM     24  O   LIG d   1      -4.108  77.535 113.204  0.00  0.00    -0.241 OA
ENDBRANCH   3  22
TORSDOF 7
ENDMDL
MODEL 9
REMARK VINA RESULT:      -5.2      4.539      7.679
REMARK  7 active torsions:
REMARK  status: ('A' for Active; 'I' for Inactive)
REMARK    1  A    between atoms: C_2  and  C_3 
REMARK    2  A    between atoms: C_3  and  O_6 
REMARK    3  A    between atoms: C_3  and  C_4 
REMARK    4  A    between atoms: C_7  and  O_6 
REMARK    5  A    between atoms: C_9  and  C_10 
REMARK    6  A    between atoms: N_15  and  C_14 
REMARK    7  A    between atoms: N_20  and  C_19 
REMARK       I    between atoms: C_22  and  N_20 
ROOT
ATOM      1  C   LIG d   1       0.493  82.501 112.715  0.00  0.00     0.161 C 
ATOM      2  C   LIG d   1      -0.771  82.085 113.166  0.00  0.00     0.016 C 
ATOM      3  C   LIG d   1      -1.406  80.903 112.721  0.00  0.00     0.038 C 
ATOM      4  C   LIG d   1      -0.749  79.972 111.903  0.00  0.00     0.028 C 
ATOM      5  C   LIG d   1       0.330  80.594 111.022  0.00  0.00    -0.047 C 
ATOM      6  C   LIG d   1       1.272  81.443 111.907  0.00  0.00     0.091 C 
ENDROOT
BRANCH   1   7
ATOM      7  O   LIG d   1       1.282  82.962 113.829  0.00  0.00    -0.368 OA
BRANCH   7   8
ATOM      8  C   LIG d   1       1.518  84.390 113.896  0.00  0.00     0.119 C 
BRANCH   8   9
ATOM      9  C   LIG d   1       3.034  84.616 113.738  0.00  0.00     0.028 C 
ATOM     10  C   LIG d   1       3.472  86.013 114.208  0.00  0.00     0.006 C 
ENDBRANCH   8   9
BRANCH   8  11
ATOM     11  C   LIG d   1       1.167  84.949 115.278  0.00  0.00     0.028 C 
ATOM     12  C   LIG d   1       0.626  83.875 116.235  0.00  0.00     0.006 C 
ENDBRANCH   8  11
ENDBRANCH   7   8
ENDBRANCH   1   7
BRANCH   6  13
ATOM     13  N   LIG d   1       2.306  82.155 111.112  0.00  0.00    -0.311 N 
ATOM     14  C   LIG d   1       3.521  81.661 110.880  0.00  0.00     0.210 C 
ATOM     15  C   LIG d   1       4.441  82.566 110.055  0.00  0.00     0.109 C 
ATOM     16  O   LIG d   1       3.914  80.545 111.252  0.00  0.00    -0.276 OA
ATOM     17  H   LIG d   1       2.061  83.054 110.746  0.00  0.00     0.149 HD
ENDBRANCH   6  13
BRANCH   5  18
ATOM     18  N   LIG d   1       1.025  79.495 110.326  0.00  0.00     0.381 N 
ATOM     19  H   LIG d   1       0.812  78.624 110.769  0.00  0.00    -0.090 HD
ATOM     20  H   LIG d   1       2.017  79.646 110.388  0.00  0.00    -0.090 HD
ATOM     21  H   LIG d   1       0.746  79.467 109.370  0.00  0.00    -0.090 HD
ENDBRANCH   5  18
BRANCH   3  22
ATOM     22  C   LIG d   1      -2.727  80.661 113.064  0.00  0.00     0.382 C 
ATOM     23  O   LIG d   1      -3.079  79.517 113.440  0.00  0.00    -0.241 OA
ATOM     24  O   LIG d   1      -3.582  81.562 112.959  0.00  0.00    -0.241 OA
ENDBRANCH   3  22
TORSDOF 7
ENDMDL
