MODEL 1
REMARK VINA RESULT:      -5.7      0.000      0.000
REMARK  7 active torsions:
REMARK  status: ('A' for Active; 'I' for Inactive)
REMARK    1  A    between atoms: C_2  and  C_3 
REMARK    2  A    between atoms: C_3  and  O_6 
REMARK    3  A    between atoms: C_3  and  C_4 
REMARK    4  A    between atoms: C_7  and  O_6 
REMARK    5  A    between atoms: C_9  and  C_10 
REMARK    6  A    between atoms: N_15  and  C_14 
REMARK    7  A    between atoms: N_20  and  C_19 
REMARK       I    between atoms: C_22  and  N_20 
ROOT
ATOM      1  C   LIG d   1       1.759  85.667 113.254  0.00  0.00     0.161 C 
ATOM      2  C   LIG d   1       0.615  84.918 113.576  0.00  0.00     0.016 C 
ATOM      3  C   LIG d   1       0.160  84.723 114.900  0.00  0.00     0.038 C 
ATOM      4  C   LIG d   1       0.736  85.395 115.989  0.00  0.00     0.028 C 
ATOM      5  C   LIG d   1       2.201  85.759 115.769  0.00  0.00    -0.047 C 
ATOM      6  C   LIG d   1       2.337  86.499 114.418  0.00  0.00     0.091 C 
ENDROOT
BRANCH   1   7
ATOM      7  O   LIG d   1       1.485  86.514 112.121  0.00  0.00    -0.368 OA
BRANCH   7   8
ATOM      8  C   LIG d   1       2.115  86.133 110.873  0.00  0.00     0.119 C 
BRANCH   8   9
ATOM      9  C   LIG d   1       1.079  85.337 110.056  0.00  0.00     0.028 C 
ATOM     10  C   LIG d   1      -0.310  85.997 110.067  0.00  0.00     0.006 C 
ENDBRANCH   8   9
BRANCH   8  11
ATOM     11  C   LIG d   1       3.277  85.163 111.109  0.00  0.00     0.028 C 
ATOM     12  C   LIG d   1       3.212  83.923 110.203  0.00  0.00     0.006 C 
ENDBRANCH   8  11
ENDBRANCH   7   8
ENDBRANCH   1   7
BRANCH   6  13
ATOM     13  N   LIG d   1       3.750  86.817 114.086  0.00  0.00    -0.311 N 
ATOM     14  C   LIG d   1       4.133  87.971 113.543  0.00  0.00     0.210 C 
ATOM     15  C   LIG d   1       5.635  88.087 113.262  0.00  0.00     0.109 C 
ATOM     16  O   LIG d   1       3.377  88.923 113.296  0.00  0.00    -0.276 OA
ATOM     17  H   LIG d   1       4.434  86.113 114.282  0.00  0.00     0.149 HD
ENDBRANCH   6  13
BRANCH   5  18
ATOM     18  N   LIG d   1       2.635  86.574 116.920  0.00  0.00     0.381 N 
ATOM     19  H   LIG d   1       2.515  87.545 116.712  0.00  0.00    -0.090 HD
ATOM     20  H   LIG d   1       3.611  86.405 117.088  0.00  0.00    -0.090 HD
ATOM     21  H   LIG d   1       2.105  86.331 117.728  0.00  0.00    -0.090 HD
ENDBRANCH   5  18
BRANCH   3  22
ATOM     22  C   LIG d   1      -0.859  83.817 115.150  0.00  0.00     0.382 C 
ATOM     23  O   LIG d   1      -0.967  83.292 116.285  0.00  0.00    -0.241 OA
ATOM     24  O   LIG d   1      -1.644  83.483 114.243  0.00  0.00    -0.241 OA
ENDBRANCH   3  22
TORSDOF 7
ENDMDL
MODEL 2
REMARK VINA RESULT:      -5.6      3.143      6.851
REMARK  7 active torsions:
REMARK  status: ('A' for Active; 'I' for Inactive)
REMARK    1  A    between atoms: C_2  and  C_3 
REMARK    2  A    between atoms: C_3  and  O_6 
REMARK    3  A    between atoms: C_3  and  C_4 
REMARK    4  A    between atoms: C_7  and  O_6 
REMARK    5  A    between atoms: C_9  and  C_10 
REMARK    6  A    between atoms: N_15  and  C_14 
REMARK    7  A    between atoms: N_20  and  C_19 
REMARK       I    between atoms: C_22  and  N_20 
ROOT
ATOM      1  C   LIG d   1      -0.211  83.954 113.265  0.00  0.00     0.161 C 
ATOM      2  C   LIG d   1       0.526  85.029 112.742  0.00  0.00     0.016 C 
ATOM      3  C   LIG d   1       1.054  85.046 111.430  0.00  0.00     0.038 C 
ATOM      4  C   LIG d   1       0.749  84.046 110.495  0.00  0.00     0.028 C 
ATOM      5  C   LIG d   1       0.429  82.698 111.133  0.00  0.00    -0.047 C 
ATOM      6  C   LIG d   1      -0.648  82.902 112.223  0.00  0.00     0.091 C 
ENDROOT
BRANCH   1   7
ATOM      7  O   LIG d   1      -1.356  84.451 113.985  0.00  0.00    -0.368 OA
BRANCH   7   8
ATOM      8  C   LIG d   1      -1.353  84.229 115.417  0.00  0.00     0.119 C 
BRANCH   8   9
ATOM      9  C   LIG d   1       0.039  83.692 115.800  0.00  0.00     0.028 C 
ATOM     10  C   LIG d   1       0.819  84.670 116.695  0.00  0.00     0.006 C 
ENDBRANCH   8   9
BRANCH   8  11
ATOM     11  C   LIG d   1      -2.337  83.123 115.811  0.00  0.00     0.028 C 
ATOM     12  C   LIG d   1      -1.752  82.147 116.845  0.00  0.00     0.006 C 
ENDBRANCH   8  11
ENDBRANCH   7   8
ENDBRANCH   1   7
BRANCH   6  13
ATOM     13  N   LIG d   1      -0.959  81.647 112.955  0.00  0.00    -0.311 N 
ATOM     14  C   LIG d   1      -2.173  81.102 112.994  0.00  0.00     0.210 C 
ATOM     15  C   LIG d   1      -2.280  79.818 113.822  0.00  0.00     0.109 C 
ATOM     16  O   LIG d   1      -3.166  81.543 112.395  0.00  0.00    -0.276 OA
ATOM     17  H   LIG d   1      -0.204  81.205 113.444  0.00  0.00     0.149 HD
ENDBRANCH   6  13
BRANCH   5  18
ATOM     18  N   LIG d   1      -0.003  81.787 110.057  0.00  0.00     0.381 N 
ATOM     19  H   LIG d   1       0.682  81.774 109.328  0.00  0.00    -0.090 HD
ATOM     20  H   LIG d   1      -0.867  82.126 109.671  0.00  0.00    -0.090 HD
ATOM     21  H   LIG d   1      -0.131  80.867 110.419  0.00  0.00    -0.090 HD
ENDBRANCH   5  18
BRANCH   3  22
ATOM     22  C   LIG d   1       1.930  86.054 111.055  0.00  0.00     0.382 C 
ATOM     23  O   LIG d   1       3.166  85.839 111.047  0.00  0.00    -0.241 OA
ATOM     24  O   LIG d   1       1.502  87.187 110.766  0.00  0.00    -0.241 OA
ENDBRANCH   3  22
TORSDOF 7
ENDMDL
MODEL 3
REMARK VINA RESULT:      -5.5      2.317      3.367
REMARK  7 active torsions:
REMARK  status: ('A' for Active; 'I' for Inactive)
REMARK    1  A    between atoms: C_2  and  C_3 
REMARK    2  A    between atoms: C_3  and  O_6 
REMARK    3  A    between atoms: C_3  and  C_4 
REMARK    4  A    between atoms: C_7  and  O_6 
REMARK    5  A    between atoms: C_9  and  C_10 
REMARK    6  A    between atoms: N_15  and  C_14 
REMARK    7  A    between atoms: N_20  and  C_19 
REMARK       I    between atoms: C_22  and  N_20 
ROOT
ATOM      1  C   LIG d   1       0.113  83.409 112.331  0.00  0.00     0.161 C 
ATOM      2  C   LIG d   1      -1.018  82.578 112.278  0.00  0.00     0.016 C 
ATOM      3  C   LIG d   1      -1.786  82.234 113.414  0.00  0.00     0.038 C 
ATOM      4  C   LIG d   1      -1.562  82.825 114.666  0.00  0.00     0.028 C 
ATOM      5  C   LIG d   1      -0.122  83.280 114.873  0.00  0.00    -0.047 C 
ATOM      6  C   LIG d   1       0.306  84.152 113.670  0.00  0.00     0.091 C 
ENDROOT
BRANCH   1   7
ATOM      7  O   LIG d   1       0.082  84.348 111.238  0.00  0.00    -0.368 OA
BRANCH   7   8
ATOM      8  C   LIG d   1       1.117  84.193 110.236  0.00  0.00     0.119 C 
BRANCH   8   9
ATOM      9  C   LIG d   1       2.011  83.017 110.672  0.00  0.00     0.028 C 
ATOM     10  C   LIG d   1       3.496  83.408 110.756  0.00  0.00     0.006 C 
ENDBRANCH   8   9
BRANCH   8  11
ATOM     11  C   LIG d   1       2.042  85.414 110.198  0.00  0.00     0.028 C 
ATOM     12  C   LIG d   1       1.355  86.697 110.691  0.00  0.00     0.006 C 
ENDBRANCH   8  11
ENDBRANCH   7   8
ENDBRANCH   1   7
BRANCH   6  13
ATOM     13  N   LIG d   1       1.730  84.570 113.751  0.00  0.00    -0.311 N 
ATOM     14  C   LIG d   1       2.123  85.746 114.237  0.00  0.00     0.210 C 
ATOM     15  C   LIG d   1       3.636  85.985 114.211  0.00  0.00     0.109 C 
ATOM     16  O   LIG d   1       1.364  86.602 114.717  0.00  0.00    -0.276 OA
ATOM     17  H   LIG d   1       2.415  83.923 113.412  0.00  0.00     0.149 HD
ENDBRANCH   6  13
BRANCH   5  18
ATOM     18  N   LIG d   1      -0.061  84.000 116.159  0.00  0.00     0.381 N 
ATOM     19  H   LIG d   1      -0.221  84.976 116.009  0.00  0.00    -0.090 HD
ATOM     20  H   LIG d   1       0.857  83.887 116.552  0.00  0.00    -0.090 HD
ATOM     21  H   LIG d   1      -0.745  83.636 116.785  0.00  0.00    -0.090 HD
ENDBRANCH   5  18
BRANCH   3  22
ATOM     22  C   LIG d   1      -2.766  81.259 113.311  0.00  0.00     0.382 C 
ATOM     23  O   LIG d   1      -3.413  81.129 112.244  0.00  0.00    -0.241 OA
ATOM     24  O   LIG d   1      -3.043  80.536 114.287  0.00  0.00    -0.241 OA
ENDBRANCH   3  22
TORSDOF 7
ENDMDL
MODEL 4
REMARK VINA RESULT:      -5.5      3.654      6.941
REMARK  7 active torsions:
REMARK  status: ('A' for Active; 'I' for Inactive)
REMARK    1  A    between atoms: C_2  and  C_3 
REMARK    2  A    between atoms: C_3  and  O_6 
REMARK    3  A    between atoms: C_3  and  C_4 
REMARK    4  A    between atoms: C_7  and  O_6 
REMARK    5  A    between atoms: C_9  and  C_10 
REMARK    6  A    between atoms: N_15  and  C_14 
REMARK    7  A    between atoms: N_20  and  C_19 
REMARK       I    between atoms: C_22  and  N_20 
ROOT
ATOM      1  C   LIG d   1       0.186  82.996 112.932  0.00  0.00     0.161 C 
ATOM      2  C   LIG d   1       1.238  83.554 112.186  0.00  0.00     0.016 C 
ATOM      3  C   LIG d   1       1.855  82.895 111.098  0.00  0.00     0.038 C 
ATOM      4  C   LIG d   1       1.358  81.689 110.583  0.00  0.00     0.028 C 
ATOM      5  C   LIG d   1       0.618  80.848 111.617  0.00  0.00    -0.047 C 
ATOM      6  C   LIG d   1      -0.443  81.729 112.315  0.00  0.00     0.091 C 
ENDROOT
BRANCH   1   7
ATOM      7  O   LIG d   1      -0.827  83.994 113.170  0.00  0.00    -0.368 OA
BRANCH   7   8
ATOM      8  C   LIG d   1      -0.908  84.509 114.521  0.00  0.00     0.119 C 
BRANCH   8   9
ATOM      9  C   LIG d   1      -0.112  85.828 114.562  0.00  0.00     0.028 C 
ATOM     10  C   LIG d   1       1.092  85.758 115.516  0.00  0.00     0.006 C 
ENDBRANCH   8   9
BRANCH   8  11
ATOM     11  C   LIG d   1      -0.204  83.581 115.515  0.00  0.00     0.028 C 
ATOM     12  C   LIG d   1      -1.165  82.985 116.557  0.00  0.00     0.006 C 
ENDBRANCH   8  11
ENDBRANCH   7   8
ENDBRANCH   1   7
BRANCH   6  13
ATOM     13  N   LIG d   1      -1.155  81.007 113.401  0.00  0.00    -0.311 N 
ATOM     14  C   LIG d   1      -2.482  80.960 113.503  0.00  0.00     0.210 C 
ATOM     15  C   LIG d   1      -3.011  80.178 114.709  0.00  0.00     0.109 C 
ATOM     16  O   LIG d   1      -3.272  81.466 112.691  0.00  0.00    -0.276 OA
ATOM     17  H   LIG d   1      -0.592  80.542 114.086  0.00  0.00     0.149 HD
ENDBRANCH   6  13
BRANCH   5  18
ATOM     18  N   LIG d   1       0.036  79.688 110.915  0.00  0.00     0.381 N 
ATOM     19  H   LIG d   1      -0.853  79.938 110.529  0.00  0.00    -0.090 HD
ATOM     20  H   LIG d   1      -0.105  78.945 111.577  0.00  0.00    -0.090 HD
ATOM     21  H   LIG d   1       0.648  79.386 110.190  0.00  0.00    -0.090 HD
ENDBRANCH   5  18
BRANCH   3  22
ATOM     22  C   LIG d   1       3.008  83.425 110.538  0.00  0.00     0.382 C 
ATOM     23  O   LIG d   1       2.998  84.586 110.062  0.00  0.00    -0.241 OA
ATOM     24  O   LIG d   1       4.046  82.740 110.462  0.00  0.00    -0.241 OA
ENDBRANCH   3  22
TORSDOF 7
ENDMDL
MODEL 5
REMARK VINA RESULT:      -5.5      2.846      5.126
REMARK  7 active torsions:
REMARK  status: ('A' for Active; 'I' for Inactive)
REMARK    1  A    between atoms: C_2  and  C_3 
REMARK    2  A    between atoms: C_3  and  O_6 
REMARK    3  A    between atoms: C_3  and  C_4 
REMARK    4  A    between atoms: C_7  and  O_6 
REMARK    5  A    between atoms: C_9  and  C_10 
REMARK    6  A    between atoms: N_15  and  C_14 
REMARK    7  A    between atoms: N_20  and  C_19 
REMARK       I    between atoms: C_22  and  N_20 
ROOT
ATOM      1  C   LIG d   1       0.077  83.751 113.722  0.00  0.00     0.161 C 
ATOM      2  C   LIG d   1      -1.043  82.923 113.903  0.00  0.00     0.016 C 
ATOM      3  C   LIG d   1      -1.526  82.039 112.910  0.00  0.00     0.038 C 
ATOM      4  C   LIG d   1      -0.826  81.812 111.716  0.00  0.00     0.028 C 
ATOM      5  C   LIG d   1       0.030  82.997 111.281  0.00  0.00    -0.047 C 
ATOM      6  C   LIG d   1       0.918  83.436 112.468  0.00  0.00     0.091 C 
ENDROOT
BRANCH   1   7
ATOM      7  O   LIG d   1       0.904  83.719 114.902  0.00  0.00    -0.368 OA
BRANCH   7   8
ATOM      8  C   LIG d   1       0.791  84.857 115.791  0.00  0.00     0.119 C 
BRANCH   8   9
ATOM      9  C   LIG d   1       2.065  85.707 115.619  0.00  0.00     0.028 C 
ATOM     10  C   LIG d   1       1.845  87.179 116.008  0.00  0.00     0.006 C 
ENDBRANCH   8   9
BRANCH   8  11
ATOM     11  C   LIG d   1       0.791  84.419 117.259  0.00  0.00     0.028 C 
ATOM     12  C   LIG d   1      -0.387  83.494 117.605  0.00  0.00     0.006 C 
ENDBRANCH   8  11
ENDBRANCH   7   8
ENDBRANCH   1   7
BRANCH   6  13
ATOM     13  N   LIG d   1       1.727  84.643 112.154  0.00  0.00    -0.311 N 
ATOM     14  C   LIG d   1       2.999  84.592 111.764  0.00  0.00     0.210 C 
ATOM     15  C   LIG d   1       3.653  85.954 111.511  0.00  0.00     0.109 C 
ATOM     16  O   LIG d   1       3.639  83.547 111.572  0.00  0.00    -0.276 OA
ATOM     17  H   LIG d   1       1.277  85.532 112.252  0.00  0.00     0.149 HD
ENDBRANCH   6  13
BRANCH   5  18
ATOM     18  N   LIG d   1       0.809  82.575 110.101  0.00  0.00     0.381 N 
ATOM     19  H   LIG d   1       1.586  83.191 109.970  0.00  0.00    -0.090 HD
ATOM     20  H   LIG d   1       0.222  82.630 109.288  0.00  0.00    -0.090 HD
ATOM     21  H   LIG d   1       1.133  81.641 110.223  0.00  0.00    -0.090 HD
ENDBRANCH   5  18
BRANCH   3  22
ATOM     22  C   LIG d   1      -2.743  81.401 113.092  0.00  0.00     0.382 C 
ATOM     23  O   LIG d   1      -3.636  81.491 112.214  0.00  0.00    -0.241 OA
ATOM     24  O   LIG d   1      -2.977  80.772 114.142  0.00  0.00    -0.241 OA
ENDBRANCH   3  22
TORSDOF 7
ENDMDL
MODEL 6
REMARK VINA RESULT:      -5.4      1.698      4.734
REMARK  7 active torsions:
REMARK  status: ('A' for Active; 'I' for Inactive)
REMARK    1  A    between atoms: C_2  and  C_3 
REMARK    2  A    between atoms: C_3  and  O_6 
REMARK    3  A    between atoms: C_3  and  C_4 
REMARK    4  A    between atoms: C_7  and  O_6 
REMARK    5  A    between atoms: C_9  and  C_10 
REMARK    6  A    between atoms: N_15  and  C_14 
REMARK    7  A    between atoms: N_20  and  C_19 
REMARK       I    between atoms: C_22  and  N_20 
ROOT
ATOM      1  C   LIG d   1       2.308  86.019 112.293  0.00  0.00     0.161 C 
ATOM      2  C   LIG d   1       3.247  87.062 112.359  0.00  0.00     0.016 C 
ATOM      3  C   LIG d   1       3.710  87.615 113.575  0.00  0.00     0.038 C 
ATOM      4  C   LIG d   1       3.378  87.056 114.818  0.00  0.00     0.028 C 
ATOM      5  C   LIG d   1       2.039  86.325 114.815  0.00  0.00    -0.047 C 
ATOM      6  C   LIG d   1       2.018  85.323 113.639  0.00  0.00     0.091 C 
ENDROOT
BRANCH   1   7
ATOM      7  O   LIG d   1       2.721  85.052 111.307  0.00  0.00    -0.368 OA
BRANCH   7   8
ATOM      8  C   LIG d   1       1.900  84.964 110.117  0.00  0.00     0.119 C 
BRANCH   8   9
ATOM      9  C   LIG d   1       0.824  86.063 110.214  0.00  0.00     0.028 C 
ATOM     10  C   LIG d   1      -0.600  85.505 110.061  0.00  0.00     0.006 C 
ENDBRANCH   8   9
BRANCH   8  11
ATOM     11  C   LIG d   1       1.127  83.643 110.069  0.00  0.00     0.028 C 
ATOM     12  C   LIG d   1       1.884  82.485 110.738  0.00  0.00     0.006 C 
ENDBRANCH   8  11
ENDBRANCH   7   8
ENDBRANCH   1   7
BRANCH   6  13
ATOM     13  N   LIG d   1       0.712  84.625 113.512  0.00  0.00    -0.311 N 
ATOM     14  C   LIG d   1       0.458  83.438 114.060  0.00  0.00     0.210 C 
ATOM     15  C   LIG d   1      -0.946  82.888 113.791  0.00  0.00     0.109 C 
ATOM     16  O   LIG d   1       1.252  82.804 114.771  0.00  0.00    -0.276 OA
ATOM     17  H   LIG d   1      -0.000  85.084 112.978  0.00  0.00     0.149 HD
ENDBRANCH   6  13
BRANCH   5  18
ATOM     18  N   LIG d   1       1.883  85.676 116.131  0.00  0.00     0.381 N 
ATOM     19  H   LIG d   1       1.115  85.035 116.103  0.00  0.00    -0.090 HD
ATOM     20  H   LIG d   1       1.682  86.380 116.819  0.00  0.00    -0.090 HD
ATOM     21  H   LIG d   1       2.719  85.193 116.374  0.00  0.00    -0.090 HD
ENDBRANCH   5  18
BRANCH   3  22
ATOM     22  C   LIG d   1       4.485  88.764 113.556  0.00  0.00     0.382 C 
ATOM     23  O   LIG d   1       5.643  88.732 113.073  0.00  0.00    -0.241 OA
ATOM     24  O   LIG d   1       4.058  89.822 114.056  0.00  0.00    -0.241 OA
ENDBRANCH   3  22
TORSDOF 7
ENDMDL
MODEL 7
REMARK VINA RESULT:      -5.3      2.884      6.406
REMARK  7 active torsions:
REMARK  status: ('A' for Active; 'I' for Inactive)
REMARK    1  A    between atoms: C_2  and  C_3 
REMARK    2  A    between atoms: C_3  and  O_6 
REMARK    3  A    between atoms: C_3  and  C_4 
REMARK    4  A    between atoms: C_7  and  O_6 
REMARK    5  A    between atoms: C_9  and  C_10 
REMARK    6  A    between atoms: N_15  and  C_14 
REMARK    7  A    between atoms: N_20  and  C_19 
REMARK       I    between atoms: C_22  and  N_20 
ROOT
ATOM      1  C   LIG d   1       1.895  83.501 113.407  0.00  0.00     0.161 C 
ATOM      2  C   LIG d   1       2.604  84.709 113.302  0.00  0.00     0.016 C 
ATOM      3  C   LIG d   1       2.374  85.661 112.282  0.00  0.00     0.038 C 
ATOM      4  C   LIG d   1       1.308  85.536 111.379  0.00  0.00     0.028 C 
ATOM      5  C   LIG d   1       0.887  84.091 111.134  0.00  0.00    -0.047 C 
ATOM      6  C   LIG d   1       0.654  83.398 112.496  0.00  0.00     0.091 C 
ENDROOT
BRANCH   1   7
ATOM      7  O   LIG d   1       1.530  83.266 114.781  0.00  0.00    -0.368 OA
BRANCH   7   8
ATOM      8  C   LIG d   1       0.417  84.044 115.287  0.00  0.00     0.119 C 
BRANCH   8   9
ATOM      9  C   LIG d   1       0.952  84.926 116.432  0.00  0.00     0.028 C 
ATOM     10  C   LIG d   1       0.669  84.323 117.818  0.00  0.00     0.006 C 
ENDBRANCH   8   9
BRANCH   8  11
ATOM     11  C   LIG d   1      -0.645  83.146 115.928  0.00  0.00     0.028 C 
ATOM     12  C   LIG d   1      -2.040  83.342 115.314  0.00  0.00     0.006 C 
ENDBRANCH   8  11
ENDBRANCH   7   8
ENDBRANCH   1   7
BRANCH   6  13
ATOM     13  N   LIG d   1       0.321  81.957 112.350  0.00  0.00    -0.311 N 
ATOM     14  C   LIG d   1      -0.920  81.506 112.172  0.00  0.00     0.210 C 
ATOM     15  C   LIG d   1      -1.045  79.983 112.064  0.00  0.00     0.109 C 
ATOM     16  O   LIG d   1      -1.925  82.225 112.061  0.00  0.00    -0.276 OA
ATOM     17  H   LIG d   1       1.080  81.307 112.397  0.00  0.00     0.149 HD
ENDBRANCH   6  13
BRANCH   5  18
ATOM     18  N   LIG d   1      -0.318  84.116 110.284  0.00  0.00     0.381 N 
ATOM     19  H   LIG d   1      -0.578  83.181 110.037  0.00  0.00    -0.090 HD
ATOM     20  H   LIG d   1      -0.110  84.619 109.440  0.00  0.00    -0.090 HD
ATOM     21  H   LIG d   1      -1.068  84.559 110.768  0.00  0.00    -0.090 HD
ENDBRANCH   5  18
BRANCH   3  22
ATOM     22  C   LIG d   1       3.241  86.733 112.134  0.00  0.00     0.382 C 
ATOM     23  O   LIG d   1       2.879  87.884 112.477  0.00  0.00    -0.241 OA
ATOM     24  O   LIG d   1       4.364  86.570 111.621  0.00  0.00    -0.241 OA
ENDBRANCH   3  22
TORSDOF 7
ENDMDL
MODEL 8
REMARK VINA RESULT:      -5.3      2.538      3.304
REMARK  7 active torsions:
REMARK  status: ('A' for Active; 'I' for Inactive)
REMARK    1  A    between atoms: C_2  and  C_3 
REMARK    2  A    between atoms: C_3  and  O_6 
REMARK    3  A    between atoms: C_3  and  C_4 
REMARK    4  A    between atoms: C_7  and  O_6 
REMARK    5  A    between atoms: C_9  and  C_10 
REMARK    6  A    between atoms: N_15  and  C_14 
REMARK    7  A    between atoms: N_20  and  C_19 
REMARK       I    between atoms: C_22  and  N_20 
ROOT
ATOM      1  C   LIG d   1       0.781  82.456 112.721  0.00  0.00     0.161 C 
ATOM      2  C   LIG d   1      -0.493  81.901 112.519  0.00  0.00     0.016 C 
ATOM      3  C   LIG d   1      -1.570  82.076 113.419  0.00  0.00     0.038 C 
ATOM      4  C   LIG d   1      -1.486  82.949 114.514  0.00  0.00     0.028 C 
ATOM      5  C   LIG d   1      -0.065  83.134 115.035  0.00  0.00    -0.047 C 
ATOM      6  C   LIG d   1       0.859  83.503 113.852  0.00  0.00     0.091 C 
ENDROOT
BRANCH   1   7
ATOM      7  O   LIG d   1       1.271  83.016 111.486  0.00  0.00    -0.368 OA
BRANCH   7   8
ATOM      8  C   LIG d   1       1.030  84.430 111.287  0.00  0.00     0.119 C 
BRANCH   8   9
ATOM      9  C   LIG d   1      -0.244  84.567 110.432  0.00  0.00     0.028 C 
ATOM     10  C   LIG d   1      -0.668  86.033 110.241  0.00  0.00     0.006 C 
ENDBRANCH   8   9
BRANCH   8  11
ATOM     11  C   LIG d   1       2.146  85.074 110.459  0.00  0.00     0.028 C 
ATOM     12  C   LIG d   1       3.025  86.028 111.282  0.00  0.00     0.006 C 
ENDBRANCH   8  11
ENDBRANCH   7   8
ENDBRANCH   1   7
BRANCH   6  13
ATOM     13  N   LIG d   1       2.283  83.619 114.260  0.00  0.00    -0.311 N 
ATOM     14  C   LIG d   1       2.839  84.760 114.666  0.00  0.00     0.210 C 
ATOM     15  C   LIG d   1       4.326  84.664 115.021  0.00  0.00     0.109 C 
ATOM     16  O   LIG d   1       2.234  85.835 114.795  0.00  0.00    -0.276 OA
ATOM     17  H   LIG d   1       2.840  82.788 114.215  0.00  0.00     0.149 HD
ENDBRANCH   6  13
BRANCH   5  18
ATOM     18  N   LIG d   1      -0.106  84.171 116.083  0.00  0.00     0.381 N 
ATOM     19  H   LIG d   1      -0.731  84.903 115.811  0.00  0.00    -0.090 HD
ATOM     20  H   LIG d   1       0.813  84.564 116.187  0.00  0.00    -0.090 HD
ATOM     21  H   LIG d   1      -0.404  83.773 116.946  0.00  0.00    -0.090 HD
ENDBRANCH   5  18
BRANCH   3  22
ATOM     22  C   LIG d   1      -2.733  81.341 113.250  0.00  0.00     0.382 C 
ATOM     23  O   LIG d   1      -3.454  81.532 112.241  0.00  0.00    -0.241 OA
ATOM     24  O   LIG d   1      -3.094  80.521 114.116  0.00  0.00    -0.241 OA
ENDBRANCH   3  22
TORSDOF 7
ENDMDL
MODEL 9
REMARK VINA RESULT:      -5.3      3.138      5.151
REMARK  7 active torsions:
REMARK  status: ('A' for Active; 'I' for Inactive)
REMARK    1  A    between atoms: C_2  and  C_3 
REMARK    2  A    between atoms: C_3  and  O_6 
REMARK    3  A    between atoms: C_3  and  C_4 
REMARK    4  A    between atoms: C_7  and  O_6 
REMARK    5  A    between atoms: C_9  and  C_10 
REMARK    6  A    between atoms: N_15  and  C_14 
REMARK    7  A    between atoms: N_20  and  C_19 
REMARK       I    between atoms: C_22  and  N_20 
ROOT
ATOM      1  C   LIG d   1      -0.046  83.882 113.515  0.00  0.00     0.161 C 
ATOM      2  C   LIG d   1      -1.140  83.021 113.701  0.00  0.00     0.016 C 
ATOM      3  C   LIG d   1      -1.432  81.936 112.842  0.00  0.00     0.038 C 
ATOM      4  C   LIG d   1      -0.557  81.545 111.818  0.00  0.00     0.028 C 
ATOM      5  C   LIG d   1       0.297  82.689 111.281  0.00  0.00    -0.047 C 
ATOM      6  C   LIG d   1       0.982  83.404 112.469  0.00  0.00     0.091 C 
ENDROOT
BRANCH   1   7
ATOM      7  O   LIG d   1       0.602  84.128 114.779  0.00  0.00    -0.368 OA
BRANCH   7   8
ATOM      8  C   LIG d   1       0.544  83.050 115.745  0.00  0.00     0.119 C 
BRANCH   8   9
ATOM      9  C   LIG d   1       0.174  83.669 117.107  0.00  0.00     0.028 C 
ATOM     10  C   LIG d   1      -1.068  83.012 117.732  0.00  0.00     0.006 C 
ENDBRANCH   8   9
BRANCH   8  11
ATOM     11  C   LIG d   1       1.921  82.411 115.951  0.00  0.00     0.028 C 
ATOM     12  C   LIG d   1       2.075  81.075 115.208  0.00  0.00     0.006 C 
ENDBRANCH   8  11
ENDBRANCH   7   8
ENDBRANCH   1   7
BRANCH   6  13
ATOM     13  N   LIG d   1       1.770  84.588 112.039  0.00  0.00    -0.311 N 
ATOM     14  C   LIG d   1       3.072  84.542 111.763  0.00  0.00     0.210 C 
ATOM     15  C   LIG d   1       3.696  85.881 111.357  0.00  0.00     0.109 C 
ATOM     16  O   LIG d   1       3.764  83.513 111.785  0.00  0.00    -0.276 OA
ATOM     17  H   LIG d   1       1.281  85.459 111.964  0.00  0.00     0.149 HD
ENDBRANCH   6  13
BRANCH   5  18
ATOM     18  N   LIG d   1       1.257  82.116 110.320  0.00  0.00     0.381 N 
ATOM     19  H   LIG d   1       1.239  81.117 110.378  0.00  0.00    -0.090 HD
ATOM     20  H   LIG d   1       2.182  82.429 110.558  0.00  0.00    -0.090 HD
ATOM     21  H   LIG d   1       1.028  82.406 109.395  0.00  0.00    -0.090 HD
ENDBRANCH   5  18
BRANCH   3  22
ATOM     22  C   LIG d   1      -2.632  81.255 112.979  0.00  0.00     0.382 C 
ATOM     23  O   LIG d   1      -2.733  80.325 113.816  0.00  0.00    -0.241 OA
ATOM     24  O   LIG d   1      -3.601  81.528 112.246  0.00  0.00    -0.241 OA
ENDBRANCH   3  22
TORSDOF 7
ENDMDL
