MODEL 1
REMARK VINA RESULT:      -5.8      0.000      0.000
REMARK  7 active torsions:
REMARK  status: ('A' for Active; 'I' for Inactive)
REMARK    1  A    between atoms: C_2  and  C_3 
REMARK    2  A    between atoms: C_3  and  O_6 
REMARK    3  A    between atoms: C_3  and  C_4 
REMARK    4  A    between atoms: C_7  and  O_6 
REMARK    5  A    between atoms: C_9  and  C_10 
REMARK    6  A    between atoms: N_15  and  C_14 
REMARK    7  A    between atoms: N_20  and  C_19 
REMARK       I    between atoms: C_22  and  N_20 
ROOT
ATOM      1  C   LIG d   1       2.601  86.208 112.086  0.00  0.00     0.161 C 
ATOM      2  C   LIG d   1       3.515  87.268 111.971  0.00  0.00     0.016 C 
ATOM      3  C   LIG d   1       4.404  87.646 113.004  0.00  0.00     0.038 C 
ATOM      4  C   LIG d   1       4.543  86.888 114.176  0.00  0.00     0.028 C 
ATOM      5  C   LIG d   1       3.286  86.108 114.546  0.00  0.00    -0.047 C 
ATOM      6  C   LIG d   1       2.816  85.300 113.315  0.00  0.00     0.091 C 
ENDROOT
BRANCH   1   7
ATOM      7  O   LIG d   1       2.606  85.424 110.877  0.00  0.00    -0.368 OA
BRANCH   7   8
ATOM      8  C   LIG d   1       1.412  85.504 110.060  0.00  0.00     0.119 C 
BRANCH   8   9
ATOM      9  C   LIG d   1       0.481  86.551 110.702  0.00  0.00     0.028 C 
ATOM     10  C   LIG d   1      -0.977  86.070 110.782  0.00  0.00     0.006 C 
ENDBRANCH   8   9
BRANCH   8  11
ATOM     11  C   LIG d   1       0.626  84.190 110.092  0.00  0.00     0.028 C 
ATOM     12  C   LIG d   1       1.534  82.956 110.217  0.00  0.00     0.006 C 
ENDBRANCH   8  11
ENDBRANCH   7   8
ENDBRANCH   1   7
BRANCH   6  13
ATOM     13  N   LIG d   1       1.544  84.574 113.566  0.00  0.00    -0.311 N 
ATOM     14  C   LIG d   1       1.491  83.309 113.981  0.00  0.00     0.210 C 
ATOM     15  C   LIG d   1       0.077  82.746 114.158  0.00  0.00     0.109 C 
ATOM     16  O   LIG d   1       2.480  82.611 114.250  0.00  0.00    -0.276 OA
ATOM     17  H   LIG d   1       0.693  85.075 113.403  0.00  0.00     0.149 HD
ENDBRANCH   6  13
BRANCH   5  18
ATOM     18  N   LIG d   1       3.615  85.257 115.705  0.00  0.00     0.381 N 
ATOM     19  H   LIG d   1       3.671  84.301 115.418  0.00  0.00    -0.090 HD
ATOM     20  H   LIG d   1       2.881  85.339 116.387  0.00  0.00    -0.090 HD
ATOM     21  H   LIG d   1       4.482  85.544 116.104  0.00  0.00    -0.090 HD
ENDBRANCH   5  18
BRANCH   3  22
ATOM     22  C   LIG d   1       5.136  88.817 112.886  0.00  0.00     0.382 C 
ATOM     23  O   LIG d   1       4.575  89.927 113.055  0.00  0.00    -0.241 OA
ATOM     24  O   LIG d   1       6.340  88.781 112.570  0.00  0.00    -0.241 OA
ENDBRANCH   3  22
TORSDOF 7
ENDMDL
MODEL 2
REMARK VINA RESULT:      -5.6      2.156      5.050
REMARK  7 active torsions:
REMARK  status: ('A' for Active; 'I' for Inactive)
REMARK    1  A    between atoms: C_2  and  C_3 
REMARK    2  A    between atoms: C_3  and  O_6 
REMARK    3  A    between atoms: C_3  and  C_4 
REMARK    4  A    between atoms: C_7  and  O_6 
REMARK    5  A    between atoms: C_9  and  C_10 
REMARK    6  A    between atoms: N_15  and  C_14 
REMARK    7  A    between atoms: N_20  and  C_19 
REMARK       I    between atoms: C_22  and  N_20 
ROOT
ATOM      1  C   LIG d   1       3.052  86.059 113.345  0.00  0.00     0.161 C 
ATOM      2  C   LIG d   1       1.874  85.372 113.685  0.00  0.00     0.016 C 
ATOM      3  C   LIG d   1       1.042  85.743 114.766  0.00  0.00     0.038 C 
ATOM      4  C   LIG d   1       1.253  86.924 115.493  0.00  0.00     0.028 C 
ATOM      5  C   LIG d   1       2.710  87.374 115.508  0.00  0.00    -0.047 C 
ATOM      6  C   LIG d   1       3.238  87.415 114.056  0.00  0.00     0.091 C 
ENDROOT
BRANCH   1   7
ATOM      7  O   LIG d   1       3.122  86.229 111.915  0.00  0.00    -0.368 OA
BRANCH   7   8
ATOM      8  C   LIG d   1       2.110  85.540 111.140  0.00  0.00     0.119 C 
BRANCH   8   9
ATOM      9  C   LIG d   1       2.836  84.718 110.057  0.00  0.00     0.028 C 
ATOM     10  C   LIG d   1       3.953  83.836 110.640  0.00  0.00     0.006 C 
ENDBRANCH   8   9
BRANCH   8  11
ATOM     11  C   LIG d   1       1.225  86.528 110.375  0.00  0.00     0.028 C 
ATOM     12  C   LIG d   1      -0.209  86.592 110.923  0.00  0.00     0.006 C 
ENDBRANCH   8  11
ENDBRANCH   7   8
ENDBRANCH   1   7
BRANCH   6  13
ATOM     13  N   LIG d   1       4.681  87.764 113.988  0.00  0.00    -0.311 N 
ATOM     14  C   LIG d   1       5.141  88.871 113.406  0.00  0.00     0.210 C 
ATOM     15  C   LIG d   1       6.664  89.029 113.429  0.00  0.00     0.109 C 
ATOM     16  O   LIG d   1       4.429  89.753 112.902  0.00  0.00    -0.276 OA
ATOM     17  H   LIG d   1       5.327  87.119 114.399  0.00  0.00     0.149 HD
ENDBRANCH   6  13
BRANCH   5  18
ATOM     18  N   LIG d   1       2.764  88.686 116.181  0.00  0.00     0.381 N 
ATOM     19  H   LIG d   1       3.713  88.914 116.403  0.00  0.00    -0.090 HD
ATOM     20  H   LIG d   1       2.244  88.633 117.039  0.00  0.00    -0.090 HD
ATOM     21  H   LIG d   1       2.376  89.388 115.590  0.00  0.00    -0.090 HD
ENDBRANCH   5  18
BRANCH   3  22
ATOM     22  C   LIG d   1       0.008  84.905 115.156  0.00  0.00     0.382 C 
ATOM     23  O   LIG d   1      -1.137  85.055 114.667  0.00  0.00    -0.241 OA
ATOM     24  O   LIG d   1       0.196  84.031 116.023  0.00  0.00    -0.241 OA
ENDBRANCH   3  22
TORSDOF 7
ENDMDL
MODEL 3
REMARK VINA RESULT:      -5.6      1.978      3.639
REMARK  7 active torsions:
REMARK  status: ('A' for Active; 'I' for Inactive)
REMARK    1  A    between atoms: C_2  and  C_3 
REMARK    2  A    between atoms: C_3  and  O_6 
REMARK    3  A    between atoms: C_3  and  C_4 
REMARK    4  A    between atoms: C_7  and  O_6 
REMARK    5  A    between atoms: C_9  and  C_10 
REMARK    6  A    between atoms: N_15  and  C_14 
REMARK    7  A    between atoms: N_20  and  C_19 
REMARK       I    between atoms: C_22  and  N_20 
ROOT
ATOM      1  C   LIG d   1       3.542  84.916 112.700  0.00  0.00     0.161 C 
ATOM      2  C   LIG d   1       4.201  86.110 113.034  0.00  0.00     0.016 C 
ATOM      3  C   LIG d   1       3.903  87.357 112.437  0.00  0.00     0.038 C 
ATOM      4  C   LIG d   1       2.814  87.522 111.568  0.00  0.00     0.028 C 
ATOM      5  C   LIG d   1       2.440  86.248 110.818  0.00  0.00    -0.047 C 
ATOM      6  C   LIG d   1       2.276  85.096 111.835  0.00  0.00     0.091 C 
ENDROOT
BRANCH   1   7
ATOM      7  O   LIG d   1       3.229  84.179 113.898  0.00  0.00    -0.368 OA
BRANCH   7   8
ATOM      8  C   LIG d   1       1.972  84.507 114.539  0.00  0.00     0.119 C 
BRANCH   8   9
ATOM      9  C   LIG d   1       2.301  85.216 115.867  0.00  0.00     0.028 C 
ATOM     10  C   LIG d   1       1.701  86.630 115.941  0.00  0.00     0.006 C 
ENDBRANCH   8   9
BRANCH   8  11
ATOM     11  C   LIG d   1       1.201  83.244 114.933  0.00  0.00     0.028 C 
ATOM     12  C   LIG d   1       1.790  81.968 114.313  0.00  0.00     0.006 C 
ENDBRANCH   8  11
ENDBRANCH   7   8
ENDBRANCH   1   7
BRANCH   6  13
ATOM     13  N   LIG d   1       1.993  83.794 111.176  0.00  0.00    -0.311 N 
ATOM     14  C   LIG d   1       0.762  83.318 110.995  0.00  0.00     0.210 C 
ATOM     15  C   LIG d   1       0.694  81.948 110.312  0.00  0.00     0.109 C 
ATOM     16  O   LIG d   1      -0.280  83.914 111.305  0.00  0.00    -0.276 OA
ATOM     17  H   LIG d   1       2.780  83.259 110.866  0.00  0.00     0.149 HD
ENDBRANCH   6  13
BRANCH   5  18
ATOM     18  N   LIG d   1       1.209  86.526 110.055  0.00  0.00     0.381 N 
ATOM     19  H   LIG d   1       1.164  85.927 109.255  0.00  0.00    -0.090 HD
ATOM     20  H   LIG d   1       1.232  87.478 109.736  0.00  0.00    -0.090 HD
ATOM     21  H   LIG d   1       0.410  86.381 110.633  0.00  0.00    -0.090 HD
ENDBRANCH   5  18
BRANCH   3  22
ATOM     22  C   LIG d   1       4.725  88.448 112.678  0.00  0.00     0.382 C 
ATOM     23  O   LIG d   1       4.257  89.477 113.224  0.00  0.00    -0.241 OA
ATOM     24  O   LIG d   1       5.917  88.433 112.317  0.00  0.00    -0.241 OA
ENDBRANCH   3  22
TORSDOF 7
ENDMDL
MODEL 4
REMARK VINA RESULT:      -5.5      3.232      5.369
REMARK  7 active torsions:
REMARK  status: ('A' for Active; 'I' for Inactive)
REMARK    1  A    between atoms: C_2  and  C_3 
REMARK    2  A    between atoms: C_3  and  O_6 
REMARK    3  A    between atoms: C_3  and  C_4 
REMARK    4  A    between atoms: C_7  and  O_6 
REMARK    5  A    between atoms: C_9  and  C_10 
REMARK    6  A    between atoms: N_15  and  C_14 
REMARK    7  A    between atoms: N_20  and  C_19 
REMARK       I    between atoms: C_22  and  N_20 
ROOT
ATOM      1  C   LIG d   1      -0.195  84.165 113.325  0.00  0.00     0.161 C 
ATOM      2  C   LIG d   1       0.411  85.313 112.786  0.00  0.00     0.016 C 
ATOM      3  C   LIG d   1       0.852  85.403 111.446  0.00  0.00     0.038 C 
ATOM      4  C   LIG d   1       0.579  84.399 110.506  0.00  0.00     0.028 C 
ATOM      5  C   LIG d   1       0.418  83.015 111.127  0.00  0.00    -0.047 C 
ATOM      6  C   LIG d   1      -0.602  83.100 112.285  0.00  0.00     0.091 C 
ENDROOT
BRANCH   1   7
ATOM      7  O   LIG d   1      -1.332  84.544 114.126  0.00  0.00    -0.368 OA
BRANCH   7   8
ATOM      8  C   LIG d   1      -1.198  84.346 115.555  0.00  0.00     0.119 C 
BRANCH   8   9
ATOM      9  C   LIG d   1       0.223  83.813 115.818  0.00  0.00     0.028 C 
ATOM     10  C   LIG d   1       1.050  84.757 116.707  0.00  0.00     0.006 C 
ENDBRANCH   8   9
BRANCH   8  11
ATOM     11  C   LIG d   1      -2.142  83.249 116.056  0.00  0.00     0.028 C 
ATOM     12  C   LIG d   1      -2.124  83.101 117.586  0.00  0.00     0.006 C 
ENDBRANCH   8  11
ENDBRANCH   7   8
ENDBRANCH   1   7
BRANCH   6  13
ATOM     13  N   LIG d   1      -0.756  81.808 113.002  0.00  0.00    -0.311 N 
ATOM     14  C   LIG d   1      -1.936  81.242 113.250  0.00  0.00     0.210 C 
ATOM     15  C   LIG d   1      -1.870  79.920 114.019  0.00  0.00     0.109 C 
ATOM     16  O   LIG d   1      -3.029  81.694 112.877  0.00  0.00    -0.276 OA
ATOM     17  H   LIG d   1       0.082  81.356 113.312  0.00  0.00     0.149 HD
ENDBRANCH   6  13
BRANCH   5  18
ATOM     18  N   LIG d   1       0.000  82.091 110.055  0.00  0.00     0.381 N 
ATOM     19  H   LIG d   1      -0.976  81.890 110.142  0.00  0.00    -0.090 HD
ATOM     20  H   LIG d   1       0.509  81.230 110.152  0.00  0.00    -0.090 HD
ATOM     21  H   LIG d   1       0.185  82.497 109.164  0.00  0.00    -0.090 HD
ENDBRANCH   5  18
BRANCH   3  22
ATOM     22  C   LIG d   1       1.611  86.492 111.044  0.00  0.00     0.382 C 
ATOM     23  O   LIG d   1       1.197  87.657 111.255  0.00  0.00    -0.241 OA
ATOM     24  O   LIG d   1       2.685  86.323 110.435  0.00  0.00    -0.241 OA
ENDBRANCH   3  22
TORSDOF 7
ENDMDL
MODEL 5
REMARK VINA RESULT:      -5.4      2.029      4.866
REMARK  7 active torsions:
REMARK  status: ('A' for Active; 'I' for Inactive)
REMARK    1  A    between atoms: C_2  and  C_3 
REMARK    2  A    between atoms: C_3  and  O_6 
REMARK    3  A    between atoms: C_3  and  C_4 
REMARK    4  A    between atoms: C_7  and  O_6 
REMARK    5  A    between atoms: C_9  and  C_10 
REMARK    6  A    between atoms: N_15  and  C_14 
REMARK    7  A    between atoms: N_20  and  C_19 
REMARK       I    between atoms: C_22  and  N_20 
ROOT
ATOM      1  C   LIG d   1       1.849  86.050 113.135  0.00  0.00     0.161 C 
ATOM      2  C   LIG d   1       0.792  85.287 113.659  0.00  0.00     0.016 C 
ATOM      3  C   LIG d   1       0.575  85.105 115.044  0.00  0.00     0.038 C 
ATOM      4  C   LIG d   1       1.318  85.802 116.008  0.00  0.00     0.028 C 
ATOM      5  C   LIG d   1       2.716  86.187 115.535  0.00  0.00    -0.047 C 
ATOM      6  C   LIG d   1       2.603  86.908 114.172  0.00  0.00     0.091 C 
ENDROOT
BRANCH   1   7
ATOM      7  O   LIG d   1       1.368  86.876 112.056  0.00  0.00    -0.368 OA
BRANCH   7   8
ATOM      8  C   LIG d   1       1.811  86.508 110.726  0.00  0.00     0.119 C 
BRANCH   8   9
ATOM      9  C   LIG d   1       0.688  85.675 110.078  0.00  0.00     0.028 C 
ATOM     10  C   LIG d   1      -0.713  86.186 110.454  0.00  0.00     0.006 C 
ENDBRANCH   8   9
BRANCH   8  11
ATOM     11  C   LIG d   1       3.026  85.578 110.781  0.00  0.00     0.028 C 
ATOM     12  C   LIG d   1       2.788  84.244 110.055  0.00  0.00     0.006 C 
ENDBRANCH   8  11
ENDBRANCH   7   8
ENDBRANCH   1   7
BRANCH   6  13
ATOM     13  N   LIG d   1       3.932  87.244 113.597  0.00  0.00    -0.311 N 
ATOM     14  C   LIG d   1       4.414  88.484 113.543  0.00  0.00     0.210 C 
ATOM     15  C   LIG d   1       5.795  88.612 112.892  0.00  0.00     0.109 C 
ATOM     16  O   LIG d   1       3.844  89.486 114.001  0.00  0.00    -0.276 OA
ATOM     17  H   LIG d   1       4.475  86.487 113.231  0.00  0.00     0.149 HD
ENDBRANCH   6  13
BRANCH   5  18
ATOM     18  N   LIG d   1       3.327  87.025 116.584  0.00  0.00     0.381 N 
ATOM     19  H   LIG d   1       2.663  87.192 117.313  0.00  0.00    -0.090 HD
ATOM     20  H   LIG d   1       3.586  87.909 116.183  0.00  0.00    -0.090 HD
ATOM     21  H   LIG d   1       4.133  86.572 116.956  0.00  0.00    -0.090 HD
ENDBRANCH   5  18
BRANCH   3  22
ATOM     22  C   LIG d   1      -0.368  84.186 115.477  0.00  0.00     0.382 C 
ATOM     23  O   LIG d   1      -0.040  83.283 116.284  0.00  0.00    -0.241 OA
ATOM     24  O   LIG d   1      -1.533  84.221 115.037  0.00  0.00    -0.241 OA
ENDBRANCH   3  22
TORSDOF 7
ENDMDL
MODEL 6
REMARK VINA RESULT:      -5.2      1.472      2.252
REMARK  7 active torsions:
REMARK  status: ('A' for Active; 'I' for Inactive)
REMARK    1  A    between atoms: C_2  and  C_3 
REMARK    2  A    between atoms: C_3  and  O_6 
REMARK    3  A    between atoms: C_3  and  C_4 
REMARK    4  A    between atoms: C_7  and  O_6 
REMARK    5  A    between atoms: C_9  and  C_10 
REMARK    6  A    between atoms: N_15  and  C_14 
REMARK    7  A    between atoms: N_20  and  C_19 
REMARK       I    between atoms: C_22  and  N_20 
ROOT
ATOM      1  C   LIG d   1       3.126  85.447 113.200  0.00  0.00     0.161 C 
ATOM      2  C   LIG d   1       3.853  86.533 112.685  0.00  0.00     0.016 C 
ATOM      3  C   LIG d   1       4.505  87.489 113.499  0.00  0.00     0.038 C 
ATOM      4  C   LIG d   1       4.600  87.336 114.890  0.00  0.00     0.028 C 
ATOM      5  C   LIG d   1       3.454  86.530 115.491  0.00  0.00    -0.047 C 
ATOM      6  C   LIG d   1       3.312  85.202 114.712  0.00  0.00     0.091 C 
ENDROOT
BRANCH   1   7
ATOM      7  O   LIG d   1       3.440  84.253 112.457  0.00  0.00    -0.368 OA
BRANCH   7   8
ATOM      8  C   LIG d   1       2.345  83.653 111.721  0.00  0.00     0.119 C 
BRANCH   8   9
ATOM      9  C   LIG d   1       2.759  83.598 110.238  0.00  0.00     0.028 C 
ATOM     10  C   LIG d   1       4.250  83.272 110.056  0.00  0.00     0.006 C 
ENDBRANCH   8   9
BRANCH   8  11
ATOM     11  C   LIG d   1       1.096  84.538 111.762  0.00  0.00     0.028 C 
ATOM     12  C   LIG d   1       0.004  84.074 110.785  0.00  0.00     0.006 C 
ENDBRANCH   8  11
ENDBRANCH   7   8
ENDBRANCH   1   7
BRANCH   6  13
ATOM     13  N   LIG d   1       2.159  84.390 115.181  0.00  0.00    -0.311 N 
ATOM     14  C   LIG d   1       2.271  83.129 115.594  0.00  0.00     0.210 C 
ATOM     15  C   LIG d   1       0.956  82.468 116.017  0.00  0.00     0.109 C 
ATOM     16  O   LIG d   1       3.340  82.505 115.681  0.00  0.00    -0.276 OA
ATOM     17  H   LIG d   1       1.259  84.828 115.173  0.00  0.00     0.149 HD
ENDBRANCH   6  13
BRANCH   5  18
ATOM     18  N   LIG d   1       3.751  86.331 116.922  0.00  0.00     0.381 N 
ATOM     19  H   LIG d   1       3.995  87.206 117.342  0.00  0.00    -0.090 HD
ATOM     20  H   LIG d   1       4.537  85.711 117.008  0.00  0.00    -0.090 HD
ATOM     21  H   LIG d   1       2.959  85.942 117.384  0.00  0.00    -0.090 HD
ENDBRANCH   5  18
BRANCH   3  22
ATOM     22  C   LIG d   1       5.036  88.633 112.924  0.00  0.00     0.382 C 
ATOM     23  O   LIG d   1       6.066  88.557 112.211  0.00  0.00    -0.241 OA
ATOM     24  O   LIG d   1       4.524  89.747 113.144  0.00  0.00    -0.241 OA
ENDBRANCH   3  22
TORSDOF 7
ENDMDL
MODEL 7
REMARK VINA RESULT:      -5.2      2.273      3.641
REMARK  7 active torsions:
REMARK  status: ('A' for Active; 'I' for Inactive)
REMARK    1  A    between atoms: C_2  and  C_3 
REMARK    2  A    between atoms: C_3  and  O_6 
REMARK    3  A    between atoms: C_3  and  C_4 
REMARK    4  A    between atoms: C_7  and  O_6 
REMARK    5  A    between atoms: C_9  and  C_10 
REMARK    6  A    between atoms: N_15  and  C_14 
REMARK    7  A    between atoms: N_20  and  C_19 
REMARK       I    between atoms: C_22  and  N_20 
ROOT
ATOM      1  C   LIG d   1      -0.493  85.003 112.891  0.00  0.00     0.161 C 
ATOM      2  C   LIG d   1       0.240  85.700 111.917  0.00  0.00     0.016 C 
ATOM      3  C   LIG d   1       1.486  86.318 112.174  0.00  0.00     0.038 C 
ATOM      4  C   LIG d   1       2.158  86.150 113.394  0.00  0.00     0.028 C 
ATOM      5  C   LIG d   1       1.225  85.878 114.568  0.00  0.00    -0.047 C 
ATOM      6  C   LIG d   1       0.277  84.715 114.197  0.00  0.00     0.091 C 
ENDROOT
BRANCH   1   7
ATOM      7  O   LIG d   1      -1.007  83.778 112.332  0.00  0.00    -0.368 OA
BRANCH   7   8
ATOM      8  C   LIG d   1      -0.108  82.642 112.349  0.00  0.00     0.119 C 
BRANCH   8   9
ATOM      9  C   LIG d   1       0.288  82.343 110.891  0.00  0.00     0.028 C 
ATOM     10  C   LIG d   1       1.746  82.727 110.588  0.00  0.00     0.006 C 
ENDBRANCH   8   9
BRANCH   8  11
ATOM     11  C   LIG d   1      -0.816  81.378 112.845  0.00  0.00     0.028 C 
ATOM     12  C   LIG d   1      -2.230  81.657 113.377  0.00  0.00     0.006 C 
ENDBRANCH   8  11
ENDBRANCH   7   8
ENDBRANCH   1   7
BRANCH   6  13
ATOM     13  N   LIG d   1      -0.726  84.439 115.259  0.00  0.00    -0.311 N 
ATOM     14  C   LIG d   1      -0.596  83.461 116.154  0.00  0.00     0.210 C 
ATOM     15  C   LIG d   1      -1.754  83.337 117.149  0.00  0.00     0.109 C 
ATOM     16  O   LIG d   1       0.383  82.705 116.238  0.00  0.00    -0.276 OA
ATOM     17  H   LIG d   1      -1.537  85.025 115.283  0.00  0.00     0.149 HD
ENDBRANCH   6  13
BRANCH   5  18
ATOM     18  N   LIG d   1       2.063  85.587 115.746  0.00  0.00     0.381 N 
ATOM     19  H   LIG d   1       3.030  85.668 115.502  0.00  0.00    -0.090 HD
ATOM     20  H   LIG d   1       1.891  84.643 116.043  0.00  0.00    -0.090 HD
ATOM     21  H   LIG d   1       1.845  86.220 116.485  0.00  0.00    -0.090 HD
ENDBRANCH   5  18
BRANCH   3  22
ATOM     22  C   LIG d   1       2.052  87.147 111.218  0.00  0.00     0.382 C 
ATOM     23  O   LIG d   1       2.251  86.719 110.056  0.00  0.00    -0.241 OA
ATOM     24  O   LIG d   1       2.407  88.304 111.516  0.00  0.00    -0.241 OA
ENDBRANCH   3  22
TORSDOF 7
ENDMDL
MODEL 8
REMARK VINA RESULT:      -5.0      1.848      2.450
REMARK  7 active torsions:
REMARK  status: ('A' for Active; 'I' for Inactive)
REMARK    1  A    between atoms: C_2  and  C_3 
REMARK    2  A    between atoms: C_3  and  O_6 
REMARK    3  A    between atoms: C_3  and  C_4 
REMARK    4  A    between atoms: C_7  and  O_6 
REMARK    5  A    between atoms: C_9  and  C_10 
REMARK    6  A    between atoms: N_15  and  C_14 
REMARK    7  A    between atoms: N_20  and  C_19 
REMARK       I    between atoms: C_22  and  N_20 
ROOT
ATOM      1  C   LIG d   1       2.217  85.779 113.187  0.00  0.00     0.161 C 
ATOM      2  C   LIG d   1       3.220  86.649 112.730  0.00  0.00     0.016 C 
ATOM      3  C   LIG d   1       3.786  87.672 113.526  0.00  0.00     0.038 C 
ATOM      4  C   LIG d   1       3.491  87.797 114.891  0.00  0.00     0.028 C 
ATOM      5  C   LIG d   1       2.112  87.263 115.265  0.00  0.00    -0.047 C 
ATOM      6  C   LIG d   1       1.962  85.829 114.708  0.00  0.00     0.091 C 
ENDROOT
BRANCH   1   7
ATOM      7  O   LIG d   1       2.513  84.431 112.773  0.00  0.00    -0.368 OA
BRANCH   7   8
ATOM      8  C   LIG d   1       1.696  83.900 111.700  0.00  0.00     0.119 C 
BRANCH   8   9
ATOM      9  C   LIG d   1       0.789  82.811 112.304  0.00  0.00     0.028 C 
ATOM     10  C   LIG d   1       1.553  81.868 113.249  0.00  0.00     0.006 C 
ENDBRANCH   8   9
BRANCH   8  11
ATOM     11  C   LIG d   1       2.552  83.180 110.653  0.00  0.00     0.028 C 
ATOM     12  C   LIG d   1       3.899  83.876 110.403  0.00  0.00     0.006 C 
ENDBRANCH   8  11
ENDBRANCH   7   8
ENDBRANCH   1   7
BRANCH   6  13
ATOM     13  N   LIG d   1       0.610  85.263 114.956  0.00  0.00    -0.311 N 
ATOM     14  C   LIG d   1       0.380  84.255 115.796  0.00  0.00     0.210 C 
ATOM     15  C   LIG d   1      -1.084  83.812 115.889  0.00  0.00     0.109 C 
ATOM     16  O   LIG d   1       1.244  83.706 116.496  0.00  0.00    -0.276 OA
ATOM     17  H   LIG d   1      -0.154  85.670 114.453  0.00  0.00     0.149 HD
ENDBRANCH   6  13
BRANCH   5  18
ATOM     18  N   LIG d   1       1.991  87.329 116.733  0.00  0.00     0.381 N 
ATOM     19  H   LIG d   1       1.048  87.135 117.005  0.00  0.00    -0.090 HD
ATOM     20  H   LIG d   1       2.222  88.259 117.037  0.00  0.00    -0.090 HD
ATOM     21  H   LIG d   1       2.609  86.671 117.156  0.00  0.00    -0.090 HD
ENDBRANCH   5  18
BRANCH   3  22
ATOM     22  C   LIG d   1       4.628  88.608 112.945  0.00  0.00     0.382 C 
ATOM     23  O   LIG d   1       5.670  88.234 112.355  0.00  0.00    -0.241 OA
ATOM     24  O   LIG d   1       4.381  89.825 113.042  0.00  0.00    -0.241 OA
ENDBRANCH   3  22
TORSDOF 7
ENDMDL
MODEL 9
REMARK VINA RESULT:      -4.9      2.371      3.901
REMARK  7 active torsions:
REMARK  status: ('A' for Active; 'I' for Inactive)
REMARK    1  A    between atoms: C_2  and  C_3 
REMARK    2  A    between atoms: C_3  and  O_6 
REMARK    3  A    between atoms: C_3  and  C_4 
REMARK    4  A    between atoms: C_7  and  O_6 
REMARK    5  A    between atoms: C_9  and  C_10 
REMARK    6  A    between atoms: N_15  and  C_14 
REMARK    7  A    between atoms: N_20  and  C_19 
REMARK       I    between atoms: C_22  and  N_20 
ROOT
ATOM      1  C   LIG d   1       1.594  85.040 113.295  0.00  0.00     0.161 C 
ATOM      2  C   LIG d   1       2.248  86.283 113.283  0.00  0.00     0.016 C 
ATOM      3  C   LIG d   1       3.173  86.666 112.284  0.00  0.00     0.038 C 
ATOM      4  C   LIG d   1       3.394  85.886 111.140  0.00  0.00     0.028 C 
ATOM      5  C   LIG d   1       3.137  84.399 111.362  0.00  0.00    -0.047 C 
ATOM      6  C   LIG d   1       1.739  84.221 111.995  0.00  0.00     0.091 C 
ENDROOT
BRANCH   1   7
ATOM      7  O   LIG d   1       0.202  85.224 113.619  0.00  0.00    -0.368 OA
BRANCH   7   8
ATOM      8  C   LIG d   1      -0.176  84.946 114.990  0.00  0.00     0.119 C 
BRANCH   8   9
ATOM      9  C   LIG d   1       1.060  84.360 115.700  0.00  0.00     0.028 C 
ATOM     10  C   LIG d   1       1.437  85.147 116.967  0.00  0.00     0.006 C 
ENDBRANCH   8   9
BRANCH   8  11
ATOM     11  C   LIG d   1      -1.244  83.851 115.063  0.00  0.00     0.028 C 
ATOM     12  C   LIG d   1      -0.673  82.490 115.493  0.00  0.00     0.006 C 
ENDBRANCH   8  11
ENDBRANCH   7   8
ENDBRANCH   1   7
BRANCH   6  13
ATOM     13  N   LIG d   1       1.442  82.802 112.323  0.00  0.00    -0.311 N 
ATOM     14  C   LIG d   1       0.317  82.186 111.962  0.00  0.00     0.210 C 
ATOM     15  C   LIG d   1       0.203  80.728 112.419  0.00  0.00     0.109 C 
ATOM     16  O   LIG d   1      -0.583  82.699 111.280  0.00  0.00    -0.276 OA
ATOM     17  H   LIG d   1       2.132  82.301 112.848  0.00  0.00     0.149 HD
ENDBRANCH   6  13
BRANCH   5  18
ATOM     18  N   LIG d   1       3.272  83.724 110.057  0.00  0.00     0.381 N 
ATOM     19  H   LIG d   1       2.551  84.037 109.438  0.00  0.00    -0.090 HD
ATOM     20  H   LIG d   1       3.164  82.734 110.191  0.00  0.00    -0.090 HD
ATOM     21  H   LIG d   1       4.166  83.919 109.663  0.00  0.00    -0.090 HD
ENDBRANCH   5  18
BRANCH   3  22
ATOM     22  C   LIG d   1       3.918  87.825 112.446  0.00  0.00     0.382 C 
ATOM     23  O   LIG d   1       5.142  87.751 112.712  0.00  0.00    -0.241 OA
ATOM     24  O   LIG d   1       3.373  88.942 112.372  0.00  0.00    -0.241 OA
ENDBRANCH   3  22
TORSDOF 7
ENDMDL
