MODEL 1
REMARK VINA RESULT:      -5.7      0.000      0.000
REMARK  7 active torsions:
REMARK  status: ('A' for Active; 'I' for Inactive)
REMARK    1  A    between atoms: C_2  and  C_3 
REMARK    2  A    between atoms: C_3  and  O_6 
REMARK    3  A    between atoms: C_3  and  C_4 
REMARK    4  A    between atoms: C_7  and  O_6 
REMARK    5  A    between atoms: C_9  and  C_10 
REMARK    6  A    between atoms: N_15  and  C_14 
REMARK    7  A    between atoms: N_20  and  C_19 
REMARK       I    between atoms: C_22  and  N_20 
ROOT
ATOM      1  C   LIG d   1      -7.147  75.813 117.820  0.00  0.00     0.161 C 
ATOM      2  C   LIG d   1      -8.205  76.732 117.912  0.00  0.00     0.016 C 
ATOM      3  C   LIG d   1      -8.026  78.133 117.846  0.00  0.00     0.038 C 
ATOM      4  C   LIG d   1      -6.786  78.708 117.531  0.00  0.00     0.028 C 
ATOM      5  C   LIG d   1      -5.597  77.841 117.930  0.00  0.00    -0.047 C 
ATOM      6  C   LIG d   1      -5.802  76.417 117.365  0.00  0.00     0.091 C 
ENDROOT
BRANCH   1   7
ATOM      7  O   LIG d   1      -7.522  74.720 116.958  0.00  0.00    -0.368 OA
BRANCH   7   8
ATOM      8  C   LIG d   1      -8.167  73.594 117.602  0.00  0.00     0.119 C 
BRANCH   8   9
ATOM      9  C   LIG d   1      -7.190  72.404 117.541  0.00  0.00     0.028 C 
ATOM     10  C   LIG d   1      -7.012  71.862 116.113  0.00  0.00     0.006 C 
ENDBRANCH   8   9
BRANCH   8  11
ATOM     11  C   LIG d   1      -9.406  73.141 116.822  0.00  0.00     0.028 C 
ATOM     12  C   LIG d   1     -10.383  74.292 116.535  0.00  0.00     0.006 C 
ENDBRANCH   8  11
ENDBRANCH   7   8
ENDBRANCH   1   7
BRANCH   6  13
ATOM     13  N   LIG d   1      -4.724  75.482 117.781  0.00  0.00    -0.311 N 
ATOM     14  C   LIG d   1      -4.056  74.708 116.927  0.00  0.00     0.210 C 
ATOM     15  C   LIG d   1      -2.999  73.802 117.567  0.00  0.00     0.109 C 
ATOM     16  O   LIG d   1      -4.216  74.708 115.698  0.00  0.00    -0.276 OA
ATOM     17  H   LIG d   1      -4.508  75.441 118.757  0.00  0.00     0.149 HD
ENDBRANCH   6  13
BRANCH   5  18
ATOM     18  N   LIG d   1      -4.377  78.496 117.420  0.00  0.00     0.381 N 
ATOM     19  H   LIG d   1      -3.682  77.805 117.217  0.00  0.00    -0.090 HD
ATOM     20  H   LIG d   1      -4.016  79.108 118.131  0.00  0.00    -0.090 HD
ATOM     21  H   LIG d   1      -4.588  79.017 116.598  0.00  0.00    -0.090 HD
ENDBRANCH   5  18
BRANCH   3  22
ATOM     22  C   LIG d   1      -9.088  78.976 118.137  0.00  0.00     0.382 C 
ATOM     23  O   LIG d   1     -10.255  78.517 118.194  0.00  0.00    -0.241 OA
ATOM     24  O   LIG d   1      -8.900  80.196 118.299  0.00  0.00    -0.241 OA
ENDBRANCH   3  22
TORSDOF 7
ENDMDL
MODEL 2
REMARK VINA RESULT:      -5.5     12.086     14.506
REMARK  7 active torsions:
REMARK  status: ('A' for Active; 'I' for Inactive)
REMARK    1  A    between atoms: C_2  and  C_3 
REMARK    2  A    between atoms: C_3  and  O_6 
REMARK    3  A    between atoms: C_3  and  C_4 
REMARK    4  A    between atoms: C_7  and  O_6 
REMARK    5  A    between atoms: C_9  and  C_10 
REMARK    6  A    between atoms: N_15  and  C_14 
REMARK    7  A    between atoms: N_20  and  C_19 
REMARK       I    between atoms: C_22  and  N_20 
ROOT
ATOM      1  C   LIG d   1       2.469  84.335 113.250  0.00  0.00     0.161 C 
ATOM      2  C   LIG d   1       1.346  83.772 112.620  0.00  0.00     0.016 C 
ATOM      3  C   LIG d   1       0.015  84.082 112.981  0.00  0.00     0.038 C 
ATOM      4  C   LIG d   1      -0.287  85.097 113.901  0.00  0.00     0.028 C 
ATOM      5  C   LIG d   1       0.818  85.334 114.925  0.00  0.00    -0.047 C 
ATOM      6  C   LIG d   1       2.159  85.526 114.180  0.00  0.00     0.091 C 
ENDROOT
BRANCH   1   7
ATOM      7  O   LIG d   1       3.446  84.713 112.260  0.00  0.00    -0.368 OA
BRANCH   7   8
ATOM      8  C   LIG d   1       3.395  86.088 111.807  0.00  0.00     0.119 C 
BRANCH   8   9
ATOM      9  C   LIG d   1       2.636  86.106 110.466  0.00  0.00     0.028 C 
ATOM     10  C   LIG d   1       1.322  86.901 110.546  0.00  0.00     0.006 C 
ENDBRANCH   8   9
BRANCH   8  11
ATOM     11  C   LIG d   1       4.795  86.621 111.488  0.00  0.00     0.028 C 
ATOM     12  C   LIG d   1       5.246  87.728 112.455  0.00  0.00     0.006 C 
ENDBRANCH   8  11
ENDBRANCH   7   8
ENDBRANCH   1   7
BRANCH   6  13
ATOM     13  N   LIG d   1       3.307  85.680 115.111  0.00  0.00    -0.311 N 
ATOM     14  C   LIG d   1       3.719  86.857 115.580  0.00  0.00     0.210 C 
ATOM     15  C   LIG d   1       4.934  86.793 116.511  0.00  0.00     0.109 C 
ATOM     16  O   LIG d   1       3.173  87.944 115.338  0.00  0.00    -0.276 OA
ATOM     17  H   LIG d   1       3.788  84.845 115.384  0.00  0.00     0.149 HD
ENDBRANCH   6  13
BRANCH   5  18
ATOM     18  N   LIG d   1       0.433  86.506 115.733  0.00  0.00     0.381 N 
ATOM     19  H   LIG d   1      -0.471  86.830 115.452  0.00  0.00    -0.090 HD
ATOM     20  H   LIG d   1       1.096  87.244 115.573  0.00  0.00    -0.090 HD
ATOM     21  H   LIG d   1       0.421  86.265 116.700  0.00  0.00    -0.090 HD
ENDBRANCH   5  18
BRANCH   3  22
ATOM     22  C   LIG d   1      -1.031  83.345 112.446  0.00  0.00     0.382 C 
ATOM     23  O   LIG d   1      -1.048  83.078 111.221  0.00  0.00    -0.241 OA
ATOM     24  O   LIG d   1      -1.981  82.983 113.167  0.00  0.00    -0.241 OA
ENDBRANCH   3  22
TORSDOF 7
ENDMDL
MODEL 3
REMARK VINA RESULT:      -5.2     11.726     14.008
REMARK  7 active torsions:
REMARK  status: ('A' for Active; 'I' for Inactive)
REMARK    1  A    between atoms: C_2  and  C_3 
REMARK    2  A    between atoms: C_3  and  O_6 
REMARK    3  A    between atoms: C_3  and  C_4 
REMARK    4  A    between atoms: C_7  and  O_6 
REMARK    5  A    between atoms: C_9  and  C_10 
REMARK    6  A    between atoms: N_15  and  C_14 
REMARK    7  A    between atoms: N_20  and  C_19 
REMARK       I    between atoms: C_22  and  N_20 
ROOT
ATOM      1  C   LIG d   1       1.768  85.823 113.261  0.00  0.00     0.161 C 
ATOM      2  C   LIG d   1       0.584  85.071 113.200  0.00  0.00     0.016 C 
ATOM      3  C   LIG d   1       0.417  83.949 112.356  0.00  0.00     0.038 C 
ATOM      4  C   LIG d   1       1.483  83.409 111.620  0.00  0.00     0.028 C 
ATOM      5  C   LIG d   1       2.554  84.435 111.265  0.00  0.00    -0.047 C 
ATOM      6  C   LIG d   1       2.979  85.183 112.549  0.00  0.00     0.091 C 
ENDROOT
BRANCH   1   7
ATOM      7  O   LIG d   1       2.092  86.115 114.635  0.00  0.00    -0.368 OA
BRANCH   7   8
ATOM      8  C   LIG d   1       1.502  85.240 115.628  0.00  0.00     0.119 C 
BRANCH   8   9
ATOM      9  C   LIG d   1       1.147  86.104 116.853  0.00  0.00     0.028 C 
ATOM     10  C   LIG d   1      -0.136  86.925 116.640  0.00  0.00     0.006 C 
ENDBRANCH   8   9
BRANCH   8  11
ATOM     11  C   LIG d   1       2.516  84.211 116.137  0.00  0.00     0.028 C 
ATOM     12  C   LIG d   1       2.215  82.786 115.648  0.00  0.00     0.006 C 
ENDBRANCH   8  11
ENDBRANCH   7   8
ENDBRANCH   1   7
BRANCH   6  13
ATOM     13  N   LIG d   1       3.963  86.262 112.277  0.00  0.00    -0.311 N 
ATOM     14  C   LIG d   1       5.110  86.394 112.942  0.00  0.00     0.210 C 
ATOM     15  C   LIG d   1       5.971  87.587 112.517  0.00  0.00     0.109 C 
ATOM     16  O   LIG d   1       5.510  85.616 113.821  0.00  0.00    -0.276 OA
ATOM     17  H   LIG d   1       3.732  86.919 111.557  0.00  0.00     0.149 HD
ENDBRANCH   6  13
BRANCH   5  18
ATOM     18  N   LIG d   1       3.667  83.712 110.622  0.00  0.00     0.381 N 
ATOM     19  H   LIG d   1       3.482  82.728 110.629  0.00  0.00    -0.090 HD
ATOM     20  H   LIG d   1       4.508  83.878 111.146  0.00  0.00    -0.090 HD
ATOM     21  H   LIG d   1       3.783  84.028 109.684  0.00  0.00    -0.090 HD
ENDBRANCH   5  18
BRANCH   3  22
ATOM     22  C   LIG d   1      -0.839  83.379 112.210  0.00  0.00     0.382 C 
ATOM     23  O   LIG d   1      -1.174  82.872 111.112  0.00  0.00    -0.241 OA
ATOM     24  O   LIG d   1      -1.657  83.406 113.148  0.00  0.00    -0.241 OA
ENDBRANCH   3  22
TORSDOF 7
ENDMDL
MODEL 4
REMARK VINA RESULT:      -5.1     12.515     14.923
REMARK  7 active torsions:
REMARK  status: ('A' for Active; 'I' for Inactive)
REMARK    1  A    between atoms: C_2  and  C_3 
REMARK    2  A    between atoms: C_3  and  O_6 
REMARK    3  A    between atoms: C_3  and  C_4 
REMARK    4  A    between atoms: C_7  and  O_6 
REMARK    5  A    between atoms: C_9  and  C_10 
REMARK    6  A    between atoms: N_15  and  C_14 
REMARK    7  A    between atoms: N_20  and  C_19 
REMARK       I    between atoms: C_22  and  N_20 
ROOT
ATOM      1  C   LIG d   1       2.228  86.203 113.955  0.00  0.00     0.161 C 
ATOM      2  C   LIG d   1       3.254  87.159 113.882  0.00  0.00     0.016 C 
ATOM      3  C   LIG d   1       3.762  87.664 112.663  0.00  0.00     0.038 C 
ATOM      4  C   LIG d   1       3.169  87.357 111.429  0.00  0.00     0.028 C 
ATOM      5  C   LIG d   1       2.458  86.008 111.417  0.00  0.00    -0.047 C 
ATOM      6  C   LIG d   1       1.494  85.939 112.623  0.00  0.00     0.091 C 
ENDROOT
BRANCH   1   7
ATOM      7  O   LIG d   1       1.286  86.574 114.981  0.00  0.00    -0.368 OA
BRANCH   7   8
ATOM      8  C   LIG d   1       1.151  85.648 116.087  0.00  0.00     0.119 C 
BRANCH   8   9
ATOM      9  C   LIG d   1       1.411  86.436 117.385  0.00  0.00     0.028 C 
ATOM     10  C   LIG d   1       0.126  86.675 118.195  0.00  0.00     0.006 C 
ENDBRANCH   8   9
BRANCH   8  11
ATOM     11  C   LIG d   1       2.235  84.567 116.045  0.00  0.00     0.028 C 
ATOM     12  C   LIG d   1       2.259  83.697 117.311  0.00  0.00     0.006 C 
ENDBRANCH   8  11
ENDBRANCH   7   8
ENDBRANCH   1   7
BRANCH   6  13
ATOM     13  N   LIG d   1       0.820  84.619 112.735  0.00  0.00    -0.311 N 
ATOM     14  C   LIG d   1      -0.481  84.478 112.983  0.00  0.00     0.210 C 
ATOM     15  C   LIG d   1      -0.968  83.029 113.079  0.00  0.00     0.109 C 
ATOM     16  O   LIG d   1      -1.284  85.416 113.101  0.00  0.00    -0.276 OA
ATOM     17  H   LIG d   1       1.391  83.804 112.622  0.00  0.00     0.149 HD
ENDBRANCH   6  13
BRANCH   5  18
ATOM     18  N   LIG d   1       1.771  85.877 110.119  0.00  0.00     0.381 N 
ATOM     19  H   LIG d   1       2.041  85.021 109.677  0.00  0.00    -0.090 HD
ATOM     20  H   LIG d   1       2.048  86.639 109.526  0.00  0.00    -0.090 HD
ATOM     21  H   LIG d   1       0.784  85.893 110.253  0.00  0.00    -0.090 HD
ENDBRANCH   5  18
BRANCH   3  22
ATOM     22  C   LIG d   1       4.900  88.456 112.668  0.00  0.00     0.382 C 
ATOM     23  O   LIG d   1       4.837  89.641 113.076  0.00  0.00    -0.241 OA
ATOM     24  O   LIG d   1       5.978  88.015 112.228  0.00  0.00    -0.241 OA
ENDBRANCH   3  22
TORSDOF 7
ENDMDL
MODEL 5
REMARK VINA RESULT:      -5.0     15.818     18.894
REMARK  7 active torsions:
REMARK  status: ('A' for Active; 'I' for Inactive)
REMARK    1  A    between atoms: C_2  and  C_3 
REMARK    2  A    between atoms: C_3  and  O_6 
REMARK    3  A    between atoms: C_3  and  C_4 
REMARK    4  A    between atoms: C_7  and  O_6 
REMARK    5  A    between atoms: C_9  and  C_10 
REMARK    6  A    between atoms: N_15  and  C_14 
REMARK    7  A    between atoms: N_20  and  C_19 
REMARK       I    between atoms: C_22  and  N_20 
ROOT
ATOM      1  C   LIG d   1      10.853  79.558 115.185  0.00  0.00     0.161 C 
ATOM      2  C   LIG d   1      10.591  78.248 114.752  0.00  0.00     0.016 C 
ATOM      3  C   LIG d   1       9.338  77.613 114.907  0.00  0.00     0.038 C 
ATOM      4  C   LIG d   1       8.210  78.304 115.375  0.00  0.00     0.028 C 
ATOM      5  C   LIG d   1       8.552  79.472 116.293  0.00  0.00    -0.047 C 
ATOM      6  C   LIG d   1       9.604  80.366 115.596  0.00  0.00     0.091 C 
ENDROOT
BRANCH   1   7
ATOM      7  O   LIG d   1      11.598  80.268 114.175  0.00  0.00    -0.368 OA
BRANCH   7   8
ATOM      8  C   LIG d   1      12.633  79.512 113.498  0.00  0.00     0.119 C 
BRANCH   8   9
ATOM      9  C   LIG d   1      13.964  79.802 114.218  0.00  0.00     0.028 C 
ATOM     10  C   LIG d   1      15.121  80.050 113.235  0.00  0.00     0.006 C 
ENDBRANCH   8   9
BRANCH   8  11
ATOM     11  C   LIG d   1      12.832  80.005 112.062  0.00  0.00     0.028 C 
ATOM     12  C   LIG d   1      11.622  80.785 111.525  0.00  0.00     0.006 C 
ENDBRANCH   8  11
ENDBRANCH   7   8
ENDBRANCH   1   7
BRANCH   6  13
ATOM     13  N   LIG d   1      10.058  81.487 116.461  0.00  0.00    -0.311 N 
ATOM     14  C   LIG d   1      10.215  82.734 116.021  0.00  0.00     0.210 C 
ATOM     15  C   LIG d   1      10.710  83.732 117.072  0.00  0.00     0.109 C 
ATOM     16  O   LIG d   1       9.961  83.115 114.869  0.00  0.00    -0.276 OA
ATOM     17  H   LIG d   1      10.256  81.272 117.418  0.00  0.00     0.149 HD
ENDBRANCH   6  13
BRANCH   5  18
ATOM     18  N   LIG d   1       7.297  80.186 116.594  0.00  0.00     0.381 N 
ATOM     19  H   LIG d   1       6.666  79.573 117.071  0.00  0.00    -0.090 HD
ATOM     20  H   LIG d   1       6.868  80.469 115.730  0.00  0.00    -0.090 HD
ATOM     21  H   LIG d   1       7.485  80.985 117.157  0.00  0.00    -0.090 HD
ENDBRANCH   5  18
BRANCH   3  22
ATOM     22  C   LIG d   1       9.214  76.260 114.631  0.00  0.00     0.382 C 
ATOM     23  O   LIG d   1      10.203  75.500 114.764  0.00  0.00    -0.241 OA
ATOM     24  O   LIG d   1       8.137  75.798 114.208  0.00  0.00    -0.241 OA
ENDBRANCH   3  22
TORSDOF 7
ENDMDL
MODEL 6
REMARK VINA RESULT:      -4.9     18.810     21.607
REMARK  7 active torsions:
REMARK  status: ('A' for Active; 'I' for Inactive)
REMARK    1  A    between atoms: C_2  and  C_3 
REMARK    2  A    between atoms: C_3  and  O_6 
REMARK    3  A    between atoms: C_3  and  C_4 
REMARK    4  A    between atoms: C_7  and  O_6 
REMARK    5  A    between atoms: C_9  and  C_10 
REMARK    6  A    between atoms: N_15  and  C_14 
REMARK    7  A    between atoms: N_20  and  C_19 
REMARK       I    between atoms: C_22  and  N_20 
ROOT
ATOM      1  C   LIG d   1     -25.671  85.508 113.288  0.00  0.00     0.161 C 
ATOM      2  C   LIG d   1     -24.603  86.410 113.435  0.00  0.00     0.016 C 
ATOM      3  C   LIG d   1     -23.249  86.009 113.498  0.00  0.00     0.038 C 
ATOM      4  C   LIG d   1     -22.857  84.683 113.265  0.00  0.00     0.028 C 
ATOM      5  C   LIG d   1     -23.934  83.662 113.614  0.00  0.00    -0.047 C 
ATOM      6  C   LIG d   1     -25.255  84.069 112.921  0.00  0.00     0.091 C 
ENDROOT
BRANCH   1   7
ATOM      7  O   LIG d   1     -26.613  86.019 112.325  0.00  0.00    -0.368 OA
BRANCH   7   8
ATOM      8  C   LIG d   1     -27.805  86.639 112.866  0.00  0.00     0.119 C 
BRANCH   8   9
ATOM      9  C   LIG d   1     -28.993  85.707 112.555  0.00  0.00     0.028 C 
ATOM     10  C   LIG d   1     -28.831  84.979 111.210  0.00  0.00     0.006 C 
ENDBRANCH   8   9
BRANCH   8  11
ATOM     11  C   LIG d   1     -28.124  87.954 112.149  0.00  0.00     0.028 C 
ATOM     12  C   LIG d   1     -26.872  88.641 111.580  0.00  0.00     0.006 C 
ENDBRANCH   8  11
ENDBRANCH   7   8
ENDBRANCH   1   7
BRANCH   6  13
ATOM     13  N   LIG d   1     -26.383  83.169 113.278  0.00  0.00    -0.311 N 
ATOM     14  C   LIG d   1     -26.681  82.062 112.600  0.00  0.00     0.210 C 
ATOM     15  C   LIG d   1     -27.896  81.290 113.125  0.00  0.00     0.109 C 
ATOM     16  O   LIG d   1     -26.035  81.629 111.634  0.00  0.00    -0.276 OA
ATOM     17  H   LIG d   1     -26.940  83.429 114.068  0.00  0.00     0.149 HD
ENDBRANCH   6  13
BRANCH   5  18
ATOM     18  N   LIG d   1     -23.445  82.335 113.194  0.00  0.00     0.381 N 
ATOM     19  H   LIG d   1     -22.657  82.442 112.587  0.00  0.00    -0.090 HD
ATOM     20  H   LIG d   1     -24.174  81.866 112.686  0.00  0.00    -0.090 HD
ATOM     21  H   LIG d   1     -23.188  81.798 113.993  0.00  0.00    -0.090 HD
ENDBRANCH   5  18
BRANCH   3  22
ATOM     22  C   LIG d   1     -22.273  86.935 113.836  0.00  0.00     0.382 C 
ATOM     23  O   LIG d   1     -22.509  87.802 114.712  0.00  0.00    -0.241 OA
ATOM     24  O   LIG d   1     -21.177  86.941 113.246  0.00  0.00    -0.241 OA
ENDBRANCH   3  22
TORSDOF 7
ENDMDL
MODEL 7
REMARK VINA RESULT:      -4.9     12.510     14.349
REMARK  7 active torsions:
REMARK  status: ('A' for Active; 'I' for Inactive)
REMARK    1  A    between atoms: C_2  and  C_3 
REMARK    2  A    between atoms: C_3  and  O_6 
REMARK    3  A    between atoms: C_3  and  C_4 
REMARK    4  A    between atoms: C_7  and  O_6 
REMARK    5  A    between atoms: C_9  and  C_10 
REMARK    6  A    between atoms: N_15  and  C_14 
REMARK    7  A    between atoms: N_20  and  C_19 
REMARK       I    between atoms: C_22  and  N_20 
ROOT
ATOM      1  C   LIG d   1       2.041  84.721 112.731  0.00  0.00     0.161 C 
ATOM      2  C   LIG d   1       0.859  84.786 111.974  0.00  0.00     0.016 C 
ATOM      3  C   LIG d   1       0.482  85.918 111.215  0.00  0.00     0.038 C 
ATOM      4  C   LIG d   1       1.341  87.013 111.041  0.00  0.00     0.028 C 
ATOM      5  C   LIG d   1       2.321  87.203 112.194  0.00  0.00    -0.047 C 
ATOM      6  C   LIG d   1       3.043  85.864 112.465  0.00  0.00     0.091 C 
ENDROOT
BRANCH   1   7
ATOM      7  O   LIG d   1       2.676  83.442 112.538  0.00  0.00    -0.368 OA
BRANCH   7   8
ATOM      8  C   LIG d   1       2.282  82.707 111.353  0.00  0.00     0.119 C 
BRANCH   8   9
ATOM      9  C   LIG d   1       1.828  81.306 111.807  0.00  0.00     0.028 C 
ATOM     10  C   LIG d   1       1.211  81.317 113.215  0.00  0.00     0.006 C 
ENDBRANCH   8   9
BRANCH   8  11
ATOM     11  C   LIG d   1       3.476  82.466 110.425  0.00  0.00     0.028 C 
ATOM     12  C   LIG d   1       3.768  80.973 110.206  0.00  0.00     0.006 C 
ENDBRANCH   8  11
ENDBRANCH   7   8
ENDBRANCH   1   7
BRANCH   6  13
ATOM     13  N   LIG d   1       3.959  85.940 113.632  0.00  0.00    -0.311 N 
ATOM     14  C   LIG d   1       5.222  86.356 113.548  0.00  0.00     0.210 C 
ATOM     15  C   LIG d   1       5.998  86.338 114.868  0.00  0.00     0.109 C 
ATOM     16  O   LIG d   1       5.762  86.769 112.511  0.00  0.00    -0.276 OA
ATOM     17  H   LIG d   1       3.593  85.653 114.519  0.00  0.00     0.149 HD
ENDBRANCH   6  13
BRANCH   5  18
ATOM     18  N   LIG d   1       3.243  88.292 111.819  0.00  0.00     0.381 N 
ATOM     19  H   LIG d   1       3.507  88.197 110.858  0.00  0.00    -0.090 HD
ATOM     20  H   LIG d   1       4.073  88.223 112.382  0.00  0.00    -0.090 HD
ATOM     21  H   LIG d   1       2.806  89.175 111.965  0.00  0.00    -0.090 HD
ENDBRANCH   5  18
BRANCH   3  22
ATOM     22  C   LIG d   1      -0.784  85.977 110.654  0.00  0.00     0.382 C 
ATOM     23  O   LIG d   1      -1.477  87.016 110.779  0.00  0.00    -0.241 OA
ATOM     24  O   LIG d   1      -1.260  84.990 110.062  0.00  0.00    -0.241 OA
ENDBRANCH   3  22
TORSDOF 7
ENDMDL
MODEL 8
REMARK VINA RESULT:      -4.9     13.639     15.902
REMARK  7 active torsions:
REMARK  status: ('A' for Active; 'I' for Inactive)
REMARK    1  A    between atoms: C_2  and  C_3 
REMARK    2  A    between atoms: C_3  and  O_6 
REMARK    3  A    between atoms: C_3  and  C_4 
REMARK    4  A    between atoms: C_7  and  O_6 
REMARK    5  A    between atoms: C_9  and  C_10 
REMARK    6  A    between atoms: N_15  and  C_14 
REMARK    7  A    between atoms: N_20  and  C_19 
REMARK       I    between atoms: C_22  and  N_20 
ROOT
ATOM      1  C   LIG d   1       4.052  85.831 114.157  0.00  0.00     0.161 C 
ATOM      2  C   LIG d   1       3.439  85.545 112.926  0.00  0.00     0.016 C 
ATOM      3  C   LIG d   1       3.845  86.124 111.701  0.00  0.00     0.038 C 
ATOM      4  C   LIG d   1       4.998  86.917 111.602  0.00  0.00     0.028 C 
ATOM      5  C   LIG d   1       5.350  87.637 112.899  0.00  0.00    -0.047 C 
ATOM      6  C   LIG d   1       5.381  86.608 114.052  0.00  0.00     0.091 C 
ENDROOT
BRANCH   1   7
ATOM      7  O   LIG d   1       4.242  84.613 114.903  0.00  0.00    -0.368 OA
BRANCH   7   8
ATOM      8  C   LIG d   1       3.234  84.313 115.900  0.00  0.00     0.119 C 
BRANCH   8   9
ATOM      9  C   LIG d   1       3.802  84.729 117.271  0.00  0.00     0.028 C 
ATOM     10  C   LIG d   1       5.286  84.358 117.429  0.00  0.00     0.006 C 
ENDBRANCH   8   9
BRANCH   8  11
ATOM     11  C   LIG d   1       2.986  82.805 116.005  0.00  0.00     0.028 C 
ATOM     12  C   LIG d   1       2.115  82.264 114.860  0.00  0.00     0.006 C 
ENDBRANCH   8  11
ENDBRANCH   7   8
ENDBRANCH   1   7
BRANCH   6  13
ATOM     13  N   LIG d   1       5.636  87.243 115.372  0.00  0.00    -0.311 N 
ATOM     14  C   LIG d   1       4.811  88.125 115.933  0.00  0.00     0.210 C 
ATOM     15  C   LIG d   1       5.273  88.672 117.287  0.00  0.00     0.109 C 
ATOM     16  O   LIG d   1       3.724  88.481 115.453  0.00  0.00    -0.276 OA
ATOM     17  H   LIG d   1       6.480  86.987 115.845  0.00  0.00     0.149 HD
ENDBRANCH   6  13
BRANCH   5  18
ATOM     18  N   LIG d   1       6.644  88.315 112.695  0.00  0.00     0.381 N 
ATOM     19  H   LIG d   1       6.563  89.282 112.942  0.00  0.00    -0.090 HD
ATOM     20  H   LIG d   1       6.891  88.258 111.722  0.00  0.00    -0.090 HD
ATOM     21  H   LIG d   1       7.348  87.881 113.250  0.00  0.00    -0.090 HD
ENDBRANCH   5  18
BRANCH   3  22
ATOM     22  C   LIG d   1       3.071  85.942 110.565  0.00  0.00     0.382 C 
ATOM     23  O   LIG d   1       2.447  86.911 110.070  0.00  0.00    -0.241 OA
ATOM     24  O   LIG d   1       2.954  84.812 110.055  0.00  0.00    -0.241 OA
ENDBRANCH   3  22
TORSDOF 7
ENDMDL
MODEL 9
REMARK VINA RESULT:      -4.8     17.119     19.505
REMARK  7 active torsions:
REMARK  status: ('A' for Active; 'I' for Inactive)
REMARK    1  A    between atoms: C_2  and  C_3 
REMARK    2  A    between atoms: C_3  and  O_6 
REMARK    3  A    between atoms: C_3  and  C_4 
REMARK    4  A    between atoms: C_7  and  O_6 
REMARK    5  A    between atoms: C_9  and  C_10 
REMARK    6  A    between atoms: N_15  and  C_14 
REMARK    7  A    between atoms: N_20  and  C_19 
REMARK       I    between atoms: C_22  and  N_20 
ROOT
ATOM      1  C   LIG d   1      12.608  78.760 115.141  0.00  0.00     0.161 C 
ATOM      2  C   LIG d   1      11.551  79.581 115.567  0.00  0.00     0.016 C 
ATOM      3  C   LIG d   1      10.880  80.490 114.716  0.00  0.00     0.038 C 
ATOM      4  C   LIG d   1      11.123  80.530 113.335  0.00  0.00     0.028 C 
ATOM      5  C   LIG d   1      12.529  80.079 112.954  0.00  0.00    -0.047 C 
ATOM      6  C   LIG d   1      12.812  78.709 113.613  0.00  0.00     0.091 C 
ENDROOT
BRANCH   1   7
ATOM      7  O   LIG d   1      12.435  77.429 115.668  0.00  0.00    -0.368 OA
BRANCH   7   8
ATOM      8  C   LIG d   1      11.612  76.534 114.880  0.00  0.00     0.119 C 
BRANCH   8   9
ATOM      9  C   LIG d   1      10.299  76.309 115.655  0.00  0.00     0.028 C 
ATOM     10  C   LIG d   1       9.080  76.899 114.927  0.00  0.00     0.006 C 
ENDBRANCH   8   9
BRANCH   8  11
ATOM     11  C   LIG d   1      12.254  75.148 114.759  0.00  0.00     0.028 C 
ATOM     12  C   LIG d   1      11.417  74.044 115.424  0.00  0.00     0.006 C 
ENDBRANCH   8  11
ENDBRANCH   7   8
ENDBRANCH   1   7
BRANCH   6  13
ATOM     13  N   LIG d   1      14.198  78.234 113.360  0.00  0.00    -0.311 N 
ATOM     14  C   LIG d   1      14.565  77.607 112.244  0.00  0.00     0.210 C 
ATOM     15  C   LIG d   1      16.037  77.184 112.195  0.00  0.00     0.109 C 
ATOM     16  O   LIG d   1      13.820  77.388 111.277  0.00  0.00    -0.276 OA
ATOM     17  H   LIG d   1      14.874  78.398 114.079  0.00  0.00     0.149 HD
ENDBRANCH   6  13
BRANCH   5  18
ATOM     18  N   LIG d   1      12.600  80.038 111.481  0.00  0.00     0.381 N 
ATOM     19  H   LIG d   1      12.787  80.954 111.126  0.00  0.00    -0.090 HD
ATOM     20  H   LIG d   1      11.712  79.735 111.121  0.00  0.00    -0.090 HD
ATOM     21  H   LIG d   1      13.316  79.409 111.192  0.00  0.00    -0.090 HD
ENDBRANCH   5  18
BRANCH   3  22
ATOM     22  C   LIG d   1       9.982  81.400 115.254  0.00  0.00     0.382 C 
ATOM     23  O   LIG d   1       9.090  81.008 116.044  0.00  0.00    -0.241 OA
ATOM     24  O   LIG d   1      10.025  82.600 114.923  0.00  0.00    -0.241 OA
ENDBRANCH   3  22
TORSDOF 7
ENDMDL
