MODEL 1
REMARK VINA RESULT:      -6.2      0.000      0.000
REMARK  7 active torsions:
REMARK  status: ('A' for Active; 'I' for Inactive)
REMARK    1  A    between atoms: C_2  and  C_3 
REMARK    2  A    between atoms: C_3  and  O_6 
REMARK    3  A    between atoms: C_3  and  C_4 
REMARK    4  A    between atoms: C_7  and  O_6 
REMARK    5  A    between atoms: C_9  and  C_10 
REMARK    6  A    between atoms: N_15  and  C_14 
REMARK    7  A    between atoms: N_20  and  C_19 
REMARK       I    between atoms: C_22  and  N_20 
ROOT
ATOM      1  C   LIG d   1      -3.128  77.262 116.139  0.00  0.00     0.161 C 
ATOM      2  C   LIG d   1      -3.325  78.202 115.114  0.00  0.00     0.016 C 
ATOM      3  C   LIG d   1      -2.398  78.420 114.069  0.00  0.00     0.038 C 
ATOM      4  C   LIG d   1      -1.273  77.601 113.893  0.00  0.00     0.028 C 
ATOM      5  C   LIG d   1      -0.774  76.971 115.189  0.00  0.00    -0.047 C 
ATOM      6  C   LIG d   1      -1.960  76.282 115.901  0.00  0.00     0.091 C 
ENDROOT
BRANCH   1   7
ATOM      7  O   LIG d   1      -4.350  76.537 116.378  0.00  0.00    -0.368 OA
BRANCH   7   8
ATOM      8  C   LIG d   1      -5.324  76.557 115.305  0.00  0.00     0.119 C 
BRANCH   8   9
ATOM      9  C   LIG d   1      -6.722  76.601 115.950  0.00  0.00     0.028 C 
ATOM     10  C   LIG d   1      -6.711  77.279 117.331  0.00  0.00     0.006 C 
ENDBRANCH   8   9
BRANCH   8  11
ATOM     11  C   LIG d   1      -5.290  75.256 114.497  0.00  0.00     0.028 C 
ATOM     12  C   LIG d   1      -5.690  74.028 115.329  0.00  0.00     0.006 C 
ENDBRANCH   8  11
ENDBRANCH   7   8
ENDBRANCH   1   7
BRANCH   6  13
ATOM     13  N   LIG d   1      -1.576  75.712 117.219  0.00  0.00    -0.311 N 
ATOM     14  C   LIG d   1      -1.102  74.477 117.374  0.00  0.00     0.210 C 
ATOM     15  C   LIG d   1      -0.787  74.082 118.820  0.00  0.00     0.109 C 
ATOM     16  O   LIG d   1      -0.882  73.683 116.447  0.00  0.00    -0.276 OA
ATOM     17  H   LIG d   1      -1.692  76.300 118.021  0.00  0.00     0.149 HD
ENDBRANCH   6  13
BRANCH   5  18
ATOM     18  N   LIG d   1       0.313  76.037 114.840  0.00  0.00     0.381 N 
ATOM     19  H   LIG d   1       1.051  76.532 114.380  0.00  0.00    -0.090 HD
ATOM     20  H   LIG d   1      -0.044  75.344 114.206  0.00  0.00    -0.090 HD
ATOM     21  H   LIG d   1       0.661  75.596 115.663  0.00  0.00    -0.090 HD
ENDBRANCH   5  18
BRANCH   3  22
ATOM     22  C   LIG d   1      -2.571  79.494 113.209  0.00  0.00     0.382 C 
ATOM     23  O   LIG d   1      -2.126  79.438 112.038  0.00  0.00    -0.241 OA
ATOM     24  O   LIG d   1      -3.129  80.536 113.603  0.00  0.00    -0.241 OA
ENDBRANCH   3  22
TORSDOF 7
ENDMDL
MODEL 2
REMARK VINA RESULT:      -6.1      3.538      5.475
REMARK  7 active torsions:
REMARK  status: ('A' for Active; 'I' for Inactive)
REMARK    1  A    between atoms: C_2  and  C_3 
REMARK    2  A    between atoms: C_3  and  O_6 
REMARK    3  A    between atoms: C_3  and  C_4 
REMARK    4  A    between atoms: C_7  and  O_6 
REMARK    5  A    between atoms: C_9  and  C_10 
REMARK    6  A    between atoms: N_15  and  C_14 
REMARK    7  A    between atoms: N_20  and  C_19 
REMARK       I    between atoms: C_22  and  N_20 
ROOT
ATOM      1  C   LIG d   1      -7.142  76.636 116.872  0.00  0.00     0.161 C 
ATOM      2  C   LIG d   1      -6.212  76.200 115.915  0.00  0.00     0.016 C 
ATOM      3  C   LIG d   1      -4.990  76.863 115.659  0.00  0.00     0.038 C 
ATOM      4  C   LIG d   1      -4.544  77.929 116.454  0.00  0.00     0.028 C 
ATOM      5  C   LIG d   1      -5.677  78.717 117.102  0.00  0.00    -0.047 C 
ATOM      6  C   LIG d   1      -6.623  77.732 117.826  0.00  0.00     0.091 C 
ENDROOT
BRANCH   1   7
ATOM      7  O   LIG d   1      -7.634  75.509 117.624  0.00  0.00    -0.368 OA
BRANCH   7   8
ATOM      8  C   LIG d   1      -8.241  74.444 116.852  0.00  0.00     0.119 C 
BRANCH   8   9
ATOM      9  C   LIG d   1      -9.736  74.396 117.224  0.00  0.00     0.028 C 
ATOM     10  C   LIG d   1     -10.218  75.698 117.885  0.00  0.00     0.006 C 
ENDBRANCH   8   9
BRANCH   8  11
ATOM     11  C   LIG d   1      -7.679  73.076 117.252  0.00  0.00     0.028 C 
ATOM     12  C   LIG d   1      -6.990  72.351 116.086  0.00  0.00     0.006 C 
ENDBRANCH   8  11
ENDBRANCH   7   8
ENDBRANCH   1   7
BRANCH   6  13
ATOM     13  N   LIG d   1      -7.805  78.412 118.417  0.00  0.00    -0.311 N 
ATOM     14  C   LIG d   1      -8.120  78.345 119.709  0.00  0.00     0.210 C 
ATOM     15  C   LIG d   1      -9.391  79.103 120.105  0.00  0.00     0.109 C 
ATOM     16  O   LIG d   1      -7.449  77.757 120.571  0.00  0.00    -0.276 OA
ATOM     17  H   LIG d   1      -8.387  78.937 117.794  0.00  0.00     0.149 HD
ENDBRANCH   6  13
BRANCH   5  18
ATOM     18  N   LIG d   1      -5.069  79.708 118.010  0.00  0.00     0.381 N 
ATOM     19  H   LIG d   1      -4.219  80.055 117.612  0.00  0.00    -0.090 HD
ATOM     20  H   LIG d   1      -4.849  79.259 118.881  0.00  0.00    -0.090 HD
ATOM     21  H   LIG d   1      -5.702  80.461 118.166  0.00  0.00    -0.090 HD
ENDBRANCH   5  18
BRANCH   3  22
ATOM     22  C   LIG d   1      -4.218  76.485 114.570  0.00  0.00     0.382 C 
ATOM     23  O   LIG d   1      -4.546  76.845 113.414  0.00  0.00    -0.241 OA
ATOM     24  O   LIG d   1      -3.222  75.753 114.726  0.00  0.00    -0.241 OA
ENDBRANCH   3  22
TORSDOF 7
ENDMDL
MODEL 3
REMARK VINA RESULT:      -5.5     15.057     17.135
REMARK  7 active torsions:
REMARK  status: ('A' for Active; 'I' for Inactive)
REMARK    1  A    between atoms: C_2  and  C_3 
REMARK    2  A    between atoms: C_3  and  O_6 
REMARK    3  A    between atoms: C_3  and  C_4 
REMARK    4  A    between atoms: C_7  and  O_6 
REMARK    5  A    between atoms: C_9  and  C_10 
REMARK    6  A    between atoms: N_15  and  C_14 
REMARK    7  A    between atoms: N_20  and  C_19 
REMARK       I    between atoms: C_22  and  N_20 
ROOT
ATOM      1  C   LIG d   1      -6.124  93.231 117.494  0.00  0.00     0.161 C 
ATOM      2  C   LIG d   1      -6.957  92.239 116.949  0.00  0.00     0.016 C 
ATOM      3  C   LIG d   1      -6.488  90.972 116.532  0.00  0.00     0.038 C 
ATOM      4  C   LIG d   1      -5.171  90.553 116.772  0.00  0.00     0.028 C 
ATOM      5  C   LIG d   1      -4.175  91.705 116.859  0.00  0.00    -0.047 C 
ATOM      6  C   LIG d   1      -4.705  92.751 117.866  0.00  0.00     0.091 C 
ENDROOT
BRANCH   1   7
ATOM      7  O   LIG d   1      -6.764  93.834 118.636  0.00  0.00    -0.368 OA
BRANCH   7   8
ATOM      8  C   LIG d   1      -7.116  95.233 118.504  0.00  0.00     0.119 C 
BRANCH   8   9
ATOM      9  C   LIG d   1      -6.815  95.915 119.853  0.00  0.00     0.028 C 
ATOM     10  C   LIG d   1      -5.903  95.062 120.751  0.00  0.00     0.006 C 
ENDBRANCH   8   9
BRANCH   8  11
ATOM     11  C   LIG d   1      -8.621  95.412 118.286  0.00  0.00     0.028 C 
ATOM     12  C   LIG d   1      -9.467  94.635 119.307  0.00  0.00     0.006 C 
ENDBRANCH   8  11
ENDBRANCH   7   8
ENDBRANCH   1   7
BRANCH   6  13
ATOM     13  N   LIG d   1      -3.832  93.951 117.949  0.00  0.00    -0.311 N 
ATOM     14  C   LIG d   1      -2.869  94.095 118.857  0.00  0.00     0.210 C 
ATOM     15  C   LIG d   1      -2.099  95.417 118.780  0.00  0.00     0.109 C 
ATOM     16  O   LIG d   1      -2.557  93.239 119.699  0.00  0.00    -0.276 OA
ATOM     17  H   LIG d   1      -3.996  94.681 117.284  0.00  0.00     0.149 HD
ENDBRANCH   6  13
BRANCH   5  18
ATOM     18  N   LIG d   1      -2.870  91.137 117.249  0.00  0.00     0.381 N 
ATOM     19  H   LIG d   1      -2.809  91.082 118.246  0.00  0.00    -0.090 HD
ATOM     20  H   LIG d   1      -2.141  91.745 116.921  0.00  0.00    -0.090 HD
ATOM     21  H   LIG d   1      -2.761  90.230 116.851  0.00  0.00    -0.090 HD
ENDBRANCH   5  18
BRANCH   3  22
ATOM     22  C   LIG d   1      -7.331  90.125 115.830  0.00  0.00     0.382 C 
ATOM     23  O   LIG d   1      -8.149  89.401 116.447  0.00  0.00    -0.241 OA
ATOM     24  O   LIG d   1      -7.254  90.042 114.589  0.00  0.00    -0.241 OA
ENDBRANCH   3  22
TORSDOF 7
ENDMDL
MODEL 4
REMARK VINA RESULT:      -5.2      1.757      2.406
REMARK  7 active torsions:
REMARK  status: ('A' for Active; 'I' for Inactive)
REMARK    1  A    between atoms: C_2  and  C_3 
REMARK    2  A    between atoms: C_3  and  O_6 
REMARK    3  A    between atoms: C_3  and  C_4 
REMARK    4  A    between atoms: C_7  and  O_6 
REMARK    5  A    between atoms: C_9  and  C_10 
REMARK    6  A    between atoms: N_15  and  C_14 
REMARK    7  A    between atoms: N_20  and  C_19 
REMARK       I    between atoms: C_22  and  N_20 
ROOT
ATOM      1  C   LIG d   1      -2.899  77.912 116.296  0.00  0.00     0.161 C 
ATOM      2  C   LIG d   1      -3.078  78.827 115.246  0.00  0.00     0.016 C 
ATOM      3  C   LIG d   1      -2.296  78.822 114.068  0.00  0.00     0.038 C 
ATOM      4  C   LIG d   1      -1.375  77.801 113.793  0.00  0.00     0.028 C 
ATOM      5  C   LIG d   1      -0.805  77.146 115.047  0.00  0.00    -0.047 C 
ATOM      6  C   LIG d   1      -1.974  76.722 115.967  0.00  0.00     0.091 C 
ENDROOT
BRANCH   1   7
ATOM      7  O   LIG d   1      -4.180  77.438 116.756  0.00  0.00    -0.368 OA
BRANCH   7   8
ATOM      8  C   LIG d   1      -4.672  78.024 117.987  0.00  0.00     0.119 C 
BRANCH   8   9
ATOM      9  C   LIG d   1      -5.657  79.145 117.605  0.00  0.00     0.028 C 
ATOM     10  C   LIG d   1      -7.107  78.811 117.994  0.00  0.00     0.006 C 
ENDBRANCH   8   9
BRANCH   8  11
ATOM     11  C   LIG d   1      -3.548  78.717 118.762  0.00  0.00     0.028 C 
ATOM     12  C   LIG d   1      -3.884  80.172 119.125  0.00  0.00     0.006 C 
ENDBRANCH   8  11
ENDBRANCH   7   8
ENDBRANCH   1   7
BRANCH   6  13
ATOM     13  N   LIG d   1      -1.502  76.149 117.254  0.00  0.00    -0.311 N 
ATOM     14  C   LIG d   1      -1.270  74.850 117.437  0.00  0.00     0.210 C 
ATOM     15  C   LIG d   1      -0.808  74.468 118.847  0.00  0.00     0.109 C 
ATOM     16  O   LIG d   1      -1.371  73.983 116.556  0.00  0.00    -0.276 OA
ATOM     17  H   LIG d   1      -1.364  76.786 118.014  0.00  0.00     0.149 HD
ENDBRANCH   6  13
BRANCH   5  18
ATOM     18  N   LIG d   1       0.032  76.010 114.616  0.00  0.00     0.381 N 
ATOM     19  H   LIG d   1      -0.237  75.721 113.697  0.00  0.00    -0.090 HD
ATOM     20  H   LIG d   1      -0.115  75.241 115.245  0.00  0.00    -0.090 HD
ATOM     21  H   LIG d   1       0.993  76.274 114.621  0.00  0.00    -0.090 HD
ENDBRANCH   5  18
BRANCH   3  22
ATOM     22  C   LIG d   1      -2.404  79.871 113.167  0.00  0.00     0.382 C 
ATOM     23  O   LIG d   1      -1.687  79.890 112.138  0.00  0.00    -0.241 OA
ATOM     24  O   LIG d   1      -3.177  80.821 113.393  0.00  0.00    -0.241 OA
ENDBRANCH   3  22
TORSDOF 7
ENDMDL
MODEL 5
REMARK VINA RESULT:      -5.1     14.770     17.221
REMARK  7 active torsions:
REMARK  status: ('A' for Active; 'I' for Inactive)
REMARK    1  A    between atoms: C_2  and  C_3 
REMARK    2  A    between atoms: C_3  and  O_6 
REMARK    3  A    between atoms: C_3  and  C_4 
REMARK    4  A    between atoms: C_7  and  O_6 
REMARK    5  A    between atoms: C_9  and  C_10 
REMARK    6  A    between atoms: N_15  and  C_14 
REMARK    7  A    between atoms: N_20  and  C_19 
REMARK       I    between atoms: C_22  and  N_20 
ROOT
ATOM      1  C   LIG d   1      -5.185  92.010 118.718  0.00  0.00     0.161 C 
ATOM      2  C   LIG d   1      -5.390  91.080 117.685  0.00  0.00     0.016 C 
ATOM      3  C   LIG d   1      -6.363  91.242 116.673  0.00  0.00     0.038 C 
ATOM      4  C   LIG d   1      -7.101  92.428 116.538  0.00  0.00     0.028 C 
ATOM      5  C   LIG d   1      -7.285  93.180 117.851  0.00  0.00    -0.047 C 
ATOM      6  C   LIG d   1      -5.904  93.361 118.523  0.00  0.00     0.091 C 
ENDROOT
BRANCH   1   7
ATOM      7  O   LIG d   1      -3.772  92.218 118.915  0.00  0.00    -0.368 OA
BRANCH   7   8
ATOM      8  C   LIG d   1      -2.956  92.225 117.718  0.00  0.00     0.119 C 
BRANCH   8   9
ATOM      9  C   LIG d   1      -1.790  91.244 117.947  0.00  0.00     0.028 C 
ATOM     10  C   LIG d   1      -0.509  91.673 117.213  0.00  0.00     0.006 C 
ENDBRANCH   8   9
BRANCH   8  11
ATOM     11  C   LIG d   1      -2.299  93.592 117.500  0.00  0.00     0.028 C 
ATOM     12  C   LIG d   1      -2.409  94.509 118.729  0.00  0.00     0.006 C 
ENDBRANCH   8  11
ENDBRANCH   7   8
ENDBRANCH   1   7
BRANCH   6  13
ATOM     13  N   LIG d   1      -6.003  94.014 119.854  0.00  0.00    -0.311 N 
ATOM     14  C   LIG d   1      -5.863  95.326 120.039  0.00  0.00     0.210 C 
ATOM     15  C   LIG d   1      -5.981  95.790 121.495  0.00  0.00     0.109 C 
ATOM     16  O   LIG d   1      -5.684  96.153 119.133  0.00  0.00    -0.276 OA
ATOM     17  H   LIG d   1      -6.177  93.421 120.641  0.00  0.00     0.149 HD
ENDBRANCH   6  13
BRANCH   5  18
ATOM     18  N   LIG d   1      -7.949  94.460 117.542  0.00  0.00     0.381 N 
ATOM     19  H   LIG d   1      -8.671  94.313 116.865  0.00  0.00    -0.090 HD
ATOM     20  H   LIG d   1      -7.273  95.092 117.150  0.00  0.00    -0.090 HD
ATOM     21  H   LIG d   1      -8.338  94.852 118.372  0.00  0.00    -0.090 HD
ENDBRANCH   5  18
BRANCH   3  22
ATOM     22  C   LIG d   1      -6.635  90.195 115.806  0.00  0.00     0.382 C 
ATOM     23  O   LIG d   1      -5.700  89.472 115.383  0.00  0.00    -0.241 OA
ATOM     24  O   LIG d   1      -7.797  89.991 115.406  0.00  0.00    -0.241 OA
ENDBRANCH   3  22
TORSDOF 7
ENDMDL
MODEL 6
REMARK VINA RESULT:      -4.7     14.595     16.750
REMARK  7 active torsions:
REMARK  status: ('A' for Active; 'I' for Inactive)
REMARK    1  A    between atoms: C_2  and  C_3 
REMARK    2  A    between atoms: C_3  and  O_6 
REMARK    3  A    between atoms: C_3  and  C_4 
REMARK    4  A    between atoms: C_7  and  O_6 
REMARK    5  A    between atoms: C_9  and  C_10 
REMARK    6  A    between atoms: N_15  and  C_14 
REMARK    7  A    between atoms: N_20  and  C_19 
REMARK       I    between atoms: C_22  and  N_20 
ROOT
ATOM      1  C   LIG d   1     -13.912  66.483 118.881  0.00  0.00     0.161 C 
ATOM      2  C   LIG d   1     -15.064  66.406 118.082  0.00  0.00     0.016 C 
ATOM      3  C   LIG d   1     -15.858  65.241 117.972  0.00  0.00     0.038 C 
ATOM      4  C   LIG d   1     -15.636  64.114 118.777  0.00  0.00     0.028 C 
ATOM      5  C   LIG d   1     -14.186  63.967 119.227  0.00  0.00    -0.047 C 
ATOM      6  C   LIG d   1     -13.717  65.300 119.852  0.00  0.00     0.091 C 
ENDROOT
BRANCH   1   7
ATOM      7  O   LIG d   1     -13.901  67.731 119.603  0.00  0.00    -0.368 OA
BRANCH   7   8
ATOM      8  C   LIG d   1     -14.708  67.779 120.805  0.00  0.00     0.119 C 
BRANCH   8   9
ATOM      9  C   LIG d   1     -15.796  68.849 120.589  0.00  0.00     0.028 C 
ATOM     10  C   LIG d   1     -17.203  68.241 120.475  0.00  0.00     0.006 C 
ENDBRANCH   8   9
BRANCH   8  11
ATOM     11  C   LIG d   1     -13.891  68.267 122.005  0.00  0.00     0.028 C 
ATOM     12  C   LIG d   1     -12.456  68.665 121.627  0.00  0.00     0.006 C 
ENDBRANCH   8  11
ENDBRANCH   7   8
ENDBRANCH   1   7
BRANCH   6  13
ATOM     13  N   LIG d   1     -12.283  65.270 120.243  0.00  0.00    -0.311 N 
ATOM     14  C   LIG d   1     -11.863  64.942 121.463  0.00  0.00     0.210 C 
ATOM     15  C   LIG d   1     -10.344  64.993 121.659  0.00  0.00     0.109 C 
ATOM     16  O   LIG d   1     -12.601  64.581 122.392  0.00  0.00    -0.276 OA
ATOM     17  H   LIG d   1     -11.614  65.518 119.540  0.00  0.00     0.149 HD
ENDBRANCH   6  13
BRANCH   5  18
ATOM     18  N   LIG d   1     -14.125  62.833 120.169  0.00  0.00     0.381 N 
ATOM     19  H   LIG d   1     -14.428  63.129 121.075  0.00  0.00    -0.090 HD
ATOM     20  H   LIG d   1     -13.172  62.522 120.242  0.00  0.00    -0.090 HD
ATOM     21  H   LIG d   1     -14.702  62.089 119.845  0.00  0.00    -0.090 HD
ENDBRANCH   5  18
BRANCH   3  22
ATOM     22  C   LIG d   1     -16.863  65.182 117.019  0.00  0.00     0.382 C 
ATOM     23  O   LIG d   1     -17.268  64.069 116.602  0.00  0.00    -0.241 OA
ATOM     24  O   LIG d   1     -17.340  66.227 116.538  0.00  0.00    -0.241 OA
ENDBRANCH   3  22
TORSDOF 7
ENDMDL
MODEL 7
REMARK VINA RESULT:      -4.6     15.101     17.236
REMARK  7 active torsions:
REMARK  status: ('A' for Active; 'I' for Inactive)
REMARK    1  A    between atoms: C_2  and  C_3 
REMARK    2  A    between atoms: C_3  and  O_6 
REMARK    3  A    between atoms: C_3  and  C_4 
REMARK    4  A    between atoms: C_7  and  O_6 
REMARK    5  A    between atoms: C_9  and  C_10 
REMARK    6  A    between atoms: N_15  and  C_14 
REMARK    7  A    between atoms: N_20  and  C_19 
REMARK       I    between atoms: C_22  and  N_20 
ROOT
ATOM      1  C   LIG d   1      -6.483  92.408 118.500  0.00  0.00     0.161 C 
ATOM      2  C   LIG d   1      -5.863  92.821 119.691  0.00  0.00     0.016 C 
ATOM      3  C   LIG d   1      -4.572  92.400 120.082  0.00  0.00     0.038 C 
ATOM      4  C   LIG d   1      -3.746  91.651 119.230  0.00  0.00     0.028 C 
ATOM      5  C   LIG d   1      -4.521  90.793 118.236  0.00  0.00    -0.047 C 
ATOM      6  C   LIG d   1      -5.554  91.681 117.506  0.00  0.00     0.091 C 
ENDROOT
BRANCH   1   7
ATOM      7  O   LIG d   1      -7.116  93.535 117.862  0.00  0.00    -0.368 OA
BRANCH   7   8
ATOM      8  C   LIG d   1      -7.643  94.555 118.747  0.00  0.00     0.119 C 
BRANCH   8   9
ATOM      9  C   LIG d   1      -9.177  94.538 118.611  0.00  0.00     0.028 C 
ATOM     10  C   LIG d   1      -9.888  94.583 119.974  0.00  0.00     0.006 C 
ENDBRANCH   8   9
BRANCH   8  11
ATOM     11  C   LIG d   1      -7.212  95.956 118.301  0.00  0.00     0.028 C 
ATOM     12  C   LIG d   1      -6.706  96.822 119.465  0.00  0.00     0.006 C 
ENDBRANCH   8  11
ENDBRANCH   7   8
ENDBRANCH   1   7
BRANCH   6  13
ATOM     13  N   LIG d   1      -6.413  90.903 116.575  0.00  0.00    -0.311 N 
ATOM     14  C   LIG d   1      -6.648  91.268 115.316  0.00  0.00     0.210 C 
ATOM     15  C   LIG d   1      -7.577  90.334 114.534  0.00  0.00     0.109 C 
ATOM     16  O   LIG d   1      -6.148  92.259 114.762  0.00  0.00    -0.276 OA
ATOM     17  H   LIG d   1      -6.833  90.067 116.933  0.00  0.00     0.149 HD
ENDBRANCH   6  13
BRANCH   5  18
ATOM     18  N   LIG d   1      -3.541  90.175 117.323  0.00  0.00     0.381 N 
ATOM     19  H   LIG d   1      -3.140  89.366 117.753  0.00  0.00    -0.090 HD
ATOM     20  H   LIG d   1      -2.805  90.834 117.141  0.00  0.00    -0.090 HD
ATOM     21  H   LIG d   1      -3.986  89.919 116.469  0.00  0.00    -0.090 HD
ENDBRANCH   5  18
BRANCH   3  22
ATOM     22  C   LIG d   1      -4.109  92.695 121.356  0.00  0.00     0.382 C 
ATOM     23  O   LIG d   1      -4.228  91.851 122.277  0.00  0.00    -0.241 OA
ATOM     24  O   LIG d   1      -3.615  93.810 121.606  0.00  0.00    -0.241 OA
ENDBRANCH   3  22
TORSDOF 7
ENDMDL
MODEL 8
REMARK VINA RESULT:      -4.6     23.370     25.733
REMARK  7 active torsions:
REMARK  status: ('A' for Active; 'I' for Inactive)
REMARK    1  A    between atoms: C_2  and  C_3 
REMARK    2  A    between atoms: C_3  and  O_6 
REMARK    3  A    between atoms: C_3  and  C_4 
REMARK    4  A    between atoms: C_7  and  O_6 
REMARK    5  A    between atoms: C_9  and  C_10 
REMARK    6  A    between atoms: N_15  and  C_14 
REMARK    7  A    between atoms: N_20  and  C_19 
REMARK       I    between atoms: C_22  and  N_20 
ROOT
ATOM      1  C   LIG d   1     -16.823  96.641 117.380  0.00  0.00     0.161 C 
ATOM      2  C   LIG d   1     -18.021  96.831 116.672  0.00  0.00     0.016 C 
ATOM      3  C   LIG d   1     -19.299  96.769 117.274  0.00  0.00     0.038 C 
ATOM      4  C   LIG d   1     -19.459  96.662 118.664  0.00  0.00     0.028 C 
ATOM      5  C   LIG d   1     -18.294  95.961 119.355  0.00  0.00    -0.047 C 
ATOM      6  C   LIG d   1     -16.973  96.632 118.916  0.00  0.00     0.091 C 
ENDROOT
BRANCH   1   7
ATOM      7  O   LIG d   1     -15.854  97.629 116.977  0.00  0.00    -0.368 OA
BRANCH   7   8
ATOM      8  C   LIG d   1     -16.390  98.878 116.474  0.00  0.00     0.119 C 
BRANCH   8   9
ATOM      9  C   LIG d   1     -15.513  99.312 115.284  0.00  0.00     0.028 C 
ATOM     10  C   LIG d   1     -16.102 100.516 114.529  0.00  0.00     0.006 C 
ENDBRANCH   8   9
BRANCH   8  11
ATOM     11  C   LIG d   1     -16.253  99.999 117.508  0.00  0.00     0.028 C 
ATOM     12  C   LIG d   1     -17.561 100.273 118.267  0.00  0.00     0.006 C 
ENDBRANCH   8  11
ENDBRANCH   7   8
ENDBRANCH   1   7
BRANCH   6  13
ATOM     13  N   LIG d   1     -15.777  95.954 119.481  0.00  0.00    -0.311 N 
ATOM     14  C   LIG d   1     -15.187  96.332 120.614  0.00  0.00     0.210 C 
ATOM     15  C   LIG d   1     -13.957  95.510 121.007  0.00  0.00     0.109 C 
ATOM     16  O   LIG d   1     -15.586  97.250 121.347  0.00  0.00    -0.276 OA
ATOM     17  H   LIG d   1     -15.407  95.179 118.967  0.00  0.00     0.149 HD
ENDBRANCH   6  13
BRANCH   5  18
ATOM     18  N   LIG d   1     -18.527  96.041 120.810  0.00  0.00     0.381 N 
ATOM     19  H   LIG d   1     -18.684  96.992 121.076  0.00  0.00    -0.090 HD
ATOM     20  H   LIG d   1     -17.708  95.711 121.289  0.00  0.00    -0.090 HD
ATOM     21  H   LIG d   1     -19.314  95.484 121.060  0.00  0.00    -0.090 HD
ENDBRANCH   5  18
BRANCH   3  22
ATOM     22  C   LIG d   1     -20.434  96.776 116.479  0.00  0.00     0.382 C 
ATOM     23  O   LIG d   1     -21.480  97.340 116.883  0.00  0.00    -0.241 OA
ATOM     24  O   LIG d   1     -20.440  96.186 115.381  0.00  0.00    -0.241 OA
ENDBRANCH   3  22
TORSDOF 7
ENDMDL
MODEL 9
REMARK VINA RESULT:      -4.5     15.152     17.805
REMARK  7 active torsions:
REMARK  status: ('A' for Active; 'I' for Inactive)
REMARK    1  A    between atoms: C_2  and  C_3 
REMARK    2  A    between atoms: C_3  and  O_6 
REMARK    3  A    between atoms: C_3  and  C_4 
REMARK    4  A    between atoms: C_7  and  O_6 
REMARK    5  A    between atoms: C_9  and  C_10 
REMARK    6  A    between atoms: N_15  and  C_14 
REMARK    7  A    between atoms: N_20  and  C_19 
REMARK       I    between atoms: C_22  and  N_20 
ROOT
ATOM      1  C   LIG d   1     -15.149  66.216 117.837  0.00  0.00     0.161 C 
ATOM      2  C   LIG d   1     -14.086  66.412 118.734  0.00  0.00     0.016 C 
ATOM      3  C   LIG d   1     -14.181  67.223 119.888  0.00  0.00     0.038 C 
ATOM      4  C   LIG d   1     -15.400  67.776 120.308  0.00  0.00     0.028 C 
ATOM      5  C   LIG d   1     -16.380  68.019 119.165  0.00  0.00    -0.047 C 
ATOM      6  C   LIG d   1     -16.519  66.721 118.338  0.00  0.00     0.091 C 
ENDROOT
BRANCH   1   7
ATOM      7  O   LIG d   1     -15.231  64.824 117.473  0.00  0.00    -0.368 OA
BRANCH   7   8
ATOM      8  C   LIG d   1     -15.913  63.958 118.414  0.00  0.00     0.119 C 
BRANCH   8   9
ATOM      9  C   LIG d   1     -14.877  62.951 118.950  0.00  0.00     0.028 C 
ATOM     10  C   LIG d   1     -15.535  61.698 119.552  0.00  0.00     0.006 C 
ENDBRANCH   8   9
BRANCH   8  11
ATOM     11  C   LIG d   1     -16.981  63.110 117.717  0.00  0.00     0.028 C 
ATOM     12  C   LIG d   1     -17.029  63.342 116.199  0.00  0.00     0.006 C 
ENDBRANCH   8  11
ENDBRANCH   7   8
ENDBRANCH   1   7
BRANCH   6  13
ATOM     13  N   LIG d   1     -17.395  66.897 117.150  0.00  0.00    -0.311 N 
ATOM     14  C   LIG d   1     -18.674  66.527 117.122  0.00  0.00     0.210 C 
ATOM     15  C   LIG d   1     -19.391  66.780 115.791  0.00  0.00     0.109 C 
ATOM     16  O   LIG d   1     -19.292  66.043 118.082  0.00  0.00    -0.276 OA
ATOM     17  H   LIG d   1     -16.983  67.311 116.337  0.00  0.00     0.149 HD
ENDBRANCH   6  13
BRANCH   5  18
ATOM     18  N   LIG d   1     -17.654  68.466 119.758  0.00  0.00     0.381 N 
ATOM     19  H   LIG d   1     -18.044  69.205 119.208  0.00  0.00    -0.090 HD
ATOM     20  H   LIG d   1     -17.477  68.821 120.682  0.00  0.00    -0.090 HD
ATOM     21  H   LIG d   1     -18.295  67.704 119.805  0.00  0.00    -0.090 HD
ENDBRANCH   5  18
BRANCH   3  22
ATOM     22  C   LIG d   1     -13.038  67.521 120.615  0.00  0.00     0.382 C 
ATOM     23  O   LIG d   1     -12.353  66.595 121.113  0.00  0.00    -0.241 OA
ATOM     24  O   LIG d   1     -12.708  68.705 120.816  0.00  0.00    -0.241 OA
ENDBRANCH   3  22
TORSDOF 7
ENDMDL
