MODEL 1
REMARK VINA RESULT:      -5.4      0.000      0.000
REMARK  7 active torsions:
REMARK  status: ('A' for Active; 'I' for Inactive)
REMARK    1  A    between atoms: C_2  and  C_3 
REMARK    2  A    between atoms: C_3  and  O_6 
REMARK    3  A    between atoms: C_3  and  C_4 
REMARK    4  A    between atoms: C_7  and  O_6 
REMARK    5  A    between atoms: C_9  and  C_10 
REMARK    6  A    between atoms: N_15  and  C_14 
REMARK    7  A    between atoms: N_20  and  C_19 
REMARK       I    between atoms: C_22  and  N_20 
ROOT
ATOM      1  C   LIG d   1      -1.496  76.084 114.889  0.00  0.00     0.161 C 
ATOM      2  C   LIG d   1      -1.353  75.165 115.942  0.00  0.00     0.016 C 
ATOM      3  C   LIG d   1      -0.719  75.477 117.167  0.00  0.00     0.038 C 
ATOM      4  C   LIG d   1      -0.317  76.783 117.482  0.00  0.00     0.028 C 
ATOM      5  C   LIG d   1       0.015  77.627 116.255  0.00  0.00    -0.047 C 
ATOM      6  C   LIG d   1      -1.162  77.545 115.257  0.00  0.00     0.091 C 
ENDROOT
BRANCH   1   7
ATOM      7  O   LIG d   1      -2.826  75.996 114.341  0.00  0.00    -0.368 OA
BRANCH   7   8
ATOM      8  C   LIG d   1      -3.859  75.535 115.246  0.00  0.00     0.119 C 
BRANCH   8   9
ATOM      9  C   LIG d   1      -4.739  74.535 114.473  0.00  0.00     0.028 C 
ATOM     10  C   LIG d   1      -5.975  74.096 115.277  0.00  0.00     0.006 C 
ENDBRANCH   8   9
BRANCH   8  11
ATOM     11  C   LIG d   1      -4.798  76.676 115.648  0.00  0.00     0.028 C 
ATOM     12  C   LIG d   1      -4.406  77.329 116.982  0.00  0.00     0.006 C 
ENDBRANCH   8  11
ENDBRANCH   7   8
ENDBRANCH   1   7
BRANCH   6  13
ATOM     13  N   LIG d   1      -0.884  78.274 113.992  0.00  0.00    -0.311 N 
ATOM     14  C   LIG d   1      -1.711  79.178 113.470  0.00  0.00     0.210 C 
ATOM     15  C   LIG d   1      -1.243  79.797 112.150  0.00  0.00     0.109 C 
ATOM     16  O   LIG d   1      -2.773  79.549 113.992  0.00  0.00    -0.276 OA
ATOM     17  H   LIG d   1      -0.029  78.057 113.519  0.00  0.00     0.149 HD
ENDBRANCH   6  13
BRANCH   5  18
ATOM     18  N   LIG d   1       0.285  79.001 116.720  0.00  0.00     0.381 N 
ATOM     19  H   LIG d   1      -0.571  79.440 116.992  0.00  0.00    -0.090 HD
ATOM     20  H   LIG d   1       0.683  79.527 115.962  0.00  0.00    -0.090 HD
ATOM     21  H   LIG d   1       0.917  78.982 117.489  0.00  0.00    -0.090 HD
ENDBRANCH   5  18
BRANCH   3  22
ATOM     22  C   LIG d   1      -0.447  74.466 118.076  0.00  0.00     0.382 C 
ATOM     23  O   LIG d   1      -0.725  73.276 117.793  0.00  0.00    -0.241 OA
ATOM     24  O   LIG d   1       0.033  74.735 119.194  0.00  0.00    -0.241 OA
ENDBRANCH   3  22
TORSDOF 7
ENDMDL
MODEL 2
REMARK VINA RESULT:      -5.3     13.593     16.124
REMARK  7 active torsions:
REMARK  status: ('A' for Active; 'I' for Inactive)
REMARK    1  A    between atoms: C_2  and  C_3 
REMARK    2  A    between atoms: C_3  and  O_6 
REMARK    3  A    between atoms: C_3  and  C_4 
REMARK    4  A    between atoms: C_7  and  O_6 
REMARK    5  A    between atoms: C_9  and  C_10 
REMARK    6  A    between atoms: N_15  and  C_14 
REMARK    7  A    between atoms: N_20  and  C_19 
REMARK       I    between atoms: C_22  and  N_20 
ROOT
ATOM      1  C   LIG d   1      -3.408  91.470 117.913  0.00  0.00     0.161 C 
ATOM      2  C   LIG d   1      -3.935  90.718 116.850  0.00  0.00     0.016 C 
ATOM      3  C   LIG d   1      -5.230  90.922 116.320  0.00  0.00     0.038 C 
ATOM      4  C   LIG d   1      -6.033  92.001 116.720  0.00  0.00     0.028 C 
ATOM      5  C   LIG d   1      -5.745  92.477 118.139  0.00  0.00    -0.047 C 
ATOM      6  C   LIG d   1      -4.226  92.723 118.288  0.00  0.00     0.091 C 
ENDROOT
BRANCH   1   7
ATOM      7  O   LIG d   1      -2.042  91.831 117.625  0.00  0.00    -0.368 OA
BRANCH   7   8
ATOM      8  C   LIG d   1      -1.027  91.168 118.418  0.00  0.00     0.119 C 
BRANCH   8   9
ATOM      9  C   LIG d   1      -0.121  90.384 117.449  0.00  0.00     0.028 C 
ATOM     10  C   LIG d   1      -0.620  88.948 117.211  0.00  0.00     0.006 C 
ENDBRANCH   8   9
BRANCH   8  11
ATOM     11  C   LIG d   1      -1.642  90.112 119.342  0.00  0.00     0.028 C 
ATOM     12  C   LIG d   1      -1.414  90.417 120.830  0.00  0.00     0.006 C 
ENDBRANCH   8  11
ENDBRANCH   7   8
ENDBRANCH   1   7
BRANCH   6  13
ATOM     13  N   LIG d   1      -3.847  93.111 119.671  0.00  0.00    -0.311 N 
ATOM     14  C   LIG d   1      -3.038  94.131 119.951  0.00  0.00     0.210 C 
ATOM     15  C   LIG d   1      -2.761  94.346 121.443  0.00  0.00     0.109 C 
ATOM     16  O   LIG d   1      -2.549  94.897 119.108  0.00  0.00    -0.276 OA
ATOM     17  H   LIG d   1      -4.224  92.561 120.419  0.00  0.00     0.149 HD
ENDBRANCH   6  13
BRANCH   5  18
ATOM     18  N   LIG d   1      -6.553  93.688 118.376  0.00  0.00     0.381 N 
ATOM     19  H   LIG d   1      -5.964  94.497 118.356  0.00  0.00    -0.090 HD
ATOM     20  H   LIG d   1      -6.973  93.626 119.286  0.00  0.00    -0.090 HD
ATOM     21  H   LIG d   1      -7.261  93.767 117.680  0.00  0.00    -0.090 HD
ENDBRANCH   5  18
BRANCH   3  22
ATOM     22  C   LIG d   1      -5.749  90.018 115.406  0.00  0.00     0.382 C 
ATOM     23  O   LIG d   1      -6.947  90.110 115.044  0.00  0.00    -0.241 OA
ATOM     24  O   LIG d   1      -5.048  89.084 114.974  0.00  0.00    -0.241 OA
ENDBRANCH   3  22
TORSDOF 7
ENDMDL
MODEL 3
REMARK VINA RESULT:      -5.1     10.595     13.215
REMARK  7 active torsions:
REMARK  status: ('A' for Active; 'I' for Inactive)
REMARK    1  A    between atoms: C_2  and  C_3 
REMARK    2  A    between atoms: C_3  and  O_6 
REMARK    3  A    between atoms: C_3  and  C_4 
REMARK    4  A    between atoms: C_7  and  O_6 
REMARK    5  A    between atoms: C_9  and  C_10 
REMARK    6  A    between atoms: N_15  and  C_14 
REMARK    7  A    between atoms: N_20  and  C_19 
REMARK       I    between atoms: C_22  and  N_20 
ROOT
ATOM      1  C   LIG d   1       1.379  88.279 116.180  0.00  0.00     0.161 C 
ATOM      2  C   LIG d   1       0.074  88.312 116.700  0.00  0.00     0.016 C 
ATOM      3  C   LIG d   1      -0.513  89.473 117.254  0.00  0.00     0.038 C 
ATOM      4  C   LIG d   1       0.115  90.726 117.187  0.00  0.00     0.028 C 
ATOM      5  C   LIG d   1       1.636  90.638 117.127  0.00  0.00    -0.047 C 
ATOM      6  C   LIG d   1       2.038  89.662 115.998  0.00  0.00     0.091 C 
ENDROOT
BRANCH   1   7
ATOM      7  O   LIG d   1       1.391  87.550 114.937  0.00  0.00    -0.368 OA
BRANCH   7   8
ATOM      8  C   LIG d   1       1.927  86.205 114.991  0.00  0.00     0.119 C 
BRANCH   8   9
ATOM      9  C   LIG d   1       3.247  86.200 114.197  0.00  0.00     0.028 C 
ATOM     10  C   LIG d   1       3.108  86.879 112.824  0.00  0.00     0.006 C 
ENDBRANCH   8   9
BRANCH   8  11
ATOM     11  C   LIG d   1       1.014  85.212 114.267  0.00  0.00     0.028 C 
ATOM     12  C   LIG d   1      -0.466  85.626 114.303  0.00  0.00     0.006 C 
ENDBRANCH   8  11
ENDBRANCH   7   8
ENDBRANCH   1   7
BRANCH   6  13
ATOM     13  N   LIG d   1       3.508  89.453 115.926  0.00  0.00    -0.311 N 
ATOM     14  C   LIG d   1       4.238  89.745 114.851  0.00  0.00     0.210 C 
ATOM     15  C   LIG d   1       5.732  89.434 114.980  0.00  0.00     0.109 C 
ATOM     16  O   LIG d   1       3.795  90.261 113.814  0.00  0.00    -0.276 OA
ATOM     17  H   LIG d   1       3.954  89.067 116.735  0.00  0.00     0.149 HD
ENDBRANCH   6  13
BRANCH   5  18
ATOM     18  N   LIG d   1       2.153  92.004 116.922  0.00  0.00     0.381 N 
ATOM     19  H   LIG d   1       1.527  92.669 117.331  0.00  0.00    -0.090 HD
ATOM     20  H   LIG d   1       2.206  92.187 115.935  0.00  0.00    -0.090 HD
ATOM     21  H   LIG d   1       3.057  92.092 117.332  0.00  0.00    -0.090 HD
ENDBRANCH   5  18
BRANCH   3  22
ATOM     22  C   LIG d   1      -1.727  89.379 117.918  0.00  0.00     0.382 C 
ATOM     23  O   LIG d   1      -1.829  89.792 119.099  0.00  0.00    -0.241 OA
ATOM     24  O   LIG d   1      -2.709  88.847 117.367  0.00  0.00    -0.241 OA
ENDBRANCH   3  22
TORSDOF 7
ENDMDL
MODEL 4
REMARK VINA RESULT:      -4.9      1.959      5.313
REMARK  7 active torsions:
REMARK  status: ('A' for Active; 'I' for Inactive)
REMARK    1  A    between atoms: C_2  and  C_3 
REMARK    2  A    between atoms: C_3  and  O_6 
REMARK    3  A    between atoms: C_3  and  C_4 
REMARK    4  A    between atoms: C_7  and  O_6 
REMARK    5  A    between atoms: C_9  and  C_10 
REMARK    6  A    between atoms: N_15  and  C_14 
REMARK    7  A    between atoms: N_20  and  C_19 
REMARK       I    between atoms: C_22  and  N_20 
ROOT
ATOM      1  C   LIG d   1      -2.280  78.644 115.141  0.00  0.00     0.161 C 
ATOM      2  C   LIG d   1      -2.655  79.464 114.064  0.00  0.00     0.016 C 
ATOM      3  C   LIG d   1      -1.887  80.565 113.621  0.00  0.00     0.038 C 
ATOM      4  C   LIG d   1      -0.608  80.832 114.132  0.00  0.00     0.028 C 
ATOM      5  C   LIG d   1      -0.412  80.336 115.561  0.00  0.00    -0.047 C 
ATOM      6  C   LIG d   1      -0.834  78.851 115.640  0.00  0.00     0.091 C 
ENDROOT
BRANCH   1   7
ATOM      7  O   LIG d   1      -2.499  77.260 114.801  0.00  0.00    -0.368 OA
BRANCH   7   8
ATOM      8  C   LIG d   1      -3.820  76.737 115.080  0.00  0.00     0.119 C 
BRANCH   8   9
ATOM      9  C   LIG d   1      -4.145  77.059 116.552  0.00  0.00     0.028 C 
ATOM     10  C   LIG d   1      -5.642  77.327 116.778  0.00  0.00     0.006 C 
ENDBRANCH   8   9
BRANCH   8  11
ATOM     11  C   LIG d   1      -3.846  75.208 114.984  0.00  0.00     0.028 C 
ATOM     12  C   LIG d   1      -5.059  74.681 114.201  0.00  0.00     0.006 C 
ENDBRANCH   8  11
ENDBRANCH   7   8
ENDBRANCH   1   7
BRANCH   6  13
ATOM     13  N   LIG d   1      -0.753  78.311 117.022  0.00  0.00    -0.311 N 
ATOM     14  C   LIG d   1      -0.139  77.170 117.328  0.00  0.00     0.210 C 
ATOM     15  C   LIG d   1      -0.190  76.786 118.810  0.00  0.00     0.109 C 
ATOM     16  O   LIG d   1       0.471  76.455 116.518  0.00  0.00    -0.276 OA
ATOM     17  H   LIG d   1      -1.194  78.843 117.746  0.00  0.00     0.149 HD
ENDBRANCH   6  13
BRANCH   5  18
ATOM     18  N   LIG d   1       1.002  80.555 115.918  0.00  0.00     0.381 N 
ATOM     19  H   LIG d   1       1.123  81.484 116.270  0.00  0.00    -0.090 HD
ATOM     20  H   LIG d   1       1.566  80.455 115.092  0.00  0.00    -0.090 HD
ATOM     21  H   LIG d   1       1.287  79.892 116.606  0.00  0.00    -0.090 HD
ENDBRANCH   5  18
BRANCH   3  22
ATOM     22  C   LIG d   1      -2.416  81.438 112.682  0.00  0.00     0.382 C 
ATOM     23  O   LIG d   1      -3.641  81.404 112.414  0.00  0.00    -0.241 OA
ATOM     24  O   LIG d   1      -1.676  82.229 112.067  0.00  0.00    -0.241 OA
ENDBRANCH   3  22
TORSDOF 7
ENDMDL
MODEL 5
REMARK VINA RESULT:      -4.8     15.198     17.635
REMARK  7 active torsions:
REMARK  status: ('A' for Active; 'I' for Inactive)
REMARK    1  A    between atoms: C_2  and  C_3 
REMARK    2  A    between atoms: C_3  and  O_6 
REMARK    3  A    between atoms: C_3  and  C_4 
REMARK    4  A    between atoms: C_7  and  O_6 
REMARK    5  A    between atoms: C_9  and  C_10 
REMARK    6  A    between atoms: N_15  and  C_14 
REMARK    7  A    between atoms: N_20  and  C_19 
REMARK       I    between atoms: C_22  and  N_20 
ROOT
ATOM      1  C   LIG d   1      -3.091  92.545 119.288  0.00  0.00     0.161 C 
ATOM      2  C   LIG d   1      -2.983  91.497 118.359  0.00  0.00     0.016 C 
ATOM      3  C   LIG d   1      -4.009  91.155 117.448  0.00  0.00     0.038 C 
ATOM      4  C   LIG d   1      -5.163  91.939 117.303  0.00  0.00     0.028 C 
ATOM      5  C   LIG d   1      -5.537  92.706 118.567  0.00  0.00    -0.047 C 
ATOM      6  C   LIG d   1      -4.298  93.482 119.069  0.00  0.00     0.091 C 
ENDROOT
BRANCH   1   7
ATOM      7  O   LIG d   1      -1.866  93.304 119.315  0.00  0.00    -0.368 OA
BRANCH   7   8
ATOM      8  C   LIG d   1      -1.757  94.372 118.342  0.00  0.00     0.119 C 
BRANCH   8   9
ATOM      9  C   LIG d   1      -0.538  94.065 117.451  0.00  0.00     0.028 C 
ATOM     10  C   LIG d   1       0.364  92.972 118.047  0.00  0.00     0.006 C 
ENDBRANCH   8   9
BRANCH   8  11
ATOM     11  C   LIG d   1      -1.438  95.710 119.018  0.00  0.00     0.028 C 
ATOM     12  C   LIG d   1      -1.037  95.551 120.493  0.00  0.00     0.006 C 
ENDBRANCH   8  11
ENDBRANCH   7   8
ENDBRANCH   1   7
BRANCH   6  13
ATOM     13  N   LIG d   1      -4.554  94.192 120.349  0.00  0.00    -0.311 N 
ATOM     14  C   LIG d   1      -4.902  95.476 120.418  0.00  0.00     0.210 C 
ATOM     15  C   LIG d   1      -5.098  96.017 121.837  0.00  0.00     0.109 C 
ATOM     16  O   LIG d   1      -5.099  96.209 119.437  0.00  0.00    -0.276 OA
ATOM     17  H   LIG d   1      -4.447  93.664 121.193  0.00  0.00     0.149 HD
ENDBRANCH   6  13
BRANCH   5  18
ATOM     18  N   LIG d   1      -6.674  93.586 118.234  0.00  0.00     0.381 N 
ATOM     19  H   LIG d   1      -7.426  93.042 117.862  0.00  0.00    -0.090 HD
ATOM     20  H   LIG d   1      -6.382  94.243 117.532  0.00  0.00    -0.090 HD
ATOM     21  H   LIG d   1      -6.977  94.073 119.049  0.00  0.00    -0.090 HD
ENDBRANCH   5  18
BRANCH   3  22
ATOM     22  C   LIG d   1      -3.904  89.993 116.699  0.00  0.00     0.382 C 
ATOM     23  O   LIG d   1      -3.042  89.131 116.997  0.00  0.00    -0.241 OA
ATOM     24  O   LIG d   1      -4.630  89.816 115.703  0.00  0.00    -0.241 OA
ENDBRANCH   3  22
TORSDOF 7
ENDMDL
MODEL 6
REMARK VINA RESULT:      -4.7     12.517     14.276
REMARK  7 active torsions:
REMARK  status: ('A' for Active; 'I' for Inactive)
REMARK    1  A    between atoms: C_2  and  C_3 
REMARK    2  A    between atoms: C_3  and  O_6 
REMARK    3  A    between atoms: C_3  and  C_4 
REMARK    4  A    between atoms: C_7  and  O_6 
REMARK    5  A    between atoms: C_9  and  C_10 
REMARK    6  A    between atoms: N_15  and  C_14 
REMARK    7  A    between atoms: N_20  and  C_19 
REMARK       I    between atoms: C_22  and  N_20 
ROOT
ATOM      1  C   LIG d   1       3.054  88.798 116.077  0.00  0.00     0.161 C 
ATOM      2  C   LIG d   1       3.467  89.520 117.209  0.00  0.00     0.016 C 
ATOM      3  C   LIG d   1       4.719  90.171 117.302  0.00  0.00     0.038 C 
ATOM      4  C   LIG d   1       5.586  90.270 116.204  0.00  0.00     0.028 C 
ATOM      5  C   LIG d   1       5.432  89.128 115.205  0.00  0.00    -0.047 C 
ATOM      6  C   LIG d   1       3.940  88.989 114.829  0.00  0.00     0.091 C 
ENDROOT
BRANCH   1   7
ATOM      7  O   LIG d   1       1.681  89.114 115.771  0.00  0.00    -0.368 OA
BRANCH   7   8
ATOM      8  C   LIG d   1       0.890  89.644 116.863  0.00  0.00     0.119 C 
BRANCH   8   9
ATOM      9  C   LIG d   1      -0.293  88.682 117.088  0.00  0.00     0.028 C 
ATOM     10  C   LIG d   1      -1.564  89.413 117.551  0.00  0.00     0.006 C 
ENDBRANCH   8   9
BRANCH   8  11
ATOM     11  C   LIG d   1       0.255  90.987 116.490  0.00  0.00     0.028 C 
ATOM     12  C   LIG d   1       0.930  92.179 117.187  0.00  0.00     0.006 C 
ENDBRANCH   8  11
ENDBRANCH   7   8
ENDBRANCH   1   7
BRANCH   6  13
ATOM     13  N   LIG d   1       3.689  87.840 113.919  0.00  0.00    -0.311 N 
ATOM     14  C   LIG d   1       3.188  87.972 112.692  0.00  0.00     0.210 C 
ATOM     15  C   LIG d   1       2.990  86.658 111.930  0.00  0.00     0.109 C 
ATOM     16  O   LIG d   1       2.920  89.055 112.151  0.00  0.00    -0.276 OA
ATOM     17  H   LIG d   1       3.908  86.927 114.267  0.00  0.00     0.149 HD
ENDBRANCH   6  13
BRANCH   5  18
ATOM     18  N   LIG d   1       6.295  89.430 114.047  0.00  0.00     0.381 N 
ATOM     19  H   LIG d   1       7.050  90.021 114.332  0.00  0.00    -0.090 HD
ATOM     20  H   LIG d   1       5.753  89.921 113.357  0.00  0.00    -0.090 HD
ATOM     21  H   LIG d   1       6.653  88.585 113.659  0.00  0.00    -0.090 HD
ENDBRANCH   5  18
BRANCH   3  22
ATOM     22  C   LIG d   1       5.132  90.696 118.517  0.00  0.00     0.382 C 
ATOM     23  O   LIG d   1       6.184  90.278 119.056  0.00  0.00    -0.241 OA
ATOM     24  O   LIG d   1       4.441  91.552 119.102  0.00  0.00    -0.241 OA
ENDBRANCH   3  22
TORSDOF 7
ENDMDL
MODEL 7
REMARK VINA RESULT:      -4.7      3.390      5.678
REMARK  7 active torsions:
REMARK  status: ('A' for Active; 'I' for Inactive)
REMARK    1  A    between atoms: C_2  and  C_3 
REMARK    2  A    between atoms: C_3  and  O_6 
REMARK    3  A    between atoms: C_3  and  C_4 
REMARK    4  A    between atoms: C_7  and  O_6 
REMARK    5  A    between atoms: C_9  and  C_10 
REMARK    6  A    between atoms: N_15  and  C_14 
REMARK    7  A    between atoms: N_20  and  C_19 
REMARK       I    between atoms: C_22  and  N_20 
ROOT
ATOM      1  C   LIG d   1      -3.835  77.731 115.936  0.00  0.00     0.161 C 
ATOM      2  C   LIG d   1      -4.125  76.580 115.184  0.00  0.00     0.016 C 
ATOM      3  C   LIG d   1      -5.297  75.810 115.361  0.00  0.00     0.038 C 
ATOM      4  C   LIG d   1      -6.338  76.228 116.204  0.00  0.00     0.028 C 
ATOM      5  C   LIG d   1      -5.869  77.113 117.353  0.00  0.00    -0.047 C 
ATOM      6  C   LIG d   1      -5.010  78.264 116.782  0.00  0.00     0.091 C 
ENDROOT
BRANCH   1   7
ATOM      7  O   LIG d   1      -3.331  78.767 115.069  0.00  0.00    -0.368 OA
BRANCH   7   8
ATOM      8  C   LIG d   1      -1.892  78.931 115.042  0.00  0.00     0.119 C 
BRANCH   8   9
ATOM      9  C   LIG d   1      -1.581  80.365 115.514  0.00  0.00     0.028 C 
ATOM     10  C   LIG d   1      -1.119  80.413 116.981  0.00  0.00     0.006 C 
ENDBRANCH   8   9
BRANCH   8  11
ATOM     11  C   LIG d   1      -1.348  78.848 113.613  0.00  0.00     0.028 C 
ATOM     12  C   LIG d   1      -2.343  79.372 112.566  0.00  0.00     0.006 C 
ENDBRANCH   8  11
ENDBRANCH   7   8
ENDBRANCH   1   7
BRANCH   6  13
ATOM     13  N   LIG d   1      -4.441  79.130 117.848  0.00  0.00    -0.311 N 
ATOM     14  C   LIG d   1      -4.786  80.405 118.019  0.00  0.00     0.210 C 
ATOM     15  C   LIG d   1      -4.064  81.121 119.165  0.00  0.00     0.109 C 
ATOM     16  O   LIG d   1      -5.645  81.000 117.352  0.00  0.00    -0.276 OA
ATOM     17  H   LIG d   1      -3.759  78.718 118.454  0.00  0.00     0.149 HD
ENDBRANCH   6  13
BRANCH   5  18
ATOM     18  N   LIG d   1      -7.068  77.587 118.069  0.00  0.00     0.381 N 
ATOM     19  H   LIG d   1      -7.090  78.588 118.069  0.00  0.00    -0.090 HD
ATOM     20  H   LIG d   1      -7.023  77.273 119.023  0.00  0.00    -0.090 HD
ATOM     21  H   LIG d   1      -7.889  77.230 117.633  0.00  0.00    -0.090 HD
ENDBRANCH   5  18
BRANCH   3  22
ATOM     22  C   LIG d   1      -5.419  74.587 114.720  0.00  0.00     0.382 C 
ATOM     23  O   LIG d   1      -4.932  74.428 113.575  0.00  0.00    -0.241 OA
ATOM     24  O   LIG d   1      -6.049  73.654 115.253  0.00  0.00    -0.241 OA
ENDBRANCH   3  22
TORSDOF 7
ENDMDL
MODEL 8
REMARK VINA RESULT:      -4.6      2.108      2.345
REMARK  7 active torsions:
REMARK  status: ('A' for Active; 'I' for Inactive)
REMARK    1  A    between atoms: C_2  and  C_3 
REMARK    2  A    between atoms: C_3  and  O_6 
REMARK    3  A    between atoms: C_3  and  C_4 
REMARK    4  A    between atoms: C_7  and  O_6 
REMARK    5  A    between atoms: C_9  and  C_10 
REMARK    6  A    between atoms: N_15  and  C_14 
REMARK    7  A    between atoms: N_20  and  C_19 
REMARK       I    between atoms: C_22  and  N_20 
ROOT
ATOM      1  C   LIG d   1      -2.492  77.407 115.466  0.00  0.00     0.161 C 
ATOM      2  C   LIG d   1      -2.007  76.100 115.639  0.00  0.00     0.016 C 
ATOM      3  C   LIG d   1      -1.246  75.694 116.759  0.00  0.00     0.038 C 
ATOM      4  C   LIG d   1      -1.047  76.535 117.864  0.00  0.00     0.028 C 
ATOM      5  C   LIG d   1      -1.088  78.018 117.512  0.00  0.00    -0.047 C 
ATOM      6  C   LIG d   1      -2.379  78.309 116.714  0.00  0.00     0.091 C 
ENDROOT
BRANCH   1   7
ATOM      7  O   LIG d   1      -3.856  77.365 115.001  0.00  0.00    -0.368 OA
BRANCH   7   8
ATOM      8  C   LIG d   1      -4.616  76.186 115.362  0.00  0.00     0.119 C 
BRANCH   8   9
ATOM      9  C   LIG d   1      -5.042  75.491 114.054  0.00  0.00     0.028 C 
ATOM     10  C   LIG d   1      -5.238  73.976 114.231  0.00  0.00     0.006 C 
ENDBRANCH   8   9
BRANCH   8  11
ATOM     11  C   LIG d   1      -5.923  76.560 116.067  0.00  0.00     0.028 C 
ATOM     12  C   LIG d   1      -5.695  77.335 117.374  0.00  0.00     0.006 C 
ENDBRANCH   8  11
ENDBRANCH   7   8
ENDBRANCH   1   7
BRANCH   6  13
ATOM     13  N   LIG d   1      -2.458  79.721 116.257  0.00  0.00    -0.311 N 
ATOM     14  C   LIG d   1      -3.088  80.677 116.936  0.00  0.00     0.210 C 
ATOM     15  C   LIG d   1      -3.065  82.060 116.278  0.00  0.00     0.109 C 
ATOM     16  O   LIG d   1      -3.635  80.519 118.038  0.00  0.00    -0.276 OA
ATOM     17  H   LIG d   1      -2.013  79.944 115.388  0.00  0.00     0.149 HD
ENDBRANCH   6  13
BRANCH   5  18
ATOM     18  N   LIG d   1      -1.004  78.778 118.773  0.00  0.00     0.381 N 
ATOM     19  H   LIG d   1      -1.794  78.566 119.350  0.00  0.00    -0.090 HD
ATOM     20  H   LIG d   1      -1.023  79.760 118.563  0.00  0.00    -0.090 HD
ATOM     21  H   LIG d   1      -0.162  78.550 119.254  0.00  0.00    -0.090 HD
ENDBRANCH   5  18
BRANCH   3  22
ATOM     22  C   LIG d   1      -0.642  74.446 116.764  0.00  0.00     0.382 C 
ATOM     23  O   LIG d   1       0.094  74.102 115.808  0.00  0.00    -0.241 OA
ATOM     24  O   LIG d   1      -0.860  73.642 117.690  0.00  0.00    -0.241 OA
ENDBRANCH   3  22
TORSDOF 7
ENDMDL
MODEL 9
REMARK VINA RESULT:      -4.6     13.434     15.260
REMARK  7 active torsions:
REMARK  status: ('A' for Active; 'I' for Inactive)
REMARK    1  A    between atoms: C_2  and  C_3 
REMARK    2  A    between atoms: C_3  and  O_6 
REMARK    3  A    between atoms: C_3  and  C_4 
REMARK    4  A    between atoms: C_7  and  O_6 
REMARK    5  A    between atoms: C_9  and  C_10 
REMARK    6  A    between atoms: N_15  and  C_14 
REMARK    7  A    between atoms: N_20  and  C_19 
REMARK       I    between atoms: C_22  and  N_20 
ROOT
ATOM      1  C   LIG d   1       3.132  90.463 116.586  0.00  0.00     0.161 C 
ATOM      2  C   LIG d   1       3.086  90.062 115.241  0.00  0.00     0.016 C 
ATOM      3  C   LIG d   1       4.225  89.647 114.513  0.00  0.00     0.038 C 
ATOM      4  C   LIG d   1       5.471  89.460 115.130  0.00  0.00     0.028 C 
ATOM      5  C   LIG d   1       5.674  90.333 116.364  0.00  0.00    -0.047 C 
ATOM      6  C   LIG d   1       4.462  90.159 117.307  0.00  0.00     0.091 C 
ENDROOT
BRANCH   1   7
ATOM      7  O   LIG d   1       2.027  89.881 117.307  0.00  0.00    -0.368 OA
BRANCH   7   8
ATOM      8  C   LIG d   1       0.708  90.141 116.769  0.00  0.00     0.119 C 
BRANCH   8   9
ATOM      9  C   LIG d   1       0.044  91.206 117.664  0.00  0.00     0.028 C 
ATOM     10  C   LIG d   1       0.325  92.638 117.179  0.00  0.00     0.006 C 
ENDBRANCH   8   9
BRANCH   8  11
ATOM     11  C   LIG d   1      -0.191  88.906 116.875  0.00  0.00     0.028 C 
ATOM     12  C   LIG d   1      -1.529  89.199 117.572  0.00  0.00     0.006 C 
ENDBRANCH   8  11
ENDBRANCH   7   8
ENDBRANCH   1   7
BRANCH   6  13
ATOM     13  N   LIG d   1       4.540  91.042 118.499  0.00  0.00    -0.311 N 
ATOM     14  C   LIG d   1       4.510  90.589 119.751  0.00  0.00     0.210 C 
ATOM     15  C   LIG d   1       4.582  91.671 120.833  0.00  0.00     0.109 C 
ATOM     16  O   LIG d   1       4.462  89.391 120.068  0.00  0.00    -0.276 OA
ATOM     17  H   LIG d   1       4.612  92.027 118.333  0.00  0.00     0.149 HD
ENDBRANCH   6  13
BRANCH   5  18
ATOM     18  N   LIG d   1       6.952  89.937 116.985  0.00  0.00     0.381 N 
ATOM     19  H   LIG d   1       6.899  90.059 117.976  0.00  0.00    -0.090 HD
ATOM     20  H   LIG d   1       7.682  90.531 116.633  0.00  0.00    -0.090 HD
ATOM     21  H   LIG d   1       7.155  88.986 116.770  0.00  0.00    -0.090 HD
ENDBRANCH   5  18
BRANCH   3  22
ATOM     22  C   LIG d   1       4.133  89.454 113.143  0.00  0.00     0.382 C 
ATOM     23  O   LIG d   1       5.166  89.497 112.433  0.00  0.00    -0.241 OA
ATOM     24  O   LIG d   1       3.024  89.280 112.603  0.00  0.00    -0.241 OA
ENDBRANCH   3  22
TORSDOF 7
ENDMDL
