MODEL 1
REMARK VINA RESULT:      -5.6      0.000      0.000
REMARK  7 active torsions:
REMARK  status: ('A' for Active; 'I' for Inactive)
REMARK    1  A    between atoms: C_2  and  C_3 
REMARK    2  A    between atoms: C_3  and  O_6 
REMARK    3  A    between atoms: C_3  and  C_4 
REMARK    4  A    between atoms: C_7  and  O_6 
REMARK    5  A    between atoms: C_9  and  C_10 
REMARK    6  A    between atoms: N_15  and  C_14 
REMARK    7  A    between atoms: N_20  and  C_19 
REMARK       I    between atoms: C_22  and  N_20 
ROOT
ATOM      1  C   LIG d   1      -3.406  75.911 115.012  0.00  0.00     0.161 C 
ATOM      2  C   LIG d   1      -3.650  76.679 113.862  0.00  0.00     0.016 C 
ATOM      3  C   LIG d   1      -2.632  77.339 113.136  0.00  0.00     0.038 C 
ATOM      4  C   LIG d   1      -1.273  77.151 113.428  0.00  0.00     0.028 C 
ATOM      5  C   LIG d   1      -1.010  76.791 114.886  0.00  0.00    -0.047 C 
ATOM      6  C   LIG d   1      -1.918  75.603 115.281  0.00  0.00     0.091 C 
ENDROOT
BRANCH   1   7
ATOM      7  O   LIG d   1      -4.168  74.689 114.955  0.00  0.00    -0.368 OA
BRANCH   7   8
ATOM      8  C   LIG d   1      -5.241  74.560 115.920  0.00  0.00     0.119 C 
BRANCH   8   9
ATOM      9  C   LIG d   1      -5.663  73.079 115.949  0.00  0.00     0.028 C 
ATOM     10  C   LIG d   1      -6.745  72.797 117.005  0.00  0.00     0.006 C 
ENDBRANCH   8   9
BRANCH   8  11
ATOM     11  C   LIG d   1      -6.488  75.329 115.472  0.00  0.00     0.028 C 
ATOM     12  C   LIG d   1      -6.800  76.535 116.372  0.00  0.00     0.006 C 
ENDBRANCH   8  11
ENDBRANCH   7   8
ENDBRANCH   1   7
BRANCH   6  13
ATOM     13  N   LIG d   1      -1.786  75.241 116.716  0.00  0.00    -0.311 N 
ATOM     14  C   LIG d   1      -0.968  74.288 117.159  0.00  0.00     0.210 C 
ATOM     15  C   LIG d   1      -1.000  74.061 118.674  0.00  0.00     0.109 C 
ATOM     16  O   LIG d   1      -0.195  73.631 116.446  0.00  0.00    -0.276 OA
ATOM     17  H   LIG d   1      -2.353  75.746 117.368  0.00  0.00     0.149 HD
ENDBRANCH   6  13
BRANCH   5  18
ATOM     18  N   LIG d   1       0.427  76.489 115.019  0.00  0.00     0.381 N 
ATOM     19  H   LIG d   1       0.741  75.977 114.219  0.00  0.00    -0.090 HD
ATOM     20  H   LIG d   1       0.565  75.916 115.833  0.00  0.00    -0.090 HD
ATOM     21  H   LIG d   1       0.947  77.334 115.107  0.00  0.00    -0.090 HD
ENDBRANCH   5  18
BRANCH   3  22
ATOM     22  C   LIG d   1      -2.972  78.231 112.131  0.00  0.00     0.382 C 
ATOM     23  O   LIG d   1      -3.179  79.437 112.406  0.00  0.00    -0.241 OA
ATOM     24  O   LIG d   1      -3.119  77.835 110.959  0.00  0.00    -0.241 OA
ENDBRANCH   3  22
TORSDOF 7
ENDMDL
MODEL 2
REMARK VINA RESULT:      -5.5      1.137      1.999
REMARK  7 active torsions:
REMARK  status: ('A' for Active; 'I' for Inactive)
REMARK    1  A    between atoms: C_2  and  C_3 
REMARK    2  A    between atoms: C_3  and  O_6 
REMARK    3  A    between atoms: C_3  and  C_4 
REMARK    4  A    between atoms: C_7  and  O_6 
REMARK    5  A    between atoms: C_9  and  C_10 
REMARK    6  A    between atoms: N_15  and  C_14 
REMARK    7  A    between atoms: N_20  and  C_19 
REMARK       I    between atoms: C_22  and  N_20 
ROOT
ATOM      1  C   LIG d   1      -3.124  75.240 116.307  0.00  0.00     0.161 C 
ATOM      2  C   LIG d   1      -3.440  75.982 115.157  0.00  0.00     0.016 C 
ATOM      3  C   LIG d   1      -2.466  76.579 114.323  0.00  0.00     0.038 C 
ATOM      4  C   LIG d   1      -1.094  76.345 114.501  0.00  0.00     0.028 C 
ATOM      5  C   LIG d   1      -0.717  76.019 115.942  0.00  0.00    -0.047 C 
ATOM      6  C   LIG d   1      -1.630  74.881 116.455  0.00  0.00     0.091 C 
ENDROOT
BRANCH   1   7
ATOM      7  O   LIG d   1      -3.933  74.049 116.358  0.00  0.00    -0.368 OA
BRANCH   7   8
ATOM      8  C   LIG d   1      -5.189  74.100 115.637  0.00  0.00     0.119 C 
BRANCH   8   9
ATOM      9  C   LIG d   1      -6.236  74.728 116.577  0.00  0.00     0.028 C 
ATOM     10  C   LIG d   1      -7.101  75.785 115.870  0.00  0.00     0.006 C 
ENDBRANCH   8   9
BRANCH   8  11
ATOM     11  C   LIG d   1      -5.712  72.694 115.329  0.00  0.00     0.028 C 
ATOM     12  C   LIG d   1      -6.637  72.148 116.428  0.00  0.00     0.006 C 
ENDBRANCH   8  11
ENDBRANCH   7   8
ENDBRANCH   1   7
BRANCH   6  13
ATOM     13  N   LIG d   1      -1.385  74.558 117.884  0.00  0.00    -0.311 N 
ATOM     14  C   LIG d   1      -0.550  73.601 118.287  0.00  0.00     0.210 C 
ATOM     15  C   LIG d   1      -0.460  73.419 119.805  0.00  0.00     0.109 C 
ATOM     16  O   LIG d   1       0.147  72.907 117.531  0.00  0.00    -0.276 OA
ATOM     17  H   LIG d   1      -1.886  75.093 118.566  0.00  0.00     0.149 HD
ENDBRANCH   6  13
BRANCH   5  18
ATOM     18  N   LIG d   1       0.714  75.663 115.959  0.00  0.00     0.381 N 
ATOM     19  H   LIG d   1       1.185  76.187 116.669  0.00  0.00    -0.090 HD
ATOM     20  H   LIG d   1       1.119  75.901 115.071  0.00  0.00    -0.090 HD
ATOM     21  H   LIG d   1       0.821  74.687 116.131  0.00  0.00    -0.090 HD
ENDBRANCH   5  18
BRANCH   3  22
ATOM     22  C   LIG d   1      -2.861  77.452 113.321  0.00  0.00     0.382 C 
ATOM     23  O   LIG d   1      -2.679  77.149 112.118  0.00  0.00    -0.241 OA
ATOM     24  O   LIG d   1      -3.356  78.559 113.607  0.00  0.00    -0.241 OA
ENDBRANCH   3  22
TORSDOF 7
ENDMDL
MODEL 3
REMARK VINA RESULT:      -5.4      9.056     10.536
REMARK  7 active torsions:
REMARK  status: ('A' for Active; 'I' for Inactive)
REMARK    1  A    between atoms: C_2  and  C_3 
REMARK    2  A    between atoms: C_3  and  O_6 
REMARK    3  A    between atoms: C_3  and  C_4 
REMARK    4  A    between atoms: C_7  and  O_6 
REMARK    5  A    between atoms: C_9  and  C_10 
REMARK    6  A    between atoms: N_15  and  C_14 
REMARK    7  A    between atoms: N_20  and  C_19 
REMARK       I    between atoms: C_22  and  N_20 
ROOT
ATOM      1  C   LIG d   1       0.705  83.350 112.403  0.00  0.00     0.161 C 
ATOM      2  C   LIG d   1       0.087  84.201 111.472  0.00  0.00     0.016 C 
ATOM      3  C   LIG d   1       0.059  85.609 111.602  0.00  0.00     0.038 C 
ATOM      4  C   LIG d   1       0.784  86.275 112.601  0.00  0.00     0.028 C 
ATOM      5  C   LIG d   1       1.005  85.433 113.853  0.00  0.00    -0.047 C 
ATOM      6  C   LIG d   1       1.597  84.065 113.440  0.00  0.00     0.091 C 
ENDROOT
BRANCH   1   7
ATOM      7  O   LIG d   1       1.458  82.334 111.711  0.00  0.00    -0.368 OA
BRANCH   7   8
ATOM      8  C   LIG d   1       1.987  82.704 110.414  0.00  0.00     0.119 C 
BRANCH   8   9
ATOM      9  C   LIG d   1       2.052  81.424 109.558  0.00  0.00     0.028 C 
ATOM     10  C   LIG d   1       3.474  80.842 109.480  0.00  0.00     0.006 C 
ENDBRANCH   8   9
BRANCH   8  11
ATOM     11  C   LIG d   1       3.434  83.195 110.521  0.00  0.00     0.028 C 
ATOM     12  C   LIG d   1       3.569  84.708 110.288  0.00  0.00     0.006 C 
ENDBRANCH   8  11
ENDBRANCH   7   8
ENDBRANCH   1   7
BRANCH   6  13
ATOM     13  N   LIG d   1       1.765  83.148 114.597  0.00  0.00    -0.311 N 
ATOM     14  C   LIG d   1       2.895  83.048 115.294  0.00  0.00     0.210 C 
ATOM     15  C   LIG d   1       2.862  82.026 116.436  0.00  0.00     0.109 C 
ATOM     16  O   LIG d   1       3.912  83.731 115.096  0.00  0.00    -0.276 OA
ATOM     17  H   LIG d   1       0.980  82.579 114.846  0.00  0.00     0.149 HD
ENDBRANCH   6  13
BRANCH   5  18
ATOM     18  N   LIG d   1       1.889  86.196 114.754  0.00  0.00     0.381 N 
ATOM     19  H   LIG d   1       1.545  86.142 115.692  0.00  0.00    -0.090 HD
ATOM     20  H   LIG d   1       1.886  87.161 114.471  0.00  0.00    -0.090 HD
ATOM     21  H   LIG d   1       2.816  85.833 114.710  0.00  0.00    -0.090 HD
ENDBRANCH   5  18
BRANCH   3  22
ATOM     22  C   LIG d   1      -0.733  86.362 110.749  0.00  0.00     0.382 C 
ATOM     23  O   LIG d   1      -1.480  87.257 111.214  0.00  0.00    -0.241 OA
ATOM     24  O   LIG d   1      -0.743  86.130 109.526  0.00  0.00    -0.241 OA
ENDBRANCH   3  22
TORSDOF 7
ENDMDL
MODEL 4
REMARK VINA RESULT:      -5.4      7.882     10.489
REMARK  7 active torsions:
REMARK  status: ('A' for Active; 'I' for Inactive)
REMARK    1  A    between atoms: C_2  and  C_3 
REMARK    2  A    between atoms: C_3  and  O_6 
REMARK    3  A    between atoms: C_3  and  C_4 
REMARK    4  A    between atoms: C_7  and  O_6 
REMARK    5  A    between atoms: C_9  and  C_10 
REMARK    6  A    between atoms: N_15  and  C_14 
REMARK    7  A    between atoms: N_20  and  C_19 
REMARK       I    between atoms: C_22  and  N_20 
ROOT
ATOM      1  C   LIG d   1       1.310  83.622 112.624  0.00  0.00     0.161 C 
ATOM      2  C   LIG d   1       1.440  84.811 111.887  0.00  0.00     0.016 C 
ATOM      3  C   LIG d   1       2.095  85.963 112.379  0.00  0.00     0.038 C 
ATOM      4  C   LIG d   1       2.802  85.954 113.591  0.00  0.00     0.028 C 
ATOM      5  C   LIG d   1       2.270  84.936 114.594  0.00  0.00    -0.047 C 
ATOM      6  C   LIG d   1       2.170  83.557 113.904  0.00  0.00     0.091 C 
ENDROOT
BRANCH   1   7
ATOM      7  O   LIG d   1       1.586  82.489 111.777  0.00  0.00    -0.368 OA
BRANCH   7   8
ATOM      8  C   LIG d   1       2.387  82.754 110.599  0.00  0.00     0.119 C 
BRANCH   8   9
ATOM      9  C   LIG d   1       1.758  81.976 109.427  0.00  0.00     0.028 C 
ATOM     10  C   LIG d   1       0.871  80.814 109.903  0.00  0.00     0.006 C 
ENDBRANCH   8   9
BRANCH   8  11
ATOM     11  C   LIG d   1       3.802  82.187 110.749  0.00  0.00     0.028 C 
ATOM     12  C   LIG d   1       4.642  82.338 109.471  0.00  0.00     0.006 C 
ENDBRANCH   8  11
ENDBRANCH   7   8
ENDBRANCH   1   7
BRANCH   6  13
ATOM     13  N   LIG d   1       1.580  82.521 114.791  0.00  0.00    -0.311 N 
ATOM     14  C   LIG d   1       2.309  81.676 115.518  0.00  0.00     0.210 C 
ATOM     15  C   LIG d   1       1.501  80.674 116.348  0.00  0.00     0.109 C 
ATOM     16  O   LIG d   1       3.547  81.683 115.579  0.00  0.00    -0.276 OA
ATOM     17  H   LIG d   1       0.581  82.465 114.825  0.00  0.00     0.149 HD
ENDBRANCH   6  13
BRANCH   5  18
ATOM     18  N   LIG d   1       3.181  84.937 115.754  0.00  0.00     0.381 N 
ATOM     19  H   LIG d   1       3.826  85.698 115.678  0.00  0.00    -0.090 HD
ATOM     20  H   LIG d   1       3.704  84.079 115.758  0.00  0.00    -0.090 HD
ATOM     21  H   LIG d   1       2.658  85.020 116.598  0.00  0.00    -0.090 HD
ENDBRANCH   5  18
BRANCH   3  22
ATOM     22  C   LIG d   1       2.014  87.154 111.672  0.00  0.00     0.382 C 
ATOM     23  O   LIG d   1       1.857  88.237 112.285  0.00  0.00    -0.241 OA
ATOM     24  O   LIG d   1       2.051  87.153 110.427  0.00  0.00    -0.241 OA
ENDBRANCH   3  22
TORSDOF 7
ENDMDL
MODEL 5
REMARK VINA RESULT:      -5.3      1.618      4.959
REMARK  7 active torsions:
REMARK  status: ('A' for Active; 'I' for Inactive)
REMARK    1  A    between atoms: C_2  and  C_3 
REMARK    2  A    between atoms: C_3  and  O_6 
REMARK    3  A    between atoms: C_3  and  C_4 
REMARK    4  A    between atoms: C_7  and  O_6 
REMARK    5  A    between atoms: C_9  and  C_10 
REMARK    6  A    between atoms: N_15  and  C_14 
REMARK    7  A    between atoms: N_20  and  C_19 
REMARK       I    between atoms: C_22  and  N_20 
ROOT
ATOM      1  C   LIG d   1      -2.559  75.092 115.725  0.00  0.00     0.161 C 
ATOM      2  C   LIG d   1      -2.110  74.326 116.814  0.00  0.00     0.016 C 
ATOM      3  C   LIG d   1      -0.870  74.542 117.458  0.00  0.00     0.038 C 
ATOM      4  C   LIG d   1      -0.056  75.642 117.151  0.00  0.00     0.028 C 
ATOM      5  C   LIG d   1      -0.231  76.144 115.721  0.00  0.00    -0.047 C 
ATOM      6  C   LIG d   1      -1.736  76.367 115.448  0.00  0.00     0.091 C 
ENDROOT
BRANCH   1   7
ATOM      7  O   LIG d   1      -3.951  75.423 115.902  0.00  0.00    -0.368 OA
BRANCH   7   8
ATOM      8  C   LIG d   1      -4.903  74.403 115.511  0.00  0.00     0.119 C 
BRANCH   8   9
ATOM      9  C   LIG d   1      -5.235  74.625 114.023  0.00  0.00     0.028 C 
ATOM     10  C   LIG d   1      -6.051  75.908 113.789  0.00  0.00     0.006 C 
ENDBRANCH   8   9
BRANCH   8  11
ATOM     11  C   LIG d   1      -6.233  74.569 116.253  0.00  0.00     0.028 C 
ATOM     12  C   LIG d   1      -6.801  73.235 116.763  0.00  0.00     0.006 C 
ENDBRANCH   8  11
ENDBRANCH   7   8
ENDBRANCH   1   7
BRANCH   6  13
ATOM     13  N   LIG d   1      -2.002  76.778 114.045  0.00  0.00    -0.311 N 
ATOM     14  C   LIG d   1      -2.851  77.750 113.714  0.00  0.00     0.210 C 
ATOM     15  C   LIG d   1      -2.993  78.000 112.210  0.00  0.00     0.109 C 
ATOM     16  O   LIG d   1      -3.476  78.449 114.525  0.00  0.00    -0.276 OA
ATOM     17  H   LIG d   1      -1.514  76.284 113.324  0.00  0.00     0.149 HD
ENDBRANCH   6  13
BRANCH   5  18
ATOM     18  N   LIG d   1       0.571  77.374 115.580  0.00  0.00     0.381 N 
ATOM     19  H   LIG d   1       0.183  77.951 114.860  0.00  0.00    -0.090 HD
ATOM     20  H   LIG d   1       1.507  77.124 115.314  0.00  0.00    -0.090 HD
ATOM     21  H   LIG d   1       0.586  77.873 116.443  0.00  0.00    -0.090 HD
ENDBRANCH   5  18
BRANCH   3  22
ATOM     22  C   LIG d   1      -0.414  73.626 118.394  0.00  0.00     0.382 C 
ATOM     23  O   LIG d   1      -0.753  73.738 119.597  0.00  0.00    -0.241 OA
ATOM     24  O   LIG d   1       0.368  72.716 118.059  0.00  0.00    -0.241 OA
ENDBRANCH   3  22
TORSDOF 7
ENDMDL
MODEL 6
REMARK VINA RESULT:      -5.2      7.399     10.545
REMARK  7 active torsions:
REMARK  status: ('A' for Active; 'I' for Inactive)
REMARK    1  A    between atoms: C_2  and  C_3 
REMARK    2  A    between atoms: C_3  and  O_6 
REMARK    3  A    between atoms: C_3  and  C_4 
REMARK    4  A    between atoms: C_7  and  O_6 
REMARK    5  A    between atoms: C_9  and  C_10 
REMARK    6  A    between atoms: N_15  and  C_14 
REMARK    7  A    between atoms: N_20  and  C_19 
REMARK       I    between atoms: C_22  and  N_20 
ROOT
ATOM      1  C   LIG d   1       2.079  83.100 111.794  0.00  0.00     0.161 C 
ATOM      2  C   LIG d   1       1.514  82.194 110.882  0.00  0.00     0.016 C 
ATOM      3  C   LIG d   1       0.965  80.947 111.261  0.00  0.00     0.038 C 
ATOM      4  C   LIG d   1       0.806  80.586 112.608  0.00  0.00     0.028 C 
ATOM      5  C   LIG d   1       1.820  81.248 113.536  0.00  0.00    -0.047 C 
ATOM      6  C   LIG d   1       1.815  82.772 113.279  0.00  0.00     0.091 C 
ENDROOT
BRANCH   1   7
ATOM      7  O   LIG d   1       1.638  84.438 111.490  0.00  0.00    -0.368 OA
BRANCH   7   8
ATOM      8  C   LIG d   1       2.368  85.128 110.446  0.00  0.00     0.119 C 
BRANCH   8   9
ATOM      9  C   LIG d   1       3.467  85.967 111.126  0.00  0.00     0.028 C 
ATOM     10  C   LIG d   1       2.890  87.072 112.026  0.00  0.00     0.006 C 
ENDBRANCH   8   9
BRANCH   8  11
ATOM     11  C   LIG d   1       1.477  86.139 109.718  0.00  0.00     0.028 C 
ATOM     12  C   LIG d   1      -0.021  85.832 109.871  0.00  0.00     0.006 C 
ENDBRANCH   8  11
ENDBRANCH   7   8
ENDBRANCH   1   7
BRANCH   6  13
ATOM     13  N   LIG d   1       2.838  83.486 114.086  0.00  0.00    -0.311 N 
ATOM     14  C   LIG d   1       2.594  84.617 114.746  0.00  0.00     0.210 C 
ATOM     15  C   LIG d   1       3.794  85.199 115.499  0.00  0.00     0.109 C 
ATOM     16  O   LIG d   1       1.488  85.177 114.804  0.00  0.00    -0.276 OA
ATOM     17  H   LIG d   1       3.755  83.085 114.119  0.00  0.00     0.149 HD
ENDBRANCH   6  13
BRANCH   5  18
ATOM     18  N   LIG d   1       1.454  80.894 114.920  0.00  0.00     0.381 N 
ATOM     19  H   LIG d   1       2.256  80.539 115.402  0.00  0.00    -0.090 HD
ATOM     20  H   LIG d   1       0.755  80.173 114.897  0.00  0.00    -0.090 HD
ATOM     21  H   LIG d   1       1.100  81.695 115.395  0.00  0.00    -0.090 HD
ENDBRANCH   5  18
BRANCH   3  22
ATOM     22  C   LIG d   1       0.604  80.030 110.287  0.00  0.00     0.382 C 
ATOM     23  O   LIG d   1       1.470  79.273 109.786  0.00  0.00    -0.241 OA
ATOM     24  O   LIG d   1      -0.569  79.980 109.870  0.00  0.00    -0.241 OA
ENDBRANCH   3  22
TORSDOF 7
ENDMDL
MODEL 7
REMARK VINA RESULT:      -5.2      2.712      3.866
REMARK  7 active torsions:
REMARK  status: ('A' for Active; 'I' for Inactive)
REMARK    1  A    between atoms: C_2  and  C_3 
REMARK    2  A    between atoms: C_3  and  O_6 
REMARK    3  A    between atoms: C_3  and  C_4 
REMARK    4  A    between atoms: C_7  and  O_6 
REMARK    5  A    between atoms: C_9  and  C_10 
REMARK    6  A    between atoms: N_15  and  C_14 
REMARK    7  A    between atoms: N_20  and  C_19 
REMARK       I    between atoms: C_22  and  N_20 
ROOT
ATOM      1  C   LIG d   1      -3.966  76.023 116.923  0.00  0.00     0.161 C 
ATOM      2  C   LIG d   1      -5.207  76.605 117.232  0.00  0.00     0.016 C 
ATOM      3  C   LIG d   1      -5.549  77.935 116.896  0.00  0.00     0.038 C 
ATOM      4  C   LIG d   1      -4.723  78.731 116.089  0.00  0.00     0.028 C 
ATOM      5  C   LIG d   1      -3.246  78.361 116.182  0.00  0.00    -0.047 C 
ATOM      6  C   LIG d   1      -3.095  76.840 115.946  0.00  0.00     0.091 C 
ENDROOT
BRANCH   1   7
ATOM      7  O   LIG d   1      -4.164  74.687 116.420  0.00  0.00    -0.368 OA
BRANCH   7   8
ATOM      8  C   LIG d   1      -5.390  74.459 115.682  0.00  0.00     0.119 C 
BRANCH   8   9
ATOM      9  C   LIG d   1      -5.805  72.993 115.915  0.00  0.00     0.028 C 
ATOM     10  C   LIG d   1      -6.736  72.833 117.129  0.00  0.00     0.006 C 
ENDBRANCH   8   9
BRANCH   8  11
ATOM     11  C   LIG d   1      -5.162  74.580 114.172  0.00  0.00     0.028 C 
ATOM     12  C   LIG d   1      -5.833  75.823 113.567  0.00  0.00     0.006 C 
ENDBRANCH   8  11
ENDBRANCH   7   8
ENDBRANCH   1   7
BRANCH   6  13
ATOM     13  N   LIG d   1      -1.691  76.379 116.102  0.00  0.00    -0.311 N 
ATOM     14  C   LIG d   1      -0.862  76.191 115.076  0.00  0.00     0.210 C 
ATOM     15  C   LIG d   1       0.536  75.694 115.457  0.00  0.00     0.109 C 
ATOM     16  O   LIG d   1      -1.142  76.420 113.890  0.00  0.00    -0.276 OA
ATOM     17  H   LIG d   1      -1.371  76.200 117.034  0.00  0.00     0.149 HD
ENDBRANCH   6  13
BRANCH   5  18
ATOM     18  N   LIG d   1      -2.519  79.175 115.190  0.00  0.00     0.381 N 
ATOM     19  H   LIG d   1      -3.076  79.963 114.925  0.00  0.00    -0.090 HD
ATOM     20  H   LIG d   1      -2.352  78.617 114.371  0.00  0.00    -0.090 HD
ATOM     21  H   LIG d   1      -1.653  79.484 115.572  0.00  0.00    -0.090 HD
ENDBRANCH   5  18
BRANCH   3  22
ATOM     22  C   LIG d   1      -6.712  78.495 117.403  0.00  0.00     0.382 C 
ATOM     23  O   LIG d   1      -7.515  77.787 118.057  0.00  0.00    -0.241 OA
ATOM     24  O   LIG d   1      -6.989  79.688 117.177  0.00  0.00    -0.241 OA
ENDBRANCH   3  22
TORSDOF 7
ENDMDL
MODEL 8
REMARK VINA RESULT:      -5.2      9.239     12.102
REMARK  7 active torsions:
REMARK  status: ('A' for Active; 'I' for Inactive)
REMARK    1  A    between atoms: C_2  and  C_3 
REMARK    2  A    between atoms: C_3  and  O_6 
REMARK    3  A    between atoms: C_3  and  C_4 
REMARK    4  A    between atoms: C_7  and  O_6 
REMARK    5  A    between atoms: C_9  and  C_10 
REMARK    6  A    between atoms: N_15  and  C_14 
REMARK    7  A    between atoms: N_20  and  C_19 
REMARK       I    between atoms: C_22  and  N_20 
ROOT
ATOM      1  C   LIG d   1       2.242  85.940 112.375  0.00  0.00     0.161 C 
ATOM      2  C   LIG d   1       2.660  87.165 112.921  0.00  0.00     0.016 C 
ATOM      3  C   LIG d   1       3.187  87.296 114.227  0.00  0.00     0.038 C 
ATOM      4  C   LIG d   1       3.474  86.179 115.026  0.00  0.00     0.028 C 
ATOM      5  C   LIG d   1       2.600  84.969 114.711  0.00  0.00    -0.047 C 
ATOM      6  C   LIG d   1       2.651  84.696 113.190  0.00  0.00     0.091 C 
ENDROOT
BRANCH   1   7
ATOM      7  O   LIG d   1       2.711  85.826 111.017  0.00  0.00    -0.368 OA
BRANCH   7   8
ATOM      8  C   LIG d   1       1.720  86.033 109.981  0.00  0.00     0.119 C 
BRANCH   8   9
ATOM      9  C   LIG d   1       0.434  86.536 110.665  0.00  0.00     0.028 C 
ATOM     10  C   LIG d   1      -0.837  85.948 110.028  0.00  0.00     0.006 C 
ENDBRANCH   8   9
BRANCH   8  11
ATOM     11  C   LIG d   1       1.332  84.713 109.308  0.00  0.00     0.028 C 
ATOM     12  C   LIG d   1       2.475  83.686 109.309  0.00  0.00     0.006 C 
ENDBRANCH   8  11
ENDBRANCH   7   8
ENDBRANCH   1   7
BRANCH   6  13
ATOM     13  N   LIG d   1       1.757  83.579 112.785  0.00  0.00    -0.311 N 
ATOM     14  C   LIG d   1       2.157  82.311 112.708  0.00  0.00     0.210 C 
ATOM     15  C   LIG d   1       1.081  81.321 112.250  0.00  0.00     0.109 C 
ATOM     16  O   LIG d   1       3.291  81.908 113.005  0.00  0.00    -0.276 OA
ATOM     17  H   LIG d   1       0.811  83.813 112.556  0.00  0.00     0.149 HD
ENDBRANCH   6  13
BRANCH   5  18
ATOM     18  N   LIG d   1       3.097  83.838 115.518  0.00  0.00     0.381 N 
ATOM     19  H   LIG d   1       2.830  82.974 115.091  0.00  0.00    -0.090 HD
ATOM     20  H   LIG d   1       2.679  83.882 116.431  0.00  0.00    -0.090 HD
ATOM     21  H   LIG d   1       4.089  83.886 115.597  0.00  0.00    -0.090 HD
ENDBRANCH   5  18
BRANCH   3  22
ATOM     22  C   LIG d   1       3.395  88.558 114.761  0.00  0.00     0.382 C 
ATOM     23  O   LIG d   1       2.610  89.008 115.630  0.00  0.00    -0.241 OA
ATOM     24  O   LIG d   1       4.332  89.270 114.353  0.00  0.00    -0.241 OA
ENDBRANCH   3  22
TORSDOF 7
ENDMDL
MODEL 9
REMARK VINA RESULT:      -5.1      2.427      4.365
REMARK  7 active torsions:
REMARK  status: ('A' for Active; 'I' for Inactive)
REMARK    1  A    between atoms: C_2  and  C_3 
REMARK    2  A    between atoms: C_3  and  O_6 
REMARK    3  A    between atoms: C_3  and  C_4 
REMARK    4  A    between atoms: C_7  and  O_6 
REMARK    5  A    between atoms: C_9  and  C_10 
REMARK    6  A    between atoms: N_15  and  C_14 
REMARK    7  A    between atoms: N_20  and  C_19 
REMARK       I    between atoms: C_22  and  N_20 
ROOT
ATOM      1  C   LIG d   1      -2.789  74.692 116.134  0.00  0.00     0.161 C 
ATOM      2  C   LIG d   1      -1.927  75.608 115.507  0.00  0.00     0.016 C 
ATOM      3  C   LIG d   1      -2.333  76.468 114.461  0.00  0.00     0.038 C 
ATOM      4  C   LIG d   1      -3.676  76.578 114.071  0.00  0.00     0.028 C 
ATOM      5  C   LIG d   1      -4.488  75.313 114.329  0.00  0.00    -0.047 C 
ATOM      6  C   LIG d   1      -4.284  74.877 115.798  0.00  0.00     0.091 C 
ENDROOT
BRANCH   1   7
ATOM      7  O   LIG d   1      -2.588  74.731 117.561  0.00  0.00    -0.368 OA
BRANCH   7   8
ATOM      8  C   LIG d   1      -2.039  75.961 118.094  0.00  0.00     0.119 C 
BRANCH   8   9
ATOM      9  C   LIG d   1      -1.103  75.583 119.259  0.00  0.00     0.028 C 
ATOM     10  C   LIG d   1      -0.779  74.079 119.288  0.00  0.00     0.006 C 
ENDBRANCH   8   9
BRANCH   8  11
ATOM     11  C   LIG d   1      -3.131  76.834 118.719  0.00  0.00     0.028 C 
ATOM     12  C   LIG d   1      -3.469  78.066 117.866  0.00  0.00     0.006 C 
ENDBRANCH   8  11
ENDBRANCH   7   8
ENDBRANCH   1   7
BRANCH   6  13
ATOM     13  N   LIG d   1      -4.976  73.600 116.111  0.00  0.00    -0.311 N 
ATOM     14  C   LIG d   1      -6.211  73.538 116.606  0.00  0.00     0.210 C 
ATOM     15  C   LIG d   1      -6.729  72.122 116.876  0.00  0.00     0.109 C 
ATOM     16  O   LIG d   1      -6.939  74.520 116.817  0.00  0.00    -0.276 OA
ATOM     17  H   LIG d   1      -4.470  72.753 115.941  0.00  0.00     0.149 HD
ENDBRANCH   6  13
BRANCH   5  18
ATOM     18  N   LIG d   1      -5.895  75.613 114.005  0.00  0.00     0.381 N 
ATOM     19  H   LIG d   1      -6.395  74.761 113.846  0.00  0.00    -0.090 HD
ATOM     20  H   LIG d   1      -5.926  76.159 113.162  0.00  0.00    -0.090 HD
ATOM     21  H   LIG d   1      -6.317  76.119 114.752  0.00  0.00    -0.090 HD
ENDBRANCH   5  18
BRANCH   3  22
ATOM     22  C   LIG d   1      -1.383  77.201 113.766  0.00  0.00     0.382 C 
ATOM     23  O   LIG d   1      -0.653  78.019 114.376  0.00  0.00    -0.241 OA
ATOM     24  O   LIG d   1      -1.277  77.086 112.530  0.00  0.00    -0.241 OA
ENDBRANCH   3  22
TORSDOF 7
ENDMDL
