MODEL 1
REMARK VINA RESULT:      -6.1      0.000      0.000
REMARK  7 active torsions:
REMARK  status: ('A' for Active; 'I' for Inactive)
REMARK    1  A    between atoms: C_2  and  C_3 
REMARK    2  A    between atoms: C_3  and  O_6 
REMARK    3  A    between atoms: C_3  and  C_4 
REMARK    4  A    between atoms: C_7  and  O_6 
REMARK    5  A    between atoms: C_9  and  C_10 
REMARK    6  A    between atoms: N_15  and  C_14 
REMARK    7  A    between atoms: N_20  and  C_19 
REMARK       I    between atoms: C_22  and  N_20 
ROOT
ATOM      1  C   LIG d   1       2.999  84.628 112.669  0.00  0.00     0.161 C 
ATOM      2  C   LIG d   1       3.081  85.938 112.170  0.00  0.00     0.016 C 
ATOM      3  C   LIG d   1       3.200  87.079 112.996  0.00  0.00     0.038 C 
ATOM      4  C   LIG d   1       3.398  86.975 114.381  0.00  0.00     0.028 C 
ATOM      5  C   LIG d   1       2.817  85.700 114.982  0.00  0.00    -0.047 C 
ATOM      6  C   LIG d   1       3.325  84.486 114.171  0.00  0.00     0.091 C 
ENDROOT
BRANCH   1   7
ATOM      7  O   LIG d   1       3.839  83.754 111.889  0.00  0.00    -0.368 OA
BRANCH   7   8
ATOM      8  C   LIG d   1       3.442  83.551 110.511  0.00  0.00     0.119 C 
BRANCH   8   9
ATOM      9  C   LIG d   1       2.078  82.833 110.523  0.00  0.00     0.028 C 
ATOM     10  C   LIG d   1       1.035  83.541 109.642  0.00  0.00     0.006 C 
ENDBRANCH   8   9
BRANCH   8  11
ATOM     11  C   LIG d   1       4.397  82.594 109.791  0.00  0.00     0.028 C 
ATOM     12  C   LIG d   1       3.932  81.131 109.852  0.00  0.00     0.006 C 
ENDBRANCH   8  11
ENDBRANCH   7   8
ENDBRANCH   1   7
BRANCH   6  13
ATOM     13  N   LIG d   1       2.737  83.204 114.640  0.00  0.00    -0.311 N 
ATOM     14  C   LIG d   1       3.332  82.404 115.523  0.00  0.00     0.210 C 
ATOM     15  C   LIG d   1       2.563  81.122 115.855  0.00  0.00     0.109 C 
ATOM     16  O   LIG d   1       4.408  82.651 116.088  0.00  0.00    -0.276 OA
ATOM     17  H   LIG d   1       1.850  82.942 114.256  0.00  0.00     0.149 HD
ENDBRANCH   6  13
BRANCH   5  18
ATOM     18  N   LIG d   1       3.214  85.654 116.401  0.00  0.00     0.381 N 
ATOM     19  H   LIG d   1       2.550  85.117 116.922  0.00  0.00    -0.090 HD
ATOM     20  H   LIG d   1       3.219  86.590 116.768  0.00  0.00    -0.090 HD
ATOM     21  H   LIG d   1       4.121  85.251 116.489  0.00  0.00    -0.090 HD
ENDBRANCH   5  18
BRANCH   3  22
ATOM     22  C   LIG d   1       3.081  88.345 112.441  0.00  0.00     0.382 C 
ATOM     23  O   LIG d   1       2.194  88.572 111.584  0.00  0.00    -0.241 OA
ATOM     24  O   LIG d   1       3.878  89.249 112.755  0.00  0.00    -0.241 OA
ENDBRANCH   3  22
TORSDOF 7
ENDMDL
MODEL 2
REMARK VINA RESULT:      -5.9      3.009      5.291
REMARK  7 active torsions:
REMARK  status: ('A' for Active; 'I' for Inactive)
REMARK    1  A    between atoms: C_2  and  C_3 
REMARK    2  A    between atoms: C_3  and  O_6 
REMARK    3  A    between atoms: C_3  and  C_4 
REMARK    4  A    between atoms: C_7  and  O_6 
REMARK    5  A    between atoms: C_9  and  C_10 
REMARK    6  A    between atoms: N_15  and  C_14 
REMARK    7  A    between atoms: N_20  and  C_19 
REMARK       I    between atoms: C_22  and  N_20 
ROOT
ATOM      1  C   LIG d   1       2.297  84.789 110.304  0.00  0.00     0.161 C 
ATOM      2  C   LIG d   1       1.201  85.645 110.500  0.00  0.00     0.016 C 
ATOM      3  C   LIG d   1      -0.139  85.195 110.548  0.00  0.00     0.038 C 
ATOM      4  C   LIG d   1      -0.462  83.830 110.554  0.00  0.00     0.028 C 
ATOM      5  C   LIG d   1       0.573  82.958 109.851  0.00  0.00    -0.047 C 
ATOM      6  C   LIG d   1       1.973  83.285 110.420  0.00  0.00     0.091 C 
ENDROOT
BRANCH   1   7
ATOM      7  O   LIG d   1       3.361  85.144 111.210  0.00  0.00    -0.368 OA
BRANCH   7   8
ATOM      8  C   LIG d   1       3.076  86.218 112.138  0.00  0.00     0.119 C 
BRANCH   8   9
ATOM      9  C   LIG d   1       4.018  87.389 111.795  0.00  0.00     0.028 C 
ATOM     10  C   LIG d   1       4.266  88.315 112.998  0.00  0.00     0.006 C 
ENDBRANCH   8   9
BRANCH   8  11
ATOM     11  C   LIG d   1       3.429  85.822 113.575  0.00  0.00     0.028 C 
ATOM     12  C   LIG d   1       2.876  84.442 113.965  0.00  0.00     0.006 C 
ENDBRANCH   8  11
ENDBRANCH   7   8
ENDBRANCH   1   7
BRANCH   6  13
ATOM     13  N   LIG d   1       3.055  82.537 109.728  0.00  0.00    -0.311 N 
ATOM     14  C   LIG d   1       3.525  81.366 110.154  0.00  0.00     0.210 C 
ATOM     15  C   LIG d   1       4.654  80.775 109.305  0.00  0.00     0.109 C 
ATOM     16  O   LIG d   1       3.091  80.745 111.136  0.00  0.00    -0.276 OA
ATOM     17  H   LIG d   1       3.443  82.954 108.905  0.00  0.00     0.149 HD
ENDBRANCH   6  13
BRANCH   5  18
ATOM     18  N   LIG d   1       0.182  81.550 110.052  0.00  0.00     0.381 N 
ATOM     19  H   LIG d   1       0.755  80.956 109.488  0.00  0.00    -0.090 HD
ATOM     20  H   LIG d   1      -0.774  81.434 109.763  0.00  0.00    -0.090 HD
ATOM     21  H   LIG d   1       0.278  81.303 111.012  0.00  0.00    -0.090 HD
ENDBRANCH   5  18
BRANCH   3  22
ATOM     22  C   LIG d   1      -1.174  86.117 110.550  0.00  0.00     0.382 C 
ATOM     23  O   LIG d   1      -1.582  86.599 111.635  0.00  0.00    -0.241 OA
ATOM     24  O   LIG d   1      -1.736  86.439 109.486  0.00  0.00    -0.241 OA
ENDBRANCH   3  22
TORSDOF 7
ENDMDL
MODEL 3
REMARK VINA RESULT:      -5.7      2.215      2.879
REMARK  7 active torsions:
REMARK  status: ('A' for Active; 'I' for Inactive)
REMARK    1  A    between atoms: C_2  and  C_3 
REMARK    2  A    between atoms: C_3  and  O_6 
REMARK    3  A    between atoms: C_3  and  C_4 
REMARK    4  A    between atoms: C_7  and  O_6 
REMARK    5  A    between atoms: C_9  and  C_10 
REMARK    6  A    between atoms: N_15  and  C_14 
REMARK    7  A    between atoms: N_20  and  C_19 
REMARK       I    between atoms: C_22  and  N_20 
ROOT
ATOM      1  C   LIG d   1       2.156  86.340 114.461  0.00  0.00     0.161 C 
ATOM      2  C   LIG d   1       2.559  87.636 114.096  0.00  0.00     0.016 C 
ATOM      3  C   LIG d   1       3.756  88.235 114.552  0.00  0.00     0.038 C 
ATOM      4  C   LIG d   1       4.711  87.519 115.287  0.00  0.00     0.028 C 
ATOM      5  C   LIG d   1       4.116  86.374 116.101  0.00  0.00    -0.047 C 
ATOM      6  C   LIG d   1       3.239  85.502 115.173  0.00  0.00     0.091 C 
ENDROOT
BRANCH   1   7
ATOM      7  O   LIG d   1       1.661  85.639 113.303  0.00  0.00    -0.368 OA
BRANCH   7   8
ATOM      8  C   LIG d   1       1.144  86.465 112.230  0.00  0.00     0.119 C 
BRANCH   8   9
ATOM      9  C   LIG d   1      -0.371  86.202 112.133  0.00  0.00     0.028 C 
ATOM     10  C   LIG d   1      -0.900  86.342 110.695  0.00  0.00     0.006 C 
ENDBRANCH   8   9
BRANCH   8  11
ATOM     11  C   LIG d   1       1.717  86.040 110.875  0.00  0.00     0.028 C 
ATOM     12  C   LIG d   1       3.194  85.621 110.958  0.00  0.00     0.006 C 
ENDBRANCH   8  11
ENDBRANCH   7   8
ENDBRANCH   1   7
BRANCH   6  13
ATOM     13  N   LIG d   1       2.551  84.408 115.906  0.00  0.00    -0.311 N 
ATOM     14  C   LIG d   1       3.076  83.196 116.076  0.00  0.00     0.210 C 
ATOM     15  C   LIG d   1       2.191  82.210 116.845  0.00  0.00     0.109 C 
ATOM     16  O   LIG d   1       4.204  82.854 115.691  0.00  0.00    -0.276 OA
ATOM     17  H   LIG d   1       1.644  84.609 116.280  0.00  0.00     0.149 HD
ENDBRANCH   6  13
BRANCH   5  18
ATOM     18  N   LIG d   1       5.235  85.628 116.707  0.00  0.00     0.381 N 
ATOM     19  H   LIG d   1       5.977  85.532 116.043  0.00  0.00    -0.090 HD
ATOM     20  H   LIG d   1       4.915  84.710 116.958  0.00  0.00    -0.090 HD
ATOM     21  H   LIG d   1       5.564  86.106 117.517  0.00  0.00    -0.090 HD
ENDBRANCH   5  18
BRANCH   3  22
ATOM     22  C   LIG d   1       3.988  89.580 114.305  0.00  0.00     0.382 C 
ATOM     23  O   LIG d   1       4.112  90.381 115.263  0.00  0.00    -0.241 OA
ATOM     24  O   LIG d   1       4.031  90.010 113.137  0.00  0.00    -0.241 OA
ENDBRANCH   3  22
TORSDOF 7
ENDMDL
MODEL 4
REMARK VINA RESULT:      -5.6      8.481     10.691
REMARK  7 active torsions:
REMARK  status: ('A' for Active; 'I' for Inactive)
REMARK    1  A    between atoms: C_2  and  C_3 
REMARK    2  A    between atoms: C_3  and  O_6 
REMARK    3  A    between atoms: C_3  and  C_4 
REMARK    4  A    between atoms: C_7  and  O_6 
REMARK    5  A    between atoms: C_9  and  C_10 
REMARK    6  A    between atoms: N_15  and  C_14 
REMARK    7  A    between atoms: N_20  and  C_19 
REMARK       I    between atoms: C_22  and  N_20 
ROOT
ATOM      1  C   LIG d   1      -2.788  77.412 116.208  0.00  0.00     0.161 C 
ATOM      2  C   LIG d   1      -3.090  78.247 115.120  0.00  0.00     0.016 C 
ATOM      3  C   LIG d   1      -2.301  78.314 113.948  0.00  0.00     0.038 C 
ATOM      4  C   LIG d   1      -1.233  77.433 113.722  0.00  0.00     0.028 C 
ATOM      5  C   LIG d   1      -0.588  76.921 115.006  0.00  0.00    -0.047 C 
ATOM      6  C   LIG d   1      -1.691  76.363 115.934  0.00  0.00     0.091 C 
ENDROOT
BRANCH   1   7
ATOM      7  O   LIG d   1      -3.989  76.769 116.678  0.00  0.00    -0.368 OA
BRANCH   7   8
ATOM      8  C   LIG d   1      -5.115  76.776 115.766  0.00  0.00     0.119 C 
BRANCH   8   9
ATOM      9  C   LIG d   1      -6.366  77.165 116.577  0.00  0.00     0.028 C 
ATOM     10  C   LIG d   1      -7.571  76.262 116.266  0.00  0.00     0.006 C 
ENDBRANCH   8   9
BRANCH   8  11
ATOM     11  C   LIG d   1      -5.403  75.373 115.225  0.00  0.00     0.028 C 
ATOM     12  C   LIG d   1      -5.089  75.236 113.726  0.00  0.00     0.006 C 
ENDBRANCH   8  11
ENDBRANCH   7   8
ENDBRANCH   1   7
BRANCH   6  13
ATOM     13  N   LIG d   1      -1.155  75.918 117.247  0.00  0.00    -0.311 N 
ATOM     14  C   LIG d   1      -0.670  74.697 117.465  0.00  0.00     0.210 C 
ATOM     15  C   LIG d   1      -0.187  74.439 118.896  0.00  0.00     0.109 C 
ATOM     16  O   LIG d   1      -0.564  73.813 116.602  0.00  0.00    -0.276 OA
ATOM     17  H   LIG d   1      -1.173  76.582 117.996  0.00  0.00     0.149 HD
ENDBRANCH   6  13
BRANCH   5  18
ATOM     18  N   LIG d   1       0.416  75.909 114.627  0.00  0.00     0.381 N 
ATOM     19  H   LIG d   1       0.480  75.851 113.630  0.00  0.00    -0.090 HD
ATOM     20  H   LIG d   1       0.123  75.014 114.976  0.00  0.00    -0.090 HD
ATOM     21  H   LIG d   1       1.304  76.149 115.010  0.00  0.00    -0.090 HD
ENDBRANCH   5  18
BRANCH   3  22
ATOM     22  C   LIG d   1      -2.554  79.298 113.005  0.00  0.00     0.382 C 
ATOM     23  O   LIG d   1      -3.145  80.352 113.342  0.00  0.00    -0.241 OA
ATOM     24  O   LIG d   1      -2.237  79.127 111.813  0.00  0.00    -0.241 OA
ENDBRANCH   3  22
TORSDOF 7
ENDMDL
MODEL 5
REMARK VINA RESULT:      -5.6     27.119     28.758
REMARK  7 active torsions:
REMARK  status: ('A' for Active; 'I' for Inactive)
REMARK    1  A    between atoms: C_2  and  C_3 
REMARK    2  A    between atoms: C_3  and  O_6 
REMARK    3  A    between atoms: C_3  and  C_4 
REMARK    4  A    between atoms: C_7  and  O_6 
REMARK    5  A    between atoms: C_9  and  C_10 
REMARK    6  A    between atoms: N_15  and  C_14 
REMARK    7  A    between atoms: N_20  and  C_19 
REMARK       I    between atoms: C_22  and  N_20 
ROOT
ATOM      1  C   LIG d   1     -25.428  85.640 113.135  0.00  0.00     0.161 C 
ATOM      2  C   LIG d   1     -24.376  86.488 113.521  0.00  0.00     0.016 C 
ATOM      3  C   LIG d   1     -23.074  86.025 113.820  0.00  0.00     0.038 C 
ATOM      4  C   LIG d   1     -22.693  84.692 113.605  0.00  0.00     0.028 C 
ATOM      5  C   LIG d   1     -23.854  83.708 113.699  0.00  0.00    -0.047 C 
ATOM      6  C   LIG d   1     -25.003  84.198 112.788  0.00  0.00     0.091 C 
ENDROOT
BRANCH   1   7
ATOM      7  O   LIG d   1     -26.150  86.228 112.035  0.00  0.00    -0.368 OA
BRANCH   7   8
ATOM      8  C   LIG d   1     -26.974  87.377 112.355  0.00  0.00     0.119 C 
BRANCH   8   9
ATOM      9  C   LIG d   1     -28.446  86.954 112.179  0.00  0.00     0.028 C 
ATOM     10  C   LIG d   1     -29.212  86.928 113.512  0.00  0.00     0.006 C 
ENDBRANCH   8   9
BRANCH   8  11
ATOM     11  C   LIG d   1     -26.756  88.515 111.353  0.00  0.00     0.028 C 
ATOM     12  C   LIG d   1     -27.356  89.848 111.827  0.00  0.00     0.006 C 
ENDBRANCH   8  11
ENDBRANCH   7   8
ENDBRANCH   1   7
BRANCH   6  13
ATOM     13  N   LIG d   1     -26.210  83.338 112.885  0.00  0.00    -0.311 N 
ATOM     14  C   LIG d   1     -26.631  82.551 111.896  0.00  0.00     0.210 C 
ATOM     15  C   LIG d   1     -27.909  81.762 112.197  0.00  0.00     0.109 C 
ATOM     16  O   LIG d   1     -26.050  82.408 110.810  0.00  0.00    -0.276 OA
ATOM     17  H   LIG d   1     -26.724  83.368 113.744  0.00  0.00     0.149 HD
ENDBRANCH   6  13
BRANCH   5  18
ATOM     18  N   LIG d   1     -23.342  82.378 113.318  0.00  0.00     0.381 N 
ATOM     19  H   LIG d   1     -23.386  81.761 114.105  0.00  0.00    -0.090 HD
ATOM     20  H   LIG d   1     -22.381  82.467 113.040  0.00  0.00    -0.090 HD
ATOM     21  H   LIG d   1     -23.880  82.008 112.566  0.00  0.00    -0.090 HD
ENDBRANCH   5  18
BRANCH   3  22
ATOM     22  C   LIG d   1     -22.147  86.893 114.377  0.00  0.00     0.382 C 
ATOM     23  O   LIG d   1     -20.930  86.778 114.094  0.00  0.00    -0.241 OA
ATOM     24  O   LIG d   1     -22.507  87.762 115.195  0.00  0.00    -0.241 OA
ENDBRANCH   3  22
TORSDOF 7
ENDMDL
MODEL 6
REMARK VINA RESULT:      -5.5     10.368     12.769
REMARK  7 active torsions:
REMARK  status: ('A' for Active; 'I' for Inactive)
REMARK    1  A    between atoms: C_2  and  C_3 
REMARK    2  A    between atoms: C_3  and  O_6 
REMARK    3  A    between atoms: C_3  and  C_4 
REMARK    4  A    between atoms: C_7  and  O_6 
REMARK    5  A    between atoms: C_9  and  C_10 
REMARK    6  A    between atoms: N_15  and  C_14 
REMARK    7  A    between atoms: N_20  and  C_19 
REMARK       I    between atoms: C_22  and  N_20 
ROOT
ATOM      1  C   LIG d   1      -6.146  77.863 117.147  0.00  0.00     0.161 C 
ATOM      2  C   LIG d   1      -7.524  77.714 117.374  0.00  0.00     0.016 C 
ATOM      3  C   LIG d   1      -8.336  78.730 117.930  0.00  0.00     0.038 C 
ATOM      4  C   LIG d   1      -7.849  80.026 118.157  0.00  0.00     0.028 C 
ATOM      5  C   LIG d   1      -6.347  80.072 118.414  0.00  0.00    -0.047 C 
ATOM      6  C   LIG d   1      -5.620  79.307 117.285  0.00  0.00     0.091 C 
ENDROOT
BRANCH   1   7
ATOM      7  O   LIG d   1      -5.804  77.327 115.853  0.00  0.00    -0.368 OA
BRANCH   7   8
ATOM      8  C   LIG d   1      -4.977  76.137 115.855  0.00  0.00     0.119 C 
BRANCH   8   9
ATOM      9  C   LIG d   1      -5.829  74.980 115.298  0.00  0.00     0.028 C 
ATOM     10  C   LIG d   1      -6.563  74.206 116.406  0.00  0.00     0.006 C 
ENDBRANCH   8   9
BRANCH   8  11
ATOM     11  C   LIG d   1      -4.606  75.718 117.281  0.00  0.00     0.028 C 
ATOM     12  C   LIG d   1      -3.097  75.489 117.462  0.00  0.00     0.006 C 
ENDBRANCH   8  11
ENDBRANCH   7   8
ENDBRANCH   1   7
BRANCH   6  13
ATOM     13  N   LIG d   1      -4.152  79.232 117.504  0.00  0.00    -0.311 N 
ATOM     14  C   LIG d   1      -3.256  79.423 116.538  0.00  0.00     0.210 C 
ATOM     15  C   LIG d   1      -1.794  79.280 116.974  0.00  0.00     0.109 C 
ATOM     16  O   LIG d   1      -3.531  79.729 115.368  0.00  0.00    -0.276 OA
ATOM     17  H   LIG d   1      -3.840  79.019 118.431  0.00  0.00     0.149 HD
ENDBRANCH   6  13
BRANCH   5  18
ATOM     18  N   LIG d   1      -5.953  81.491 118.498  0.00  0.00     0.381 N 
ATOM     19  H   LIG d   1      -5.400  81.642 119.318  0.00  0.00    -0.090 HD
ATOM     20  H   LIG d   1      -6.781  82.055 118.567  0.00  0.00    -0.090 HD
ATOM     21  H   LIG d   1      -5.434  81.749 117.687  0.00  0.00    -0.090 HD
ENDBRANCH   5  18
BRANCH   3  22
ATOM     22  C   LIG d   1      -9.640  78.441 118.301  0.00  0.00     0.382 C 
ATOM     23  O   LIG d   1     -10.227  77.447 117.810  0.00  0.00    -0.241 OA
ATOM     24  O   LIG d   1     -10.253  79.188 119.087  0.00  0.00    -0.241 OA
ENDBRANCH   3  22
TORSDOF 7
ENDMDL
MODEL 7
REMARK VINA RESULT:      -5.4      3.591      5.643
REMARK  7 active torsions:
REMARK  status: ('A' for Active; 'I' for Inactive)
REMARK    1  A    between atoms: C_2  and  C_3 
REMARK    2  A    between atoms: C_3  and  O_6 
REMARK    3  A    between atoms: C_3  and  C_4 
REMARK    4  A    between atoms: C_7  and  O_6 
REMARK    5  A    between atoms: C_9  and  C_10 
REMARK    6  A    between atoms: N_15  and  C_14 
REMARK    7  A    between atoms: N_20  and  C_19 
REMARK       I    between atoms: C_22  and  N_20 
ROOT
ATOM      1  C   LIG d   1       3.039  88.281 115.048  0.00  0.00     0.161 C 
ATOM      2  C   LIG d   1       2.328  87.766 113.952  0.00  0.00     0.016 C 
ATOM      3  C   LIG d   1       2.778  87.868 112.615  0.00  0.00     0.038 C 
ATOM      4  C   LIG d   1       4.051  88.362 112.297  0.00  0.00     0.028 C 
ATOM      5  C   LIG d   1       4.589  89.354 113.324  0.00  0.00    -0.047 C 
ATOM      6  C   LIG d   1       4.482  88.725 114.732  0.00  0.00     0.091 C 
ENDROOT
BRANCH   1   7
ATOM      7  O   LIG d   1       3.034  87.325 116.127  0.00  0.00    -0.368 OA
BRANCH   7   8
ATOM      8  C   LIG d   1       3.871  86.156 115.946  0.00  0.00     0.119 C 
BRANCH   8   9
ATOM      9  C   LIG d   1       2.939  84.956 115.684  0.00  0.00     0.028 C 
ATOM     10  C   LIG d   1       3.251  84.251 114.353  0.00  0.00     0.006 C 
ENDBRANCH   8   9
BRANCH   8  11
ATOM     11  C   LIG d   1       4.628  85.808 117.231  0.00  0.00     0.028 C 
ATOM     12  C   LIG d   1       5.886  84.965 116.972  0.00  0.00     0.006 C 
ENDBRANCH   8  11
ENDBRANCH   7   8
ENDBRANCH   1   7
BRANCH   6  13
ATOM     13  N   LIG d   1       4.910  89.662 115.804  0.00  0.00    -0.311 N 
ATOM     14  C   LIG d   1       5.928  89.418 116.627  0.00  0.00     0.210 C 
ATOM     15  C   LIG d   1       6.188  90.506 117.674  0.00  0.00     0.109 C 
ATOM     16  O   LIG d   1       6.661  88.419 116.569  0.00  0.00    -0.276 OA
ATOM     17  H   LIG d   1       4.389  90.511 115.902  0.00  0.00     0.149 HD
ENDBRANCH   6  13
BRANCH   5  18
ATOM     18  N   LIG d   1       5.976  89.682 112.941  0.00  0.00     0.381 N 
ATOM     19  H   LIG d   1       6.002  90.581 112.501  0.00  0.00    -0.090 HD
ATOM     20  H   LIG d   1       6.302  88.998 112.281  0.00  0.00    -0.090 HD
ATOM     21  H   LIG d   1       6.561  89.682 113.747  0.00  0.00    -0.090 HD
ENDBRANCH   5  18
BRANCH   3  22
ATOM     22  C   LIG d   1       1.932  87.508 111.577  0.00  0.00     0.382 C 
ATOM     23  O   LIG d   1       0.699  87.722 111.669  0.00  0.00    -0.241 OA
ATOM     24  O   LIG d   1       2.381  86.932 110.567  0.00  0.00    -0.241 OA
ENDBRANCH   3  22
TORSDOF 7
ENDMDL
MODEL 8
REMARK VINA RESULT:      -5.1     10.656     12.749
REMARK  7 active torsions:
REMARK  status: ('A' for Active; 'I' for Inactive)
REMARK    1  A    between atoms: C_2  and  C_3 
REMARK    2  A    between atoms: C_3  and  O_6 
REMARK    3  A    between atoms: C_3  and  C_4 
REMARK    4  A    between atoms: C_7  and  O_6 
REMARK    5  A    between atoms: C_9  and  C_10 
REMARK    6  A    between atoms: N_15  and  C_14 
REMARK    7  A    between atoms: N_20  and  C_19 
REMARK       I    between atoms: C_22  and  N_20 
ROOT
ATOM      1  C   LIG d   1      11.484  76.046 114.375  0.00  0.00     0.161 C 
ATOM      2  C   LIG d   1      10.199  76.590 114.534  0.00  0.00     0.016 C 
ATOM      3  C   LIG d   1       9.880  77.935 114.235  0.00  0.00     0.038 C 
ATOM      4  C   LIG d   1      10.797  78.793 113.611  0.00  0.00     0.028 C 
ATOM      5  C   LIG d   1      12.252  78.436 113.896  0.00  0.00    -0.047 C 
ATOM      6  C   LIG d   1      12.470  76.936 113.590  0.00  0.00     0.091 C 
ENDROOT
BRANCH   1   7
ATOM      7  O   LIG d   1      11.392  74.743 113.767  0.00  0.00    -0.368 OA
BRANCH   7   8
ATOM      8  C   LIG d   1      11.207  73.628 114.673  0.00  0.00     0.119 C 
BRANCH   8   9
ATOM      9  C   LIG d   1      12.385  73.639 115.666  0.00  0.00     0.028 C 
ATOM     10  C   LIG d   1      11.940  73.343 117.108  0.00  0.00     0.006 C 
ENDBRANCH   8   9
BRANCH   8  11
ATOM     11  C   LIG d   1      11.310  72.289 113.937  0.00  0.00     0.028 C 
ATOM     12  C   LIG d   1      10.171  71.322 114.296  0.00  0.00     0.006 C 
ENDBRANCH   8  11
ENDBRANCH   7   8
ENDBRANCH   1   7
BRANCH   6  13
ATOM     13  N   LIG d   1      13.847  76.484 113.923  0.00  0.00    -0.311 N 
ATOM     14  C   LIG d   1      14.852  76.493 113.050  0.00  0.00     0.210 C 
ATOM     15  C   LIG d   1      16.185  75.967 113.592  0.00  0.00     0.109 C 
ATOM     16  O   LIG d   1      14.775  76.917 111.887  0.00  0.00    -0.276 OA
ATOM     17  H   LIG d   1      14.006  76.153 114.855  0.00  0.00     0.149 HD
ENDBRANCH   6  13
BRANCH   5  18
ATOM     18  N   LIG d   1      13.098  79.322 113.075  0.00  0.00     0.381 N 
ATOM     19  H   LIG d   1      12.527  79.841 112.439  0.00  0.00    -0.090 HD
ATOM     20  H   LIG d   1      13.735  78.759 112.540  0.00  0.00    -0.090 HD
ATOM     21  H   LIG d   1      13.607  79.947 113.661  0.00  0.00    -0.090 HD
ENDBRANCH   5  18
BRANCH   3  22
ATOM     22  C   LIG d   1       8.643  78.445 114.599  0.00  0.00     0.382 C 
ATOM     23  O   LIG d   1       8.545  79.636 114.982  0.00  0.00    -0.241 OA
ATOM     24  O   LIG d   1       7.633  77.717 114.592  0.00  0.00    -0.241 OA
ENDBRANCH   3  22
TORSDOF 7
ENDMDL
MODEL 9
REMARK VINA RESULT:      -5.1      9.766     11.549
REMARK  7 active torsions:
REMARK  status: ('A' for Active; 'I' for Inactive)
REMARK    1  A    between atoms: C_2  and  C_3 
REMARK    2  A    between atoms: C_3  and  O_6 
REMARK    3  A    between atoms: C_3  and  C_4 
REMARK    4  A    between atoms: C_7  and  O_6 
REMARK    5  A    between atoms: C_9  and  C_10 
REMARK    6  A    between atoms: N_15  and  C_14 
REMARK    7  A    between atoms: N_20  and  C_19 
REMARK       I    between atoms: C_22  and  N_20 
ROOT
ATOM      1  C   LIG d   1      12.012  78.669 114.106  0.00  0.00     0.161 C 
ATOM      2  C   LIG d   1      10.673  78.274 113.949  0.00  0.00     0.016 C 
ATOM      3  C   LIG d   1       9.597  78.882 114.636  0.00  0.00     0.038 C 
ATOM      4  C   LIG d   1       9.772  80.033 115.417  0.00  0.00     0.028 C 
ATOM      5  C   LIG d   1      11.174  80.160 116.004  0.00  0.00    -0.047 C 
ATOM      6  C   LIG d   1      12.210  79.996 114.869  0.00  0.00     0.091 C 
ENDROOT
BRANCH   1   7
ATOM      7  O   LIG d   1      12.657  78.731 112.819  0.00  0.00    -0.368 OA
BRANCH   7   8
ATOM      8  C   LIG d   1      13.925  78.037 112.707  0.00  0.00     0.119 C 
BRANCH   8   9
ATOM      9  C   LIG d   1      14.024  77.483 111.273  0.00  0.00     0.028 C 
ATOM     10  C   LIG d   1      15.468  77.478 110.744  0.00  0.00     0.006 C 
ENDBRANCH   8   9
BRANCH   8  11
ATOM     11  C   LIG d   1      13.970  76.809 113.621  0.00  0.00     0.028 C 
ATOM     12  C   LIG d   1      15.203  76.794 114.538  0.00  0.00     0.006 C 
ENDBRANCH   8  11
ENDBRANCH   7   8
ENDBRANCH   1   7
BRANCH   6  13
ATOM     13  N   LIG d   1      13.609  80.023 115.370  0.00  0.00    -0.311 N 
ATOM     14  C   LIG d   1      14.554  80.813 114.863  0.00  0.00     0.210 C 
ATOM     15  C   LIG d   1      15.934  80.669 115.513  0.00  0.00     0.109 C 
ATOM     16  O   LIG d   1      14.373  81.642 113.959  0.00  0.00    -0.276 OA
ATOM     17  H   LIG d   1      13.835  79.404 116.123  0.00  0.00     0.149 HD
ENDBRANCH   6  13
BRANCH   5  18
ATOM     18  N   LIG d   1      11.257  81.470 116.678  0.00  0.00     0.381 N 
ATOM     19  H   LIG d   1      10.371  81.932 116.632  0.00  0.00    -0.090 HD
ATOM     20  H   LIG d   1      11.935  82.038 116.201  0.00  0.00    -0.090 HD
ATOM     21  H   LIG d   1      11.527  81.347 117.630  0.00  0.00    -0.090 HD
ENDBRANCH   5  18
BRANCH   3  22
ATOM     22  C   LIG d   1       8.334  78.312 114.576  0.00  0.00     0.382 C 
ATOM     23  O   LIG d   1       8.208  77.097 114.289  0.00  0.00    -0.241 OA
ATOM     24  O   LIG d   1       7.318  79.007 114.761  0.00  0.00    -0.241 OA
ENDBRANCH   3  22
TORSDOF 7
ENDMDL
