MODEL 1
REMARK VINA RESULT:      -5.8      0.000      0.000
REMARK  7 active torsions:
REMARK  status: ('A' for Active; 'I' for Inactive)
REMARK    1  A    between atoms: C_2  and  C_3 
REMARK    2  A    between atoms: C_3  and  O_6 
REMARK    3  A    between atoms: C_3  and  C_4 
REMARK    4  A    between atoms: C_7  and  O_6 
REMARK    5  A    between atoms: C_9  and  C_10 
REMARK    6  A    between atoms: N_15  and  C_14 
REMARK    7  A    between atoms: N_20  and  C_19 
REMARK       I    between atoms: C_22  and  N_20 
ROOT
ATOM      1  C   LIG d   1       2.516  86.412 112.236  0.00  0.00     0.161 C 
ATOM      2  C   LIG d   1       3.074  87.687 112.425  0.00  0.00     0.016 C 
ATOM      3  C   LIG d   1       3.643  88.115 113.647  0.00  0.00     0.038 C 
ATOM      4  C   LIG d   1       3.830  87.237 114.725  0.00  0.00     0.028 C 
ATOM      5  C   LIG d   1       2.827  86.089 114.752  0.00  0.00    -0.047 C 
ATOM      6  C   LIG d   1       2.811  85.404 113.367  0.00  0.00     0.091 C 
ENDROOT
BRANCH   1   7
ATOM      7  O   LIG d   1       2.937  85.877 110.966  0.00  0.00    -0.368 OA
BRANCH   7   8
ATOM      8  C   LIG d   1       1.943  85.880 109.912  0.00  0.00     0.119 C 
BRANCH   8   9
ATOM      9  C   LIG d   1       0.591  86.249 110.553  0.00  0.00     0.028 C 
ATOM     10  C   LIG d   1      -0.606  85.743 109.729  0.00  0.00     0.006 C 
ENDBRANCH   8   9
BRANCH   8  11
ATOM     11  C   LIG d   1       1.746  84.479 109.327  0.00  0.00     0.028 C 
ATOM     12  C   LIG d   1       2.975  83.576 109.518  0.00  0.00     0.006 C 
ENDBRANCH   8  11
ENDBRANCH   7   8
ENDBRANCH   1   7
BRANCH   6  13
ATOM     13  N   LIG d   1       1.795  84.322 113.281  0.00  0.00    -0.311 N 
ATOM     14  C   LIG d   1       2.088  83.066 112.949  0.00  0.00     0.210 C 
ATOM     15  C   LIG d   1       0.889  82.114 112.901  0.00  0.00     0.109 C 
ATOM     16  O   LIG d   1       3.231  82.643 112.722  0.00  0.00    -0.276 OA
ATOM     17  H   LIG d   1       0.846  84.571 113.480  0.00  0.00     0.149 HD
ENDBRANCH   6  13
BRANCH   5  18
ATOM     18  N   LIG d   1       3.222  85.178 115.843  0.00  0.00     0.381 N 
ATOM     19  H   LIG d   1       4.215  85.197 115.958  0.00  0.00    -0.090 HD
ATOM     20  H   LIG d   1       2.950  84.242 115.600  0.00  0.00    -0.090 HD
ATOM     21  H   LIG d   1       2.777  85.451 116.692  0.00  0.00    -0.090 HD
ENDBRANCH   5  18
BRANCH   3  22
ATOM     22  C   LIG d   1       3.996  89.446 113.812  0.00  0.00     0.382 C 
ATOM     23  O   LIG d   1       4.092  89.930 114.965  0.00  0.00    -0.241 OA
ATOM     24  O   LIG d   1       4.177  90.179 112.821  0.00  0.00    -0.241 OA
ENDBRANCH   3  22
TORSDOF 7
ENDMDL
MODEL 2
REMARK VINA RESULT:      -5.7      2.397      4.322
REMARK  7 active torsions:
REMARK  status: ('A' for Active; 'I' for Inactive)
REMARK    1  A    between atoms: C_2  and  C_3 
REMARK    2  A    between atoms: C_3  and  O_6 
REMARK    3  A    between atoms: C_3  and  C_4 
REMARK    4  A    between atoms: C_7  and  O_6 
REMARK    5  A    between atoms: C_9  and  C_10 
REMARK    6  A    between atoms: N_15  and  C_14 
REMARK    7  A    between atoms: N_20  and  C_19 
REMARK       I    between atoms: C_22  and  N_20 
ROOT
ATOM      1  C   LIG d   1       3.062  84.054 111.637  0.00  0.00     0.161 C 
ATOM      2  C   LIG d   1       3.376  85.346 112.091  0.00  0.00     0.016 C 
ATOM      3  C   LIG d   1       2.603  86.489 111.780  0.00  0.00     0.038 C 
ATOM      4  C   LIG d   1       1.372  86.393 111.115  0.00  0.00     0.028 C 
ATOM      5  C   LIG d   1       1.270  85.176 110.202  0.00  0.00    -0.047 C 
ATOM      6  C   LIG d   1       1.663  83.913 111.003  0.00  0.00     0.091 C 
ENDROOT
BRANCH   1   7
ATOM      7  O   LIG d   1       3.223  83.106 112.711  0.00  0.00    -0.368 OA
BRANCH   7   8
ATOM      8  C   LIG d   1       2.135  83.033 113.664  0.00  0.00     0.119 C 
BRANCH   8   9
ATOM      9  C   LIG d   1       2.648  83.612 114.997  0.00  0.00     0.028 C 
ATOM     10  C   LIG d   1       1.777  84.772 115.507  0.00  0.00     0.006 C 
ENDBRANCH   8   9
BRANCH   8  11
ATOM     11  C   LIG d   1       1.761  81.580 113.972  0.00  0.00     0.028 C 
ATOM     12  C   LIG d   1       2.430  81.049 115.250  0.00  0.00     0.006 C 
ENDBRANCH   8  11
ENDBRANCH   7   8
ENDBRANCH   1   7
BRANCH   6  13
ATOM     13  N   LIG d   1       1.671  82.688 110.161  0.00  0.00    -0.311 N 
ATOM     14  C   LIG d   1       0.752  81.729 110.254  0.00  0.00     0.210 C 
ATOM     15  C   LIG d   1       0.958  80.542 109.308  0.00  0.00     0.109 C 
ATOM     16  O   LIG d   1      -0.233  81.763 111.007  0.00  0.00    -0.276 OA
ATOM     17  H   LIG d   1       2.418  82.593 109.501  0.00  0.00     0.149 HD
ENDBRANCH   6  13
BRANCH   5  18
ATOM     18  N   LIG d   1      -0.108  85.124 109.680  0.00  0.00     0.381 N 
ATOM     19  H   LIG d   1      -0.101  85.257 108.688  0.00  0.00    -0.090 HD
ATOM     20  H   LIG d   1      -0.641  85.870 110.093  0.00  0.00    -0.090 HD
ATOM     21  H   LIG d   1      -0.524  84.247 109.902  0.00  0.00    -0.090 HD
ENDBRANCH   5  18
BRANCH   3  22
ATOM     22  C   LIG d   1       3.082  87.750 112.102  0.00  0.00     0.382 C 
ATOM     23  O   LIG d   1       2.300  88.731 112.120  0.00  0.00    -0.241 OA
ATOM     24  O   LIG d   1       4.293  87.926 112.331  0.00  0.00    -0.241 OA
ENDBRANCH   3  22
TORSDOF 7
ENDMDL
MODEL 3
REMARK VINA RESULT:      -5.6      1.929      2.496
REMARK  7 active torsions:
REMARK  status: ('A' for Active; 'I' for Inactive)
REMARK    1  A    between atoms: C_2  and  C_3 
REMARK    2  A    between atoms: C_3  and  O_6 
REMARK    3  A    between atoms: C_3  and  C_4 
REMARK    4  A    between atoms: C_7  and  O_6 
REMARK    5  A    between atoms: C_9  and  C_10 
REMARK    6  A    between atoms: N_15  and  C_14 
REMARK    7  A    between atoms: N_20  and  C_19 
REMARK       I    between atoms: C_22  and  N_20 
ROOT
ATOM      1  C   LIG d   1       3.038  84.682 112.879  0.00  0.00     0.161 C 
ATOM      2  C   LIG d   1       3.092  85.995 112.384  0.00  0.00     0.016 C 
ATOM      3  C   LIG d   1       3.265  87.131 113.208  0.00  0.00     0.038 C 
ATOM      4  C   LIG d   1       3.550  87.018 114.577  0.00  0.00     0.028 C 
ATOM      5  C   LIG d   1       3.004  85.740 115.205  0.00  0.00    -0.047 C 
ATOM      6  C   LIG d   1       3.457  84.530 114.357  0.00  0.00     0.091 C 
ENDROOT
BRANCH   1   7
ATOM      7  O   LIG d   1       3.825  83.811 112.043  0.00  0.00    -0.368 OA
BRANCH   7   8
ATOM      8  C   LIG d   1       3.386  83.679 110.669  0.00  0.00     0.119 C 
BRANCH   8   9
ATOM      9  C   LIG d   1       2.107  82.820 110.672  0.00  0.00     0.028 C 
ATOM     10  C   LIG d   1       0.932  83.514 109.962  0.00  0.00     0.006 C 
ENDBRANCH   8   9
BRANCH   8  11
ATOM     11  C   LIG d   1       4.400  82.893 109.833  0.00  0.00     0.028 C 
ATOM     12  C   LIG d   1       4.033  81.408 109.692  0.00  0.00     0.006 C 
ENDBRANCH   8  11
ENDBRANCH   7   8
ENDBRANCH   1   7
BRANCH   6  13
ATOM     13  N   LIG d   1       2.896  83.247 114.854  0.00  0.00    -0.311 N 
ATOM     14  C   LIG d   1       3.533  82.452 115.712  0.00  0.00     0.210 C 
ATOM     15  C   LIG d   1       2.786  81.166 116.080  0.00  0.00     0.109 C 
ATOM     16  O   LIG d   1       4.633  82.704 116.228  0.00  0.00    -0.276 OA
ATOM     17  H   LIG d   1       1.994  82.980 114.511  0.00  0.00     0.149 HD
ENDBRANCH   6  13
BRANCH   5  18
ATOM     18  N   LIG d   1       3.489  85.685 116.597  0.00  0.00     0.381 N 
ATOM     19  H   LIG d   1       3.177  84.840 117.031  0.00  0.00    -0.090 HD
ATOM     20  H   LIG d   1       3.106  86.462 117.106  0.00  0.00    -0.090 HD
ATOM     21  H   LIG d   1       4.485  85.726 116.612  0.00  0.00    -0.090 HD
ENDBRANCH   5  18
BRANCH   3  22
ATOM     22  C   LIG d   1       3.115  88.400 112.669  0.00  0.00     0.382 C 
ATOM     23  O   LIG d   1       2.104  88.671 111.976  0.00  0.00    -0.241 OA
ATOM     24  O   LIG d   1       3.998  89.263 112.830  0.00  0.00    -0.241 OA
ENDBRANCH   3  22
TORSDOF 7
ENDMDL
MODEL 4
REMARK VINA RESULT:      -5.6      2.621      4.900
REMARK  7 active torsions:
REMARK  status: ('A' for Active; 'I' for Inactive)
REMARK    1  A    between atoms: C_2  and  C_3 
REMARK    2  A    between atoms: C_3  and  O_6 
REMARK    3  A    between atoms: C_3  and  C_4 
REMARK    4  A    between atoms: C_7  and  O_6 
REMARK    5  A    between atoms: C_9  and  C_10 
REMARK    6  A    between atoms: N_15  and  C_14 
REMARK    7  A    between atoms: N_20  and  C_19 
REMARK       I    between atoms: C_22  and  N_20 
ROOT
ATOM      1  C   LIG d   1       1.528  84.310 112.858  0.00  0.00     0.161 C 
ATOM      2  C   LIG d   1       2.032  85.621 112.876  0.00  0.00     0.016 C 
ATOM      3  C   LIG d   1       1.821  86.551 111.832  0.00  0.00     0.038 C 
ATOM      4  C   LIG d   1       0.959  86.278 110.760  0.00  0.00     0.028 C 
ATOM      5  C   LIG d   1       0.833  84.791 110.447  0.00  0.00    -0.047 C 
ATOM      6  C   LIG d   1       0.492  84.031 111.749  0.00  0.00     0.091 C 
ENDROOT
BRANCH   1   7
ATOM      7  O   LIG d   1       0.981  83.979 114.150  0.00  0.00    -0.368 OA
BRANCH   7   8
ATOM      8  C   LIG d   1       1.942  83.756 115.211  0.00  0.00     0.119 C 
BRANCH   8   9
ATOM      9  C   LIG d   1       1.786  82.295 115.676  0.00  0.00     0.028 C 
ATOM     10  C   LIG d   1       2.329  81.290 114.647  0.00  0.00     0.006 C 
ENDBRANCH   8   9
BRANCH   8  11
ATOM     11  C   LIG d   1       1.623  84.610 116.441  0.00  0.00     0.028 C 
ATOM     12  C   LIG d   1       1.108  83.778 117.627  0.00  0.00     0.006 C 
ENDBRANCH   8  11
ENDBRANCH   7   8
ENDBRANCH   1   7
BRANCH   6  13
ATOM     13  N   LIG d   1       0.434  82.560 111.548  0.00  0.00    -0.311 N 
ATOM     14  C   LIG d   1      -0.629  81.819 111.855  0.00  0.00     0.210 C 
ATOM     15  C   LIG d   1      -0.472  80.319 111.587  0.00  0.00     0.109 C 
ATOM     16  O   LIG d   1      -1.700  82.267 112.293  0.00  0.00    -0.276 OA
ATOM     17  H   LIG d   1       1.249  82.119 111.167  0.00  0.00     0.149 HD
ENDBRANCH   6  13
BRANCH   5  18
ATOM     18  N   LIG d   1      -0.199  84.641 109.403  0.00  0.00     0.381 N 
ATOM     19  H   LIG d   1       0.065  83.915 108.767  0.00  0.00    -0.090 HD
ATOM     20  H   LIG d   1      -0.268  85.501 108.889  0.00  0.00    -0.090 HD
ATOM     21  H   LIG d   1      -1.077  84.423 109.821  0.00  0.00    -0.090 HD
ENDBRANCH   5  18
BRANCH   3  22
ATOM     22  C   LIG d   1       2.509  87.755 111.834  0.00  0.00     0.382 C 
ATOM     23  O   LIG d   1       3.761  87.762 111.744  0.00  0.00    -0.241 OA
ATOM     24  O   LIG d   1       1.898  88.831 111.969  0.00  0.00    -0.241 OA
ENDBRANCH   3  22
TORSDOF 7
ENDMDL
MODEL 5
REMARK VINA RESULT:      -5.5      9.024     11.730
REMARK  7 active torsions:
REMARK  status: ('A' for Active; 'I' for Inactive)
REMARK    1  A    between atoms: C_2  and  C_3 
REMARK    2  A    between atoms: C_3  and  O_6 
REMARK    3  A    between atoms: C_3  and  C_4 
REMARK    4  A    between atoms: C_7  and  O_6 
REMARK    5  A    between atoms: C_9  and  C_10 
REMARK    6  A    between atoms: N_15  and  C_14 
REMARK    7  A    between atoms: N_20  and  C_19 
REMARK       I    between atoms: C_22  and  N_20 
ROOT
ATOM      1  C   LIG d   1      -3.215  77.218 115.994  0.00  0.00     0.161 C 
ATOM      2  C   LIG d   1      -3.353  78.091 114.903  0.00  0.00     0.016 C 
ATOM      3  C   LIG d   1      -2.359  78.260 113.911  0.00  0.00     0.038 C 
ATOM      4  C   LIG d   1      -1.215  77.450 113.862  0.00  0.00     0.028 C 
ATOM      5  C   LIG d   1      -0.798  76.908 115.225  0.00  0.00    -0.047 C 
ATOM      6  C   LIG d   1      -2.022  76.244 115.897  0.00  0.00     0.091 C 
ENDROOT
BRANCH   1   7
ATOM      7  O   LIG d   1      -4.442  76.488 116.195  0.00  0.00    -0.368 OA
BRANCH   7   8
ATOM      8  C   LIG d   1      -5.206  76.187 115.001  0.00  0.00     0.119 C 
BRANCH   8   9
ATOM      9  C   LIG d   1      -6.676  76.548 115.290  0.00  0.00     0.028 C 
ATOM     10  C   LIG d   1      -6.826  77.459 116.520  0.00  0.00     0.006 C 
ENDBRANCH   8   9
BRANCH   8  11
ATOM     11  C   LIG d   1      -5.208  74.684 114.705  0.00  0.00     0.028 C 
ATOM     12  C   LIG d   1      -5.852  73.856 115.828  0.00  0.00     0.006 C 
ENDBRANCH   8  11
ENDBRANCH   7   8
ENDBRANCH   1   7
BRANCH   6  13
ATOM     13  N   LIG d   1      -1.722  75.761 117.270  0.00  0.00    -0.311 N 
ATOM     14  C   LIG d   1      -1.152  74.585 117.526  0.00  0.00     0.210 C 
ATOM     15  C   LIG d   1      -0.950  74.273 119.012  0.00  0.00     0.109 C 
ATOM     16  O   LIG d   1      -0.765  73.784 116.661  0.00  0.00    -0.276 OA
ATOM     17  H   LIG d   1      -1.974  76.362 118.030  0.00  0.00     0.149 HD
ENDBRANCH   6  13
BRANCH   5  18
ATOM     18  N   LIG d   1       0.321  75.972 115.009  0.00  0.00     0.381 N 
ATOM     19  H   LIG d   1       0.162  75.439 114.177  0.00  0.00    -0.090 HD
ATOM     20  H   LIG d   1       0.369  75.336 115.786  0.00  0.00    -0.090 HD
ATOM     21  H   LIG d   1       1.177  76.476 114.930  0.00  0.00    -0.090 HD
ENDBRANCH   5  18
BRANCH   3  22
ATOM     22  C   LIG d   1      -2.487  79.277 112.977  0.00  0.00     0.382 C 
ATOM     23  O   LIG d   1      -2.955  80.389 113.321  0.00  0.00    -0.241 OA
ATOM     24  O   LIG d   1      -2.181  79.082 111.786  0.00  0.00    -0.241 OA
ENDBRANCH   3  22
TORSDOF 7
ENDMDL
MODEL 6
REMARK VINA RESULT:      -5.4      2.304      4.191
REMARK  7 active torsions:
REMARK  status: ('A' for Active; 'I' for Inactive)
REMARK    1  A    between atoms: C_2  and  C_3 
REMARK    2  A    between atoms: C_3  and  O_6 
REMARK    3  A    between atoms: C_3  and  C_4 
REMARK    4  A    between atoms: C_7  and  O_6 
REMARK    5  A    between atoms: C_9  and  C_10 
REMARK    6  A    between atoms: N_15  and  C_14 
REMARK    7  A    between atoms: N_20  and  C_19 
REMARK       I    between atoms: C_22  and  N_20 
ROOT
ATOM      1  C   LIG d   1       2.314  85.561 113.707  0.00  0.00     0.161 C 
ATOM      2  C   LIG d   1       2.976  86.774 113.960  0.00  0.00     0.016 C 
ATOM      3  C   LIG d   1       3.170  87.774 112.980  0.00  0.00     0.038 C 
ATOM      4  C   LIG d   1       2.578  87.693 111.711  0.00  0.00     0.028 C 
ATOM      5  C   LIG d   1       2.327  86.262 111.250  0.00  0.00    -0.047 C 
ATOM      6  C   LIG d   1       1.564  85.503 112.360  0.00  0.00     0.091 C 
ENDROOT
BRANCH   1   7
ATOM      7  O   LIG d   1       1.416  85.259 114.793  0.00  0.00    -0.368 OA
BRANCH   7   8
ATOM      8  C   LIG d   1       1.688  84.037 115.523  0.00  0.00     0.119 C 
BRANCH   8   9
ATOM      9  C   LIG d   1       1.790  84.403 117.017  0.00  0.00     0.028 C 
ATOM     10  C   LIG d   1       1.233  85.805 117.317  0.00  0.00     0.006 C 
ENDBRANCH   8   9
BRANCH   8  11
ATOM     11  C   LIG d   1       3.056  83.459 115.152  0.00  0.00     0.028 C 
ATOM     12  C   LIG d   1       4.046  83.469 116.328  0.00  0.00     0.006 C 
ENDBRANCH   8  11
ENDBRANCH   7   8
ENDBRANCH   1   7
BRANCH   6  13
ATOM     13  N   LIG d   1       1.351  84.071 112.024  0.00  0.00    -0.311 N 
ATOM     14  C   LIG d   1       0.177  83.455 112.151  0.00  0.00     0.210 C 
ATOM     15  C   LIG d   1       0.181  81.971 111.769  0.00  0.00     0.109 C 
ATOM     16  O   LIG d   1      -0.874  84.004 112.512  0.00  0.00    -0.276 OA
ATOM     17  H   LIG d   1       2.145  83.557 111.694  0.00  0.00     0.149 HD
ENDBRANCH   6  13
BRANCH   5  18
ATOM     18  N   LIG d   1       1.582  86.328 109.978  0.00  0.00     0.381 N 
ATOM     19  H   LIG d   1       1.664  87.244 109.585  0.00  0.00    -0.090 HD
ATOM     20  H   LIG d   1       0.611  86.148 110.160  0.00  0.00    -0.090 HD
ATOM     21  H   LIG d   1       1.939  85.651 109.339  0.00  0.00    -0.090 HD
ENDBRANCH   5  18
BRANCH   3  22
ATOM     22  C   LIG d   1       3.998  88.852 113.253  0.00  0.00     0.382 C 
ATOM     23  O   LIG d   1       5.202  88.823 112.902  0.00  0.00    -0.241 OA
ATOM     24  O   LIG d   1       3.567  89.835 113.885  0.00  0.00    -0.241 OA
ENDBRANCH   3  22
TORSDOF 7
ENDMDL
MODEL 7
REMARK VINA RESULT:      -5.2      9.463     12.922
REMARK  7 active torsions:
REMARK  status: ('A' for Active; 'I' for Inactive)
REMARK    1  A    between atoms: C_2  and  C_3 
REMARK    2  A    between atoms: C_3  and  O_6 
REMARK    3  A    between atoms: C_3  and  C_4 
REMARK    4  A    between atoms: C_7  and  O_6 
REMARK    5  A    between atoms: C_9  and  C_10 
REMARK    6  A    between atoms: N_15  and  C_14 
REMARK    7  A    between atoms: N_20  and  C_19 
REMARK       I    between atoms: C_22  and  N_20 
ROOT
ATOM      1  C   LIG d   1      -2.752  75.258 116.024  0.00  0.00     0.161 C 
ATOM      2  C   LIG d   1      -2.286  74.480 117.097  0.00  0.00     0.016 C 
ATOM      3  C   LIG d   1      -1.069  74.732 117.770  0.00  0.00     0.038 C 
ATOM      4  C   LIG d   1      -0.303  75.879 117.512  0.00  0.00     0.028 C 
ATOM      5  C   LIG d   1      -0.477  76.417 116.096  0.00  0.00    -0.047 C 
ATOM      6  C   LIG d   1      -1.986  76.578 115.801  0.00  0.00     0.091 C 
ENDROOT
BRANCH   1   7
ATOM      7  O   LIG d   1      -4.161  75.517 116.184  0.00  0.00    -0.368 OA
BRANCH   7   8
ATOM      8  C   LIG d   1      -5.049  74.775 115.312  0.00  0.00     0.119 C 
BRANCH   8   9
ATOM      9  C   LIG d   1      -5.588  75.759 114.255  0.00  0.00     0.028 C 
ATOM     10  C   LIG d   1      -6.976  76.311 114.620  0.00  0.00     0.006 C 
ENDBRANCH   8   9
BRANCH   8  11
ATOM     11  C   LIG d   1      -6.284  74.277 116.069  0.00  0.00     0.028 C 
ATOM     12  C   LIG d   1      -6.402  72.744 116.071  0.00  0.00     0.006 C 
ENDBRANCH   8  11
ENDBRANCH   7   8
ENDBRANCH   1   7
BRANCH   6  13
ATOM     13  N   LIG d   1      -2.247  77.020 114.407  0.00  0.00    -0.311 N 
ATOM     14  C   LIG d   1      -2.428  78.295 114.064  0.00  0.00     0.210 C 
ATOM     15  C   LIG d   1      -2.704  78.530 112.576  0.00  0.00     0.109 C 
ATOM     16  O   LIG d   1      -2.355  79.255 114.845  0.00  0.00    -0.276 OA
ATOM     17  H   LIG d   1      -2.291  76.309 113.704  0.00  0.00     0.149 HD
ENDBRANCH   6  13
BRANCH   5  18
ATOM     18  N   LIG d   1       0.268  77.687 116.008  0.00  0.00     0.381 N 
ATOM     19  H   LIG d   1       1.231  77.532 116.232  0.00  0.00    -0.090 HD
ATOM     20  H   LIG d   1      -0.111  78.334 116.678  0.00  0.00    -0.090 HD
ATOM     21  H   LIG d   1       0.190  78.066 115.090  0.00  0.00    -0.090 HD
ENDBRANCH   5  18
BRANCH   3  22
ATOM     22  C   LIG d   1      -0.587  73.810 118.686  0.00  0.00     0.382 C 
ATOM     23  O   LIG d   1      -1.115  72.675 118.771  0.00  0.00    -0.241 OA
ATOM     24  O   LIG d   1       0.342  74.114 119.459  0.00  0.00    -0.241 OA
ENDBRANCH   3  22
TORSDOF 7
ENDMDL
MODEL 8
REMARK VINA RESULT:      -5.2      2.498      3.217
REMARK  7 active torsions:
REMARK  status: ('A' for Active; 'I' for Inactive)
REMARK    1  A    between atoms: C_2  and  C_3 
REMARK    2  A    between atoms: C_3  and  O_6 
REMARK    3  A    between atoms: C_3  and  C_4 
REMARK    4  A    between atoms: C_7  and  O_6 
REMARK    5  A    between atoms: C_9  and  C_10 
REMARK    6  A    between atoms: N_15  and  C_14 
REMARK    7  A    between atoms: N_20  and  C_19 
REMARK       I    between atoms: C_22  and  N_20 
ROOT
ATOM      1  C   LIG d   1       0.503  83.824 112.503  0.00  0.00     0.161 C 
ATOM      2  C   LIG d   1       1.195  84.939 113.003  0.00  0.00     0.016 C 
ATOM      3  C   LIG d   1       2.248  84.846 113.942  0.00  0.00     0.038 C 
ATOM      4  C   LIG d   1       2.785  83.610 114.333  0.00  0.00     0.028 C 
ATOM      5  C   LIG d   1       1.788  82.460 114.241  0.00  0.00    -0.047 C 
ATOM      6  C   LIG d   1       1.148  82.461 112.834  0.00  0.00     0.091 C 
ENDROOT
BRANCH   1   7
ATOM      7  O   LIG d   1       0.320  83.959 111.080  0.00  0.00    -0.368 OA
BRANCH   7   8
ATOM      8  C   LIG d   1       1.310  84.756 110.384  0.00  0.00     0.119 C 
BRANCH   8   9
ATOM      9  C   LIG d   1       0.571  85.572 109.305  0.00  0.00     0.028 C 
ATOM     10  C   LIG d   1      -0.815  86.046 109.774  0.00  0.00     0.006 C 
ENDBRANCH   8   9
BRANCH   8  11
ATOM     11  C   LIG d   1       2.298  83.873 109.617  0.00  0.00     0.028 C 
ATOM     12  C   LIG d   1       3.643  83.715 110.344  0.00  0.00     0.006 C 
ENDBRANCH   8  11
ENDBRANCH   7   8
ENDBRANCH   1   7
BRANCH   6  13
ATOM     13  N   LIG d   1       0.098  81.419 112.687  0.00  0.00    -0.311 N 
ATOM     14  C   LIG d   1      -0.055  80.683 111.588  0.00  0.00     0.210 C 
ATOM     15  C   LIG d   1      -1.212  79.680 111.638  0.00  0.00     0.109 C 
ATOM     16  O   LIG d   1       0.676  80.744 110.588  0.00  0.00    -0.276 OA
ATOM     17  H   LIG d   1      -0.520  81.282 113.463  0.00  0.00     0.149 HD
ENDBRANCH   6  13
BRANCH   5  18
ATOM     18  N   LIG d   1       2.515  81.213 114.544  0.00  0.00     0.381 N 
ATOM     19  H   LIG d   1       3.141  80.995 113.794  0.00  0.00    -0.090 HD
ATOM     20  H   LIG d   1       1.853  80.463 114.631  0.00  0.00    -0.090 HD
ATOM     21  H   LIG d   1       3.027  81.315 115.394  0.00  0.00    -0.090 HD
ENDBRANCH   5  18
BRANCH   3  22
ATOM     22  C   LIG d   1       2.749  85.997 114.530  0.00  0.00     0.382 C 
ATOM     23  O   LIG d   1       3.841  85.962 115.147  0.00  0.00    -0.241 OA
ATOM     24  O   LIG d   1       2.101  87.060 114.490  0.00  0.00    -0.241 OA
ENDBRANCH   3  22
TORSDOF 7
ENDMDL
MODEL 9
REMARK VINA RESULT:      -5.2      1.719      4.746
REMARK  7 active torsions:
REMARK  status: ('A' for Active; 'I' for Inactive)
REMARK    1  A    between atoms: C_2  and  C_3 
REMARK    2  A    between atoms: C_3  and  O_6 
REMARK    3  A    between atoms: C_3  and  C_4 
REMARK    4  A    between atoms: C_7  and  O_6 
REMARK    5  A    between atoms: C_9  and  C_10 
REMARK    6  A    between atoms: N_15  and  C_14 
REMARK    7  A    between atoms: N_20  and  C_19 
REMARK       I    between atoms: C_22  and  N_20 
ROOT
ATOM      1  C   LIG d   1       2.707  85.093 113.014  0.00  0.00     0.161 C 
ATOM      2  C   LIG d   1       2.327  83.797 113.400  0.00  0.00     0.016 C 
ATOM      3  C   LIG d   1       2.273  83.371 114.747  0.00  0.00     0.038 C 
ATOM      4  C   LIG d   1       2.451  84.264 115.815  0.00  0.00     0.028 C 
ATOM      5  C   LIG d   1       3.330  85.460 115.464  0.00  0.00    -0.047 C 
ATOM      6  C   LIG d   1       2.796  86.112 114.169  0.00  0.00     0.091 C 
ENDROOT
BRANCH   1   7
ATOM      7  O   LIG d   1       1.818  85.576 111.987  0.00  0.00    -0.368 OA
BRANCH   7   8
ATOM      8  C   LIG d   1       2.426  85.872 110.705  0.00  0.00     0.119 C 
BRANCH   8   9
ATOM      9  C   LIG d   1       1.369  85.601 109.618  0.00  0.00     0.028 C 
ATOM     10  C   LIG d   1      -0.066  85.816 110.127  0.00  0.00     0.006 C 
ENDBRANCH   8   9
BRANCH   8  11
ATOM     11  C   LIG d   1       3.579  84.911 110.400  0.00  0.00     0.028 C 
ATOM     12  C   LIG d   1       3.111  83.622 109.705  0.00  0.00     0.006 C 
ENDBRANCH   8  11
ENDBRANCH   7   8
ENDBRANCH   1   7
BRANCH   6  13
ATOM     13  N   LIG d   1       3.649  87.239 113.709  0.00  0.00    -0.311 N 
ATOM     14  C   LIG d   1       3.394  88.515 113.994  0.00  0.00     0.210 C 
ATOM     15  C   LIG d   1       4.388  89.521 113.405  0.00  0.00     0.109 C 
ATOM     16  O   LIG d   1       2.457  88.907 114.705  0.00  0.00    -0.276 OA
ATOM     17  H   LIG d   1       4.448  87.009 113.152  0.00  0.00     0.149 HD
ENDBRANCH   6  13
BRANCH   5  18
ATOM     18  N   LIG d   1       3.317  86.375 116.621  0.00  0.00     0.381 N 
ATOM     19  H   LIG d   1       3.828  85.970 117.380  0.00  0.00    -0.090 HD
ATOM     20  H   LIG d   1       2.367  86.512 116.917  0.00  0.00    -0.090 HD
ATOM     21  H   LIG d   1       3.723  87.250 116.368  0.00  0.00    -0.090 HD
ENDBRANCH   5  18
BRANCH   3  22
ATOM     22  C   LIG d   1       2.078  82.029 115.036  0.00  0.00     0.382 C 
ATOM     23  O   LIG d   1       1.179  81.685 115.840  0.00  0.00    -0.241 OA
ATOM     24  O   LIG d   1       2.820  81.161 114.537  0.00  0.00    -0.241 OA
ENDBRANCH   3  22
TORSDOF 7
ENDMDL
