MODEL 1
REMARK VINA RESULT:      -5.9      0.000      0.000
REMARK  7 active torsions:
REMARK  status: ('A' for Active; 'I' for Inactive)
REMARK    1  A    between atoms: C_2  and  C_3 
REMARK    2  A    between atoms: C_3  and  O_6 
REMARK    3  A    between atoms: C_3  and  C_4 
REMARK    4  A    between atoms: C_7  and  O_6 
REMARK    5  A    between atoms: C_9  and  C_10 
REMARK    6  A    between atoms: N_15  and  C_14 
REMARK    7  A    between atoms: N_20  and  C_19 
REMARK       I    between atoms: C_22  and  N_20 
ROOT
ATOM      1  C   LIG d   1       2.860  86.389 111.895  0.00  0.00     0.161 C 
ATOM      2  C   LIG d   1       3.714  87.502 111.963  0.00  0.00     0.016 C 
ATOM      3  C   LIG d   1       3.861  88.300 113.121  0.00  0.00     0.038 C 
ATOM      4  C   LIG d   1       3.274  87.946 114.345  0.00  0.00     0.028 C 
ATOM      5  C   LIG d   1       2.004  87.116 114.190  0.00  0.00    -0.047 C 
ATOM      6  C   LIG d   1       2.296  85.922 113.253  0.00  0.00     0.091 C 
ENDROOT
BRANCH   1   7
ATOM      7  O   LIG d   1       3.530  85.300 111.229  0.00  0.00    -0.368 OA
BRANCH   7   8
ATOM      8  C   LIG d   1       3.134  85.051 109.857  0.00  0.00     0.119 C 
BRANCH   8   9
ATOM      9  C   LIG d   1       1.751  85.697 109.650  0.00  0.00     0.028 C 
ATOM     10  C   LIG d   1       0.666  84.663 109.305  0.00  0.00     0.006 C 
ENDBRANCH   8   9
BRANCH   8  11
ATOM     11  C   LIG d   1       2.926  83.556 109.599  0.00  0.00     0.028 C 
ATOM     12  C   LIG d   1       4.238  82.756 109.642  0.00  0.00     0.006 C 
ENDBRANCH   8  11
ENDBRANCH   7   8
ENDBRANCH   1   7
BRANCH   6  13
ATOM     13  N   LIG d   1       1.084  85.106 112.980  0.00  0.00    -0.311 N 
ATOM     14  C   LIG d   1       1.081  83.774 112.986  0.00  0.00     0.210 C 
ATOM     15  C   LIG d   1      -0.270  83.129 112.660  0.00  0.00     0.109 C 
ATOM     16  O   LIG d   1       2.061  83.065 113.263  0.00  0.00    -0.276 OA
ATOM     17  H   LIG d   1       0.238  85.600 112.777  0.00  0.00     0.149 HD
ENDBRANCH   6  13
BRANCH   5  18
ATOM     18  N   LIG d   1       1.575  86.702 115.539  0.00  0.00     0.381 N 
ATOM     19  H   LIG d   1       0.676  86.265 115.489  0.00  0.00    -0.090 HD
ATOM     20  H   LIG d   1       1.497  87.517 116.120  0.00  0.00    -0.090 HD
ATOM     21  H   LIG d   1       2.239  86.069 115.928  0.00  0.00    -0.090 HD
ENDBRANCH   5  18
BRANCH   3  22
ATOM     22  C   LIG d   1       4.571  89.489 113.051  0.00  0.00     0.382 C 
ATOM     23  O   LIG d   1       5.586  89.570 112.317  0.00  0.00    -0.241 OA
ATOM     24  O   LIG d   1       4.236  90.467 113.745  0.00  0.00    -0.241 OA
ENDBRANCH   3  22
TORSDOF 7
ENDMDL
MODEL 2
REMARK VINA RESULT:      -5.8      9.485     11.888
REMARK  7 active torsions:
REMARK  status: ('A' for Active; 'I' for Inactive)
REMARK    1  A    between atoms: C_2  and  C_3 
REMARK    2  A    between atoms: C_3  and  O_6 
REMARK    3  A    between atoms: C_3  and  C_4 
REMARK    4  A    between atoms: C_7  and  O_6 
REMARK    5  A    between atoms: C_9  and  C_10 
REMARK    6  A    between atoms: N_15  and  C_14 
REMARK    7  A    between atoms: N_20  and  C_19 
REMARK       I    between atoms: C_22  and  N_20 
ROOT
ATOM      1  C   LIG d   1      -4.993  91.185 116.514  0.00  0.00     0.161 C 
ATOM      2  C   LIG d   1      -4.338  90.085 115.935  0.00  0.00     0.016 C 
ATOM      3  C   LIG d   1      -4.894  89.309 114.892  0.00  0.00     0.038 C 
ATOM      4  C   LIG d   1      -6.087  89.675 114.250  0.00  0.00     0.028 C 
ATOM      5  C   LIG d   1      -7.028  90.484 115.137  0.00  0.00    -0.047 C 
ATOM      6  C   LIG d   1      -6.245  91.666 115.752  0.00  0.00     0.091 C 
ENDROOT
BRANCH   1   7
ATOM      7  O   LIG d   1      -4.062  92.272 116.686  0.00  0.00    -0.368 OA
BRANCH   7   8
ATOM      8  C   LIG d   1      -3.637  92.537 118.045  0.00  0.00     0.119 C 
BRANCH   8   9
ATOM      9  C   LIG d   1      -4.305  93.853 118.491  0.00  0.00     0.028 C 
ATOM     10  C   LIG d   1      -5.178  93.672 119.744  0.00  0.00     0.006 C 
ENDBRANCH   8   9
BRANCH   8  11
ATOM     11  C   LIG d   1      -2.130  92.803 118.116  0.00  0.00     0.028 C 
ATOM     12  C   LIG d   1      -1.773  94.277 117.869  0.00  0.00     0.006 C 
ENDBRANCH   8  11
ENDBRANCH   7   8
ENDBRANCH   1   7
BRANCH   6  13
ATOM     13  N   LIG d   1      -7.070  92.461 116.699  0.00  0.00    -0.311 N 
ATOM     14  C   LIG d   1      -7.425  93.726 116.479  0.00  0.00     0.210 C 
ATOM     15  C   LIG d   1      -8.259  94.366 117.593  0.00  0.00     0.109 C 
ATOM     16  O   LIG d   1      -7.156  94.368 115.453  0.00  0.00    -0.276 OA
ATOM     17  H   LIG d   1      -7.358  92.007 117.544  0.00  0.00     0.149 HD
ENDBRANCH   6  13
BRANCH   5  18
ATOM     18  N   LIG d   1      -8.165  90.915 114.302  0.00  0.00     0.381 N 
ATOM     19  H   LIG d   1      -7.836  91.199 113.401  0.00  0.00    -0.090 HD
ATOM     20  H   LIG d   1      -8.608  91.705 114.739  0.00  0.00    -0.090 HD
ATOM     21  H   LIG d   1      -8.819  90.170 114.205  0.00  0.00    -0.090 HD
ENDBRANCH   5  18
BRANCH   3  22
ATOM     22  C   LIG d   1      -4.275  88.129 114.508  0.00  0.00     0.382 C 
ATOM     23  O   LIG d   1      -3.490  87.548 115.295  0.00  0.00    -0.241 OA
ATOM     24  O   LIG d   1      -4.458  87.662 113.368  0.00  0.00    -0.241 OA
ENDBRANCH   3  22
TORSDOF 7
ENDMDL
MODEL 3
REMARK VINA RESULT:      -5.8      1.765      5.265
REMARK  7 active torsions:
REMARK  status: ('A' for Active; 'I' for Inactive)
REMARK    1  A    between atoms: C_2  and  C_3 
REMARK    2  A    between atoms: C_3  and  O_6 
REMARK    3  A    between atoms: C_3  and  C_4 
REMARK    4  A    between atoms: C_7  and  O_6 
REMARK    5  A    between atoms: C_9  and  C_10 
REMARK    6  A    between atoms: N_15  and  C_14 
REMARK    7  A    between atoms: N_20  and  C_19 
REMARK       I    between atoms: C_22  and  N_20 
ROOT
ATOM      1  C   LIG d   1       2.165  84.609 112.650  0.00  0.00     0.161 C 
ATOM      2  C   LIG d   1       1.299  83.520 112.456  0.00  0.00     0.016 C 
ATOM      3  C   LIG d   1      -0.049  83.512 112.884  0.00  0.00     0.038 C 
ATOM      4  C   LIG d   1      -0.668  84.657 113.405  0.00  0.00     0.028 C 
ATOM      5  C   LIG d   1       0.305  85.617 114.083  0.00  0.00    -0.047 C 
ATOM      6  C   LIG d   1       1.477  85.908 113.117  0.00  0.00     0.091 C 
ENDROOT
BRANCH   1   7
ATOM      7  O   LIG d   1       2.926  84.848 111.450  0.00  0.00    -0.368 OA
BRANCH   7   8
ATOM      8  C   LIG d   1       2.329  84.385 110.214  0.00  0.00     0.119 C 
BRANCH   8   9
ATOM      9  C   LIG d   1       3.470  83.886 109.306  0.00  0.00     0.028 C 
ATOM     10  C   LIG d   1       4.072  82.559 109.797  0.00  0.00     0.006 C 
ENDBRANCH   8   9
BRANCH   8  11
ATOM     11  C   LIG d   1       1.674  85.537 109.445  0.00  0.00     0.028 C 
ATOM     12  C   LIG d   1       0.140  85.449 109.433  0.00  0.00     0.006 C 
ENDBRANCH   8  11
ENDBRANCH   7   8
ENDBRANCH   1   7
BRANCH   6  13
ATOM     13  N   LIG d   1       2.517  86.772 113.733  0.00  0.00    -0.311 N 
ATOM     14  C   LIG d   1       3.071  87.810 113.109  0.00  0.00     0.210 C 
ATOM     15  C   LIG d   1       4.139  88.556 113.917  0.00  0.00     0.109 C 
ATOM     16  O   LIG d   1       2.758  88.204 111.975  0.00  0.00    -0.276 OA
ATOM     17  H   LIG d   1       2.808  86.543 114.663  0.00  0.00     0.149 HD
ENDBRANCH   6  13
BRANCH   5  18
ATOM     18  N   LIG d   1      -0.451  86.827 114.456  0.00  0.00     0.381 N 
ATOM     19  H   LIG d   1      -1.082  86.615 115.203  0.00  0.00    -0.090 HD
ATOM     20  H   LIG d   1      -0.989  87.132 113.665  0.00  0.00    -0.090 HD
ATOM     21  H   LIG d   1       0.177  87.548 114.737  0.00  0.00    -0.090 HD
ENDBRANCH   5  18
BRANCH   3  22
ATOM     22  C   LIG d   1      -0.780  82.335 112.829  0.00  0.00     0.382 C 
ATOM     23  O   LIG d   1      -1.786  82.256 112.084  0.00  0.00    -0.241 OA
ATOM     24  O   LIG d   1      -0.472  81.366 113.549  0.00  0.00    -0.241 OA
ENDBRANCH   3  22
TORSDOF 7
ENDMDL
MODEL 4
REMARK VINA RESULT:      -5.6      3.549      7.436
REMARK  7 active torsions:
REMARK  status: ('A' for Active; 'I' for Inactive)
REMARK    1  A    between atoms: C_2  and  C_3 
REMARK    2  A    between atoms: C_3  and  O_6 
REMARK    3  A    between atoms: C_3  and  C_4 
REMARK    4  A    between atoms: C_7  and  O_6 
REMARK    5  A    between atoms: C_9  and  C_10 
REMARK    6  A    between atoms: N_15  and  C_14 
REMARK    7  A    between atoms: N_20  and  C_19 
REMARK       I    between atoms: C_22  and  N_20 
ROOT
ATOM      1  C   LIG d   1      -0.408  82.963 112.068  0.00  0.00     0.161 C 
ATOM      2  C   LIG d   1      -1.299  81.986 112.544  0.00  0.00     0.016 C 
ATOM      3  C   LIG d   1      -1.200  80.615 112.213  0.00  0.00     0.038 C 
ATOM      4  C   LIG d   1      -0.107  80.101 111.499  0.00  0.00     0.028 C 
ATOM      5  C   LIG d   1       0.546  81.122 110.573  0.00  0.00    -0.047 C 
ATOM      6  C   LIG d   1       0.855  82.405 111.379  0.00  0.00     0.091 C 
ENDROOT
BRANCH   1   7
ATOM      7  O   LIG d   1      -0.041  83.854 113.140  0.00  0.00    -0.368 OA
BRANCH   7   8
ATOM      8  C   LIG d   1      -0.866  85.035 113.296  0.00  0.00     0.119 C 
BRANCH   8   9
ATOM      9  C   LIG d   1      -0.175  86.186 112.539  0.00  0.00     0.028 C 
ATOM     10  C   LIG d   1      -0.774  86.411 111.141  0.00  0.00     0.006 C 
ENDBRANCH   8   9
BRANCH   8  11
ATOM     11  C   LIG d   1      -0.920  85.487 114.759  0.00  0.00     0.028 C 
ATOM     12  C   LIG d   1      -2.063  86.477 115.034  0.00  0.00     0.006 C 
ENDBRANCH   8  11
ENDBRANCH   7   8
ENDBRANCH   1   7
BRANCH   6  13
ATOM     13  N   LIG d   1       1.419  83.486 110.529  0.00  0.00    -0.311 N 
ATOM     14  C   LIG d   1       2.463  84.231 110.887  0.00  0.00     0.210 C 
ATOM     15  C   LIG d   1       2.870  85.304 109.872  0.00  0.00     0.109 C 
ATOM     16  O   LIG d   1       3.111  84.084 111.934  0.00  0.00    -0.276 OA
ATOM     17  H   LIG d   1       0.973  83.652 109.648  0.00  0.00     0.149 HD
ENDBRANCH   6  13
BRANCH   5  18
ATOM     18  N   LIG d   1       1.751  80.496 109.998  0.00  0.00     0.381 N 
ATOM     19  H   LIG d   1       1.670  79.499 110.045  0.00  0.00    -0.090 HD
ATOM     20  H   LIG d   1       2.551  80.773 110.539  0.00  0.00    -0.090 HD
ATOM     21  H   LIG d   1       1.865  80.782 109.051  0.00  0.00    -0.090 HD
ENDBRANCH   5  18
BRANCH   3  22
ATOM     22  C   LIG d   1      -2.224  79.749 112.563  0.00  0.00     0.382 C 
ATOM     23  O   LIG d   1      -1.974  78.539 112.783  0.00  0.00    -0.241 OA
ATOM     24  O   LIG d   1      -3.402  80.152 112.619  0.00  0.00    -0.241 OA
ENDBRANCH   3  22
TORSDOF 7
ENDMDL
MODEL 5
REMARK VINA RESULT:      -5.5      2.414      4.290
REMARK  7 active torsions:
REMARK  status: ('A' for Active; 'I' for Inactive)
REMARK    1  A    between atoms: C_2  and  C_3 
REMARK    2  A    between atoms: C_3  and  O_6 
REMARK    3  A    between atoms: C_3  and  C_4 
REMARK    4  A    between atoms: C_7  and  O_6 
REMARK    5  A    between atoms: C_9  and  C_10 
REMARK    6  A    between atoms: N_15  and  C_14 
REMARK    7  A    between atoms: N_20  and  C_19 
REMARK       I    between atoms: C_22  and  N_20 
ROOT
ATOM      1  C   LIG d   1       1.281  85.268 112.657  0.00  0.00     0.161 C 
ATOM      2  C   LIG d   1       1.889  86.534 112.704  0.00  0.00     0.016 C 
ATOM      3  C   LIG d   1       2.923  86.934 111.828  0.00  0.00     0.038 C 
ATOM      4  C   LIG d   1       3.320  86.143 110.739  0.00  0.00     0.028 C 
ATOM      5  C   LIG d   1       3.086  84.652 110.956  0.00  0.00    -0.047 C 
ATOM      6  C   LIG d   1       1.623  84.433 111.405  0.00  0.00     0.091 C 
ENDROOT
BRANCH   1   7
ATOM      7  O   LIG d   1      -0.147  85.406 112.792  0.00  0.00    -0.368 OA
BRANCH   7   8
ATOM      8  C   LIG d   1      -0.732  84.834 113.988  0.00  0.00     0.119 C 
BRANCH   8   9
ATOM      9  C   LIG d   1      -1.486  85.961 114.719  0.00  0.00     0.028 C 
ATOM     10  C   LIG d   1      -0.923  86.228 116.125  0.00  0.00     0.006 C 
ENDBRANCH   8   9
BRANCH   8  11
ATOM     11  C   LIG d   1       0.348  84.366 114.968  0.00  0.00     0.028 C 
ATOM     12  C   LIG d   1       0.322  82.848 115.203  0.00  0.00     0.006 C 
ENDBRANCH   8  11
ENDBRANCH   7   8
ENDBRANCH   1   7
BRANCH   6  13
ATOM     13  N   LIG d   1       1.334  83.010 111.721  0.00  0.00    -0.311 N 
ATOM     14  C   LIG d   1       0.209  82.394 111.364  0.00  0.00     0.210 C 
ATOM     15  C   LIG d   1       0.104  80.931 111.807  0.00  0.00     0.109 C 
ATOM     16  O   LIG d   1      -0.699  82.911 110.695  0.00  0.00    -0.276 OA
ATOM     17  H   LIG d   1       2.031  82.506 112.234  0.00  0.00     0.149 HD
ENDBRANCH   6  13
BRANCH   5  18
ATOM     18  N   LIG d   1       3.414  83.961 109.695  0.00  0.00     0.381 N 
ATOM     19  H   LIG d   1       2.647  84.039 109.057  0.00  0.00    -0.090 HD
ATOM     20  H   LIG d   1       3.566  82.987 109.888  0.00  0.00    -0.090 HD
ATOM     21  H   LIG d   1       4.233  84.359 109.290  0.00  0.00    -0.090 HD
ENDBRANCH   5  18
BRANCH   3  22
ATOM     22  C   LIG d   1       3.601  88.121 112.061  0.00  0.00     0.382 C 
ATOM     23  O   LIG d   1       2.987  89.114 112.520  0.00  0.00    -0.241 OA
ATOM     24  O   LIG d   1       4.809  88.225 111.776  0.00  0.00    -0.241 OA
ENDBRANCH   3  22
TORSDOF 7
ENDMDL
MODEL 6
REMARK VINA RESULT:      -5.4      2.344      4.252
REMARK  7 active torsions:
REMARK  status: ('A' for Active; 'I' for Inactive)
REMARK    1  A    between atoms: C_2  and  C_3 
REMARK    2  A    between atoms: C_3  and  O_6 
REMARK    3  A    between atoms: C_3  and  C_4 
REMARK    4  A    between atoms: C_7  and  O_6 
REMARK    5  A    between atoms: C_9  and  C_10 
REMARK    6  A    between atoms: N_15  and  C_14 
REMARK    7  A    between atoms: N_20  and  C_19 
REMARK       I    between atoms: C_22  and  N_20 
ROOT
ATOM      1  C   LIG d   1       2.665  84.641 112.572  0.00  0.00     0.161 C 
ATOM      2  C   LIG d   1       3.086  85.884 113.074  0.00  0.00     0.016 C 
ATOM      3  C   LIG d   1       2.885  87.106 112.392  0.00  0.00     0.038 C 
ATOM      4  C   LIG d   1       2.111  87.186 111.225  0.00  0.00     0.028 C 
ATOM      5  C   LIG d   1       2.097  85.893 110.418  0.00  0.00    -0.047 C 
ATOM      6  C   LIG d   1       1.721  84.721 111.354  0.00  0.00     0.091 C 
ENDROOT
BRANCH   1   7
ATOM      7  O   LIG d   1       2.058  83.868 113.626  0.00  0.00    -0.368 OA
BRANCH   7   8
ATOM      8  C   LIG d   1       1.318  84.618 114.621  0.00  0.00     0.119 C 
BRANCH   8   9
ATOM      9  C   LIG d   1       1.591  83.965 115.990  0.00  0.00     0.028 C 
ATOM     10  C   LIG d   1       3.059  84.111 116.427  0.00  0.00     0.006 C 
ENDBRANCH   8   9
BRANCH   8  11
ATOM     11  C   LIG d   1      -0.193  84.492 114.405  0.00  0.00     0.028 C 
ATOM     12  C   LIG d   1      -0.824  85.776 113.844  0.00  0.00     0.006 C 
ENDBRANCH   8  11
ENDBRANCH   7   8
ENDBRANCH   1   7
BRANCH   6  13
ATOM     13  N   LIG d   1       1.766  83.407 110.662  0.00  0.00    -0.311 N 
ATOM     14  C   LIG d   1       0.687  82.659 110.438  0.00  0.00     0.210 C 
ATOM     15  C   LIG d   1       0.958  81.329 109.727  0.00  0.00     0.109 C 
ATOM     16  O   LIG d   1      -0.473  82.985 110.731  0.00  0.00    -0.276 OA
ATOM     17  H   LIG d   1       2.664  83.079 110.362  0.00  0.00     0.149 HD
ENDBRANCH   6  13
BRANCH   5  18
ATOM     18  N   LIG d   1       1.145  86.072 109.305  0.00  0.00     0.381 N 
ATOM     19  H   LIG d   1       0.447  86.741 109.561  0.00  0.00    -0.090 HD
ATOM     20  H   LIG d   1       0.690  85.195 109.122  0.00  0.00    -0.090 HD
ATOM     21  H   LIG d   1       1.628  86.380 108.490  0.00  0.00    -0.090 HD
ENDBRANCH   5  18
BRANCH   3  22
ATOM     22  C   LIG d   1       3.497  88.261 112.857  0.00  0.00     0.382 C 
ATOM     23  O   LIG d   1       3.180  89.375 112.376  0.00  0.00    -0.241 OA
ATOM     24  O   LIG d   1       4.392  88.197 113.721  0.00  0.00    -0.241 OA
ENDBRANCH   3  22
TORSDOF 7
ENDMDL
MODEL 7
REMARK VINA RESULT:      -5.4      3.634      4.521
REMARK  7 active torsions:
REMARK  status: ('A' for Active; 'I' for Inactive)
REMARK    1  A    between atoms: C_2  and  C_3 
REMARK    2  A    between atoms: C_3  and  O_6 
REMARK    3  A    between atoms: C_3  and  C_4 
REMARK    4  A    between atoms: C_7  and  O_6 
REMARK    5  A    between atoms: C_9  and  C_10 
REMARK    6  A    between atoms: N_15  and  C_14 
REMARK    7  A    between atoms: N_20  and  C_19 
REMARK       I    between atoms: C_22  and  N_20 
ROOT
ATOM      1  C   LIG d   1       0.905  82.918 111.922  0.00  0.00     0.161 C 
ATOM      2  C   LIG d   1       0.463  83.993 111.134  0.00  0.00     0.016 C 
ATOM      3  C   LIG d   1      -0.191  85.129 111.664  0.00  0.00     0.038 C 
ATOM      4  C   LIG d   1      -0.313  85.337 113.046  0.00  0.00     0.028 C 
ATOM      5  C   LIG d   1      -0.333  84.044 113.854  0.00  0.00    -0.047 C 
ATOM      6  C   LIG d   1       0.880  83.177 113.443  0.00  0.00     0.091 C 
ENDROOT
BRANCH   1   7
ATOM      7  O   LIG d   1       2.224  82.515 111.504  0.00  0.00    -0.368 OA
BRANCH   7   8
ATOM      8  C   LIG d   1       2.455  82.474 110.075  0.00  0.00     0.119 C 
BRANCH   8   9
ATOM      9  C   LIG d   1       2.629  80.995 109.677  0.00  0.00     0.028 C 
ATOM     10  C   LIG d   1       4.107  80.598 109.525  0.00  0.00     0.006 C 
ENDBRANCH   8   9
BRANCH   8  11
ATOM     11  C   LIG d   1       3.777  83.152 109.703  0.00  0.00     0.028 C 
ATOM     12  C   LIG d   1       3.718  84.682 109.832  0.00  0.00     0.006 C 
ENDBRANCH   8  11
ENDBRANCH   7   8
ENDBRANCH   1   7
BRANCH   6  13
ATOM     13  N   LIG d   1       0.890  81.857 114.125  0.00  0.00    -0.311 N 
ATOM     14  C   LIG d   1       1.840  81.480 114.979  0.00  0.00     0.210 C 
ATOM     15  C   LIG d   1       1.670  80.070 115.554  0.00  0.00     0.109 C 
ATOM     16  O   LIG d   1       2.790  82.191 115.339  0.00  0.00    -0.276 OA
ATOM     17  H   LIG d   1       0.139  81.229 113.915  0.00  0.00     0.149 HD
ENDBRANCH   6  13
BRANCH   5  18
ATOM     18  N   LIG d   1      -0.325  84.410 115.283  0.00  0.00     0.381 N 
ATOM     19  H   LIG d   1       0.170  85.271 115.409  0.00  0.00    -0.090 HD
ATOM     20  H   LIG d   1       0.153  83.693 115.799  0.00  0.00    -0.090 HD
ATOM     21  H   LIG d   1      -1.259  84.504 115.616  0.00  0.00    -0.090 HD
ENDBRANCH   5  18
BRANCH   3  22
ATOM     22  C   LIG d   1      -0.767  86.053 110.806  0.00  0.00     0.382 C 
ATOM     23  O   LIG d   1      -1.351  87.062 111.271  0.00  0.00    -0.241 OA
ATOM     24  O   LIG d   1      -0.748  85.869 109.574  0.00  0.00    -0.241 OA
ENDBRANCH   3  22
TORSDOF 7
ENDMDL
MODEL 8
REMARK VINA RESULT:      -5.3      3.582      4.801
REMARK  7 active torsions:
REMARK  status: ('A' for Active; 'I' for Inactive)
REMARK    1  A    between atoms: C_2  and  C_3 
REMARK    2  A    between atoms: C_3  and  O_6 
REMARK    3  A    between atoms: C_3  and  C_4 
REMARK    4  A    between atoms: C_7  and  O_6 
REMARK    5  A    between atoms: C_9  and  C_10 
REMARK    6  A    between atoms: N_15  and  C_14 
REMARK    7  A    between atoms: N_20  and  C_19 
REMARK       I    between atoms: C_22  and  N_20 
ROOT
ATOM      1  C   LIG d   1       0.248  82.788 110.565  0.00  0.00     0.161 C 
ATOM      2  C   LIG d   1      -0.046  84.145 110.774  0.00  0.00     0.016 C 
ATOM      3  C   LIG d   1      -0.300  84.699 112.050  0.00  0.00     0.038 C 
ATOM      4  C   LIG d   1      -0.128  83.957 113.228  0.00  0.00     0.028 C 
ATOM      5  C   LIG d   1      -0.325  82.457 113.033  0.00  0.00    -0.047 C 
ATOM      6  C   LIG d   1       0.549  81.986 111.848  0.00  0.00     0.091 C 
ENDROOT
BRANCH   1   7
ATOM      7  O   LIG d   1       1.337  82.662 109.628  0.00  0.00    -0.368 OA
BRANCH   7   8
ATOM      8  C   LIG d   1       2.640  83.076 110.107  0.00  0.00     0.119 C 
BRANCH   8   9
ATOM      9  C   LIG d   1       2.928  84.470 109.518  0.00  0.00     0.028 C 
ATOM     10  C   LIG d   1       3.416  85.467 110.582  0.00  0.00     0.006 C 
ENDBRANCH   8   9
BRANCH   8  11
ATOM     11  C   LIG d   1       3.747  82.169 109.562  0.00  0.00     0.028 C 
ATOM     12  C   LIG d   1       3.415  80.674 109.698  0.00  0.00     0.006 C 
ENDBRANCH   8  11
ENDBRANCH   7   8
ENDBRANCH   1   7
BRANCH   6  13
ATOM     13  N   LIG d   1       0.353  80.546 111.536  0.00  0.00    -0.311 N 
ATOM     14  C   LIG d   1      -0.825  79.931 111.626  0.00  0.00     0.210 C 
ATOM     15  C   LIG d   1      -0.804  78.439 111.278  0.00  0.00     0.109 C 
ATOM     16  O   LIG d   1      -1.892  80.486 111.930  0.00  0.00    -0.276 OA
ATOM     17  H   LIG d   1       1.160  80.027 111.250  0.00  0.00     0.149 HD
ENDBRANCH   6  13
BRANCH   5  18
ATOM     18  N   LIG d   1       0.019  81.793 114.305  0.00  0.00     0.381 N 
ATOM     19  H   LIG d   1       0.663  82.360 114.819  0.00  0.00    -0.090 HD
ATOM     20  H   LIG d   1       0.463  80.915 114.103  0.00  0.00    -0.090 HD
ATOM     21  H   LIG d   1      -0.805  81.641 114.843  0.00  0.00    -0.090 HD
ENDBRANCH   5  18
BRANCH   3  22
ATOM     22  C   LIG d   1      -0.770  85.999 112.154  0.00  0.00     0.382 C 
ATOM     23  O   LIG d   1      -1.501  86.326 113.119  0.00  0.00    -0.241 OA
ATOM     24  O   LIG d   1      -0.509  86.838 111.270  0.00  0.00    -0.241 OA
ENDBRANCH   3  22
TORSDOF 7
ENDMDL
MODEL 9
REMARK VINA RESULT:      -5.2      2.822      6.946
REMARK  7 active torsions:
REMARK  status: ('A' for Active; 'I' for Inactive)
REMARK    1  A    between atoms: C_2  and  C_3 
REMARK    2  A    between atoms: C_3  and  O_6 
REMARK    3  A    between atoms: C_3  and  C_4 
REMARK    4  A    between atoms: C_7  and  O_6 
REMARK    5  A    between atoms: C_9  and  C_10 
REMARK    6  A    between atoms: N_15  and  C_14 
REMARK    7  A    between atoms: N_20  and  C_19 
REMARK       I    between atoms: C_22  and  N_20 
ROOT
ATOM      1  C   LIG d   1       0.057  84.133 112.955  0.00  0.00     0.161 C 
ATOM      2  C   LIG d   1      -0.890  83.100 113.047  0.00  0.00     0.016 C 
ATOM      3  C   LIG d   1      -0.906  81.979 112.186  0.00  0.00     0.038 C 
ATOM      4  C   LIG d   1       0.124  81.739 111.263  0.00  0.00     0.028 C 
ATOM      5  C   LIG d   1       0.823  83.009 110.792  0.00  0.00    -0.047 C 
ATOM      6  C   LIG d   1       1.253  83.833 112.027  0.00  0.00     0.091 C 
ENDROOT
BRANCH   1   7
ATOM      7  O   LIG d   1       0.522  84.489 114.272  0.00  0.00    -0.368 OA
BRANCH   7   8
ATOM      8  C   LIG d   1      -0.126  85.628 114.890  0.00  0.00     0.119 C 
BRANCH   8   9
ATOM      9  C   LIG d   1       0.874  86.800 114.867  0.00  0.00     0.028 C 
ATOM     10  C   LIG d   1       2.328  86.333 115.052  0.00  0.00     0.006 C 
ENDBRANCH   8   9
BRANCH   8  11
ATOM     11  C   LIG d   1      -0.413  85.369 116.372  0.00  0.00     0.028 C 
ATOM     12  C   LIG d   1      -0.005  83.957 116.820  0.00  0.00     0.006 C 
ENDBRANCH   8  11
ENDBRANCH   7   8
ENDBRANCH   1   7
BRANCH   6  13
ATOM     13  N   LIG d   1       1.871  85.133 111.655  0.00  0.00    -0.311 N 
ATOM     14  C   LIG d   1       3.185  85.311 111.529  0.00  0.00     0.210 C 
ATOM     15  C   LIG d   1       3.612  86.734 111.158  0.00  0.00     0.109 C 
ATOM     16  O   LIG d   1       4.035  84.417 111.659  0.00  0.00    -0.276 OA
ATOM     17  H   LIG d   1       1.252  85.904 111.500  0.00  0.00     0.149 HD
ENDBRANCH   6  13
BRANCH   5  18
ATOM     18  N   LIG d   1       1.960  82.603 109.944  0.00  0.00     0.381 N 
ATOM     19  H   LIG d   1       2.510  81.917 110.420  0.00  0.00    -0.090 HD
ATOM     20  H   LIG d   1       2.539  83.406 109.769  0.00  0.00    -0.090 HD
ATOM     21  H   LIG d   1       1.627  82.232 109.081  0.00  0.00    -0.090 HD
ENDBRANCH   5  18
BRANCH   3  22
ATOM     22  C   LIG d   1      -1.981  81.105 112.215  0.00  0.00     0.382 C 
ATOM     23  O   LIG d   1      -1.799  79.880 112.014  0.00  0.00    -0.241 OA
ATOM     24  O   LIG d   1      -3.137  81.531 112.395  0.00  0.00    -0.241 OA
ENDBRANCH   3  22
TORSDOF 7
ENDMDL
