MODEL 1
REMARK VINA RESULT:      -4.9      0.000      0.000
REMARK  7 active torsions:
REMARK  status: ('A' for Active; 'I' for Inactive)
REMARK    1  A    between atoms: C_2  and  C_3 
REMARK    2  A    between atoms: C_3  and  O_6 
REMARK    3  A    between atoms: C_3  and  C_4 
REMARK    4  A    between atoms: C_7  and  O_6 
REMARK    5  A    between atoms: C_9  and  C_10 
REMARK    6  A    between atoms: N_15  and  C_14 
REMARK    7  A    between atoms: N_20  and  C_19 
REMARK       I    between atoms: C_22  and  N_20 
ROOT
ATOM      1  C   LIG d   1      -8.591  80.284 119.993  0.00  0.00     0.161 C 
ATOM      2  C   LIG d   1      -9.033  79.222 119.186  0.00  0.00     0.016 C 
ATOM      3  C   LIG d   1     -10.290  78.594 119.344  0.00  0.00     0.038 C 
ATOM      4  C   LIG d   1     -11.259  79.089 120.229  0.00  0.00     0.028 C 
ATOM      5  C   LIG d   1     -10.668  79.843 121.416  0.00  0.00    -0.047 C 
ATOM      6  C   LIG d   1      -9.679  80.909 120.890  0.00  0.00     0.091 C 
ENDROOT
BRANCH   1   7
ATOM      7  O   LIG d   1      -7.974  81.296 119.174  0.00  0.00    -0.368 OA
BRANCH   7   8
ATOM      8  C   LIG d   1      -8.775  82.472 118.902  0.00  0.00     0.119 C 
BRANCH   8   9
ATOM      9  C   LIG d   1      -9.188  82.419 117.418  0.00  0.00     0.028 C 
ATOM     10  C   LIG d   1     -10.687  82.129 117.236  0.00  0.00     0.006 C 
ENDBRANCH   8   9
BRANCH   8  11
ATOM     11  C   LIG d   1      -7.951  83.754 119.048  0.00  0.00     0.028 C 
ATOM     12  C   LIG d   1      -6.613  83.524 119.769  0.00  0.00     0.006 C 
ENDBRANCH   8  11
ENDBRANCH   7   8
ENDBRANCH   1   7
BRANCH   6  13
ATOM     13  N   LIG d   1      -8.993  81.636 121.990  0.00  0.00    -0.311 N 
ATOM     14  C   LIG d   1      -9.407  82.810 122.464  0.00  0.00     0.210 C 
ATOM     15  C   LIG d   1      -8.543  83.396 123.585  0.00  0.00     0.109 C 
ATOM     16  O   LIG d   1     -10.426  83.406 122.084  0.00  0.00    -0.276 OA
ATOM     17  H   LIG d   1      -8.174  81.209 122.377  0.00  0.00     0.149 HD
ENDBRANCH   6  13
BRANCH   5  18
ATOM     18  N   LIG d   1     -11.789  80.421 122.180  0.00  0.00     0.381 N 
ATOM     19  H   LIG d   1     -11.813  80.024 123.098  0.00  0.00    -0.090 HD
ATOM     20  H   LIG d   1     -12.651  80.194 121.716  0.00  0.00    -0.090 HD
ATOM     21  H   LIG d   1     -11.686  81.410 122.241  0.00  0.00    -0.090 HD
ENDBRANCH   5  18
BRANCH   3  22
ATOM     22  C   LIG d   1     -10.572  77.434 118.640  0.00  0.00     0.382 C 
ATOM     23  O   LIG d   1      -9.651  76.818 118.051  0.00  0.00    -0.241 OA
ATOM     24  O   LIG d   1     -11.743  77.019 118.549  0.00  0.00    -0.241 OA
ENDBRANCH   3  22
TORSDOF 7
ENDMDL
MODEL 2
REMARK VINA RESULT:      -4.8      2.365      3.148
REMARK  7 active torsions:
REMARK  status: ('A' for Active; 'I' for Inactive)
REMARK    1  A    between atoms: C_2  and  C_3 
REMARK    2  A    between atoms: C_3  and  O_6 
REMARK    3  A    between atoms: C_3  and  C_4 
REMARK    4  A    between atoms: C_7  and  O_6 
REMARK    5  A    between atoms: C_9  and  C_10 
REMARK    6  A    between atoms: N_15  and  C_14 
REMARK    7  A    between atoms: N_20  and  C_19 
REMARK       I    between atoms: C_22  and  N_20 
ROOT
ATOM      1  C   LIG d   1      -7.760  79.892 118.803  0.00  0.00     0.161 C 
ATOM      2  C   LIG d   1      -8.488  78.758 118.405  0.00  0.00     0.016 C 
ATOM      3  C   LIG d   1      -9.838  78.535 118.761  0.00  0.00     0.038 C 
ATOM      4  C   LIG d   1     -10.602  79.511 119.418  0.00  0.00     0.028 C 
ATOM      5  C   LIG d   1      -9.769  80.456 120.278  0.00  0.00    -0.047 C 
ATOM      6  C   LIG d   1      -8.610  81.020 119.425  0.00  0.00     0.091 C 
ENDROOT
BRANCH   1   7
ATOM      7  O   LIG d   1      -6.995  80.396 117.690  0.00  0.00    -0.368 OA
BRANCH   7   8
ATOM      8  C   LIG d   1      -5.567  80.156 117.737  0.00  0.00     0.119 C 
BRANCH   8   9
ATOM      9  C   LIG d   1      -5.318  78.739 117.185  0.00  0.00     0.028 C 
ATOM     10  C   LIG d   1      -4.155  78.027 117.898  0.00  0.00     0.006 C 
ENDBRANCH   8   9
BRANCH   8  11
ATOM     11  C   LIG d   1      -5.055  80.124 119.180  0.00  0.00     0.028 C 
ATOM     12  C   LIG d   1      -4.157  81.325 119.520  0.00  0.00     0.006 C 
ENDBRANCH   8  11
ENDBRANCH   7   8
ENDBRANCH   1   7
BRANCH   6  13
ATOM     13  N   LIG d   1      -7.696  81.887 120.214  0.00  0.00    -0.311 N 
ATOM     14  C   LIG d   1      -7.532  83.187 119.975  0.00  0.00     0.210 C 
ATOM     15  C   LIG d   1      -6.528  83.892 120.892  0.00  0.00     0.109 C 
ATOM     16  O   LIG d   1      -8.147  83.831 119.111  0.00  0.00    -0.276 OA
ATOM     17  H   LIG d   1      -7.181  81.454 120.954  0.00  0.00     0.149 HD
ENDBRANCH   6  13
BRANCH   5  18
ATOM     18  N   LIG d   1     -10.671  81.503 120.792  0.00  0.00     0.381 N 
ATOM     19  H   LIG d   1     -10.246  81.965 121.570  0.00  0.00    -0.090 HD
ATOM     20  H   LIG d   1     -11.523  81.073 121.107  0.00  0.00    -0.090 HD
ATOM     21  H   LIG d   1     -10.871  82.164 120.073  0.00  0.00    -0.090 HD
ENDBRANCH   5  18
BRANCH   3  22
ATOM     22  C   LIG d   1     -10.426  77.308 118.495  0.00  0.00     0.382 C 
ATOM     23  O   LIG d   1      -9.759  76.400 117.942  0.00  0.00    -0.241 OA
ATOM     24  O   LIG d   1     -11.627  77.111 118.761  0.00  0.00    -0.241 OA
ENDBRANCH   3  22
TORSDOF 7
ENDMDL
MODEL 3
REMARK VINA RESULT:      -4.6     12.262     15.241
REMARK  7 active torsions:
REMARK  status: ('A' for Active; 'I' for Inactive)
REMARK    1  A    between atoms: C_2  and  C_3 
REMARK    2  A    between atoms: C_3  and  O_6 
REMARK    3  A    between atoms: C_3  and  C_4 
REMARK    4  A    between atoms: C_7  and  O_6 
REMARK    5  A    between atoms: C_9  and  C_10 
REMARK    6  A    between atoms: N_15  and  C_14 
REMARK    7  A    between atoms: N_20  and  C_19 
REMARK       I    between atoms: C_22  and  N_20 
ROOT
ATOM      1  C   LIG d   1     -13.539  67.080 122.563  0.00  0.00     0.161 C 
ATOM      2  C   LIG d   1     -12.342  66.938 123.285  0.00  0.00     0.016 C 
ATOM      3  C   LIG d   1     -11.396  65.918 123.030  0.00  0.00     0.038 C 
ATOM      4  C   LIG d   1     -11.513  65.057 121.929  0.00  0.00     0.028 C 
ATOM      5  C   LIG d   1     -12.954  64.842 121.479  0.00  0.00    -0.047 C 
ATOM      6  C   LIG d   1     -13.631  66.218 121.287  0.00  0.00     0.091 C 
ENDROOT
BRANCH   1   7
ATOM      7  O   LIG d   1     -13.756  68.469 122.247  0.00  0.00    -0.368 OA
BRANCH   7   8
ATOM      8  C   LIG d   1     -14.639  69.195 123.137  0.00  0.00     0.119 C 
BRANCH   8   9
ATOM      9  C   LIG d   1     -16.073  69.038 122.596  0.00  0.00     0.028 C 
ATOM     10  C   LIG d   1     -16.206  69.508 121.137  0.00  0.00     0.006 C 
ENDBRANCH   8   9
BRANCH   8  11
ATOM     11  C   LIG d   1     -14.355  70.700 123.099  0.00  0.00     0.028 C 
ATOM     12  C   LIG d   1     -12.857  71.026 123.206  0.00  0.00     0.006 C 
ENDBRANCH   8  11
ENDBRANCH   7   8
ENDBRANCH   1   7
BRANCH   6  13
ATOM     13  N   LIG d   1     -15.068  66.098 120.928  0.00  0.00    -0.311 N 
ATOM     14  C   LIG d   1     -15.512  66.102 119.672  0.00  0.00     0.210 C 
ATOM     15  C   LIG d   1     -17.033  65.987 119.524  0.00  0.00     0.109 C 
ATOM     16  O   LIG d   1     -14.789  66.156 118.666  0.00  0.00    -0.276 OA
ATOM     17  H   LIG d   1     -15.721  66.018 121.682  0.00  0.00     0.149 HD
ENDBRANCH   6  13
BRANCH   5  18
ATOM     18  N   LIG d   1     -12.919  64.037 120.243  0.00  0.00     0.381 N 
ATOM     19  H   LIG d   1     -13.659  63.365 120.255  0.00  0.00    -0.090 HD
ATOM     20  H   LIG d   1     -12.045  63.543 120.201  0.00  0.00    -0.090 HD
ATOM     21  H   LIG d   1     -13.012  64.630 119.447  0.00  0.00    -0.090 HD
ENDBRANCH   5  18
BRANCH   3  22
ATOM     22  C   LIG d   1     -10.339  65.727 123.907  0.00  0.00     0.382 C 
ATOM     23  O   LIG d   1     -10.009  64.566 124.248  0.00  0.00    -0.241 OA
ATOM     24  O   LIG d   1      -9.739  66.704 124.395  0.00  0.00    -0.241 OA
ENDBRANCH   3  22
TORSDOF 7
ENDMDL
MODEL 4
REMARK VINA RESULT:      -4.6      1.620      2.187
REMARK  7 active torsions:
REMARK  status: ('A' for Active; 'I' for Inactive)
REMARK    1  A    between atoms: C_2  and  C_3 
REMARK    2  A    between atoms: C_3  and  O_6 
REMARK    3  A    between atoms: C_3  and  C_4 
REMARK    4  A    between atoms: C_7  and  O_6 
REMARK    5  A    between atoms: C_9  and  C_10 
REMARK    6  A    between atoms: N_15  and  C_14 
REMARK    7  A    between atoms: N_20  and  C_19 
REMARK       I    between atoms: C_22  and  N_20 
ROOT
ATOM      1  C   LIG d   1      -9.087  80.073 118.922  0.00  0.00     0.161 C 
ATOM      2  C   LIG d   1      -9.043  78.870 118.198  0.00  0.00     0.016 C 
ATOM      3  C   LIG d   1      -9.885  77.767 118.468  0.00  0.00     0.038 C 
ATOM      4  C   LIG d   1     -10.940  77.848 119.390  0.00  0.00     0.028 C 
ATOM      5  C   LIG d   1     -10.699  78.869 120.497  0.00  0.00    -0.047 C 
ATOM      6  C   LIG d   1     -10.305  80.220 119.858  0.00  0.00     0.091 C 
ENDROOT
BRANCH   1   7
ATOM      7  O   LIG d   1      -9.013  81.191 118.016  0.00  0.00    -0.368 OA
BRANCH   7   8
ATOM      8  C   LIG d   1      -7.774  81.942 118.031  0.00  0.00     0.119 C 
BRANCH   8   9
ATOM      9  C   LIG d   1      -6.723  81.088 118.765  0.00  0.00     0.028 C 
ATOM     10  C   LIG d   1      -5.735  80.413 117.799  0.00  0.00     0.006 C 
ENDBRANCH   8   9
BRANCH   8  11
ATOM     11  C   LIG d   1      -7.908  83.222 118.861  0.00  0.00     0.028 C 
ATOM     12  C   LIG d   1      -6.674  83.498 119.735  0.00  0.00     0.006 C 
ENDBRANCH   8  11
ENDBRANCH   7   8
ENDBRANCH   1   7
BRANCH   6  13
ATOM     13  N   LIG d   1      -9.970  81.252 120.873  0.00  0.00    -0.311 N 
ATOM     14  C   LIG d   1      -8.992  81.111 121.767  0.00  0.00     0.210 C 
ATOM     15  C   LIG d   1      -8.828  82.285 122.736  0.00  0.00     0.109 C 
ATOM     16  O   LIG d   1      -8.225  80.138 121.828  0.00  0.00    -0.276 OA
ATOM     17  H   LIG d   1     -10.523  82.087 120.875  0.00  0.00     0.149 HD
ENDBRANCH   6  13
BRANCH   5  18
ATOM     18  N   LIG d   1     -11.930  78.949 121.305  0.00  0.00     0.381 N 
ATOM     19  H   LIG d   1     -11.853  79.695 121.968  0.00  0.00    -0.090 HD
ATOM     20  H   LIG d   1     -12.044  78.088 121.811  0.00  0.00    -0.090 HD
ATOM     21  H   LIG d   1     -12.717  79.101 120.713  0.00  0.00    -0.090 HD
ENDBRANCH   5  18
BRANCH   3  22
ATOM     22  C   LIG d   1      -9.651  76.553 117.841  0.00  0.00     0.382 C 
ATOM     23  O   LIG d   1     -10.600  75.757 117.641  0.00  0.00    -0.241 OA
ATOM     24  O   LIG d   1      -8.495  76.224 117.512  0.00  0.00    -0.241 OA
ENDBRANCH   3  22
TORSDOF 7
ENDMDL
MODEL 5
REMARK VINA RESULT:      -4.6     22.909     25.458
REMARK  7 active torsions:
REMARK  status: ('A' for Active; 'I' for Inactive)
REMARK    1  A    between atoms: C_2  and  C_3 
REMARK    2  A    between atoms: C_3  and  O_6 
REMARK    3  A    between atoms: C_3  and  C_4 
REMARK    4  A    between atoms: C_7  and  O_6 
REMARK    5  A    between atoms: C_9  and  C_10 
REMARK    6  A    between atoms: N_15  and  C_14 
REMARK    7  A    between atoms: N_20  and  C_19 
REMARK       I    between atoms: C_22  and  N_20 
ROOT
ATOM      1  C   LIG d   1       0.550  58.049 120.549  0.00  0.00     0.161 C 
ATOM      2  C   LIG d   1      -0.081  59.302 120.614  0.00  0.00     0.016 C 
ATOM      3  C   LIG d   1      -1.472  59.464 120.811  0.00  0.00     0.038 C 
ATOM      4  C   LIG d   1      -2.310  58.379 121.109  0.00  0.00     0.028 C 
ATOM      5  C   LIG d   1      -1.803  57.052 120.554  0.00  0.00    -0.047 C 
ATOM      6  C   LIG d   1      -0.331  56.858 120.983  0.00  0.00     0.091 C 
ENDROOT
BRANCH   1   7
ATOM      7  O   LIG d   1       1.770  58.075 121.316  0.00  0.00    -0.368 OA
BRANCH   7   8
ATOM      8  C   LIG d   1       3.002  58.107 120.554  0.00  0.00     0.119 C 
BRANCH   8   9
ATOM      9  C   LIG d   1       3.541  59.549 120.605  0.00  0.00     0.028 C 
ATOM     10  C   LIG d   1       3.765  60.142 119.204  0.00  0.00     0.006 C 
ENDBRANCH   8   9
BRANCH   8  11
ATOM     11  C   LIG d   1       2.747  57.822 119.071  0.00  0.00     0.028 C 
ATOM     12  C   LIG d   1       3.228  56.427 118.641  0.00  0.00     0.006 C 
ENDBRANCH   8  11
ENDBRANCH   7   8
ENDBRANCH   1   7
BRANCH   6  13
ATOM     13  N   LIG d   1       0.268  55.624 120.411  0.00  0.00    -0.311 N 
ATOM     14  C   LIG d   1       0.991  54.762 121.123  0.00  0.00     0.210 C 
ATOM     15  C   LIG d   1       1.533  53.565 120.335  0.00  0.00     0.109 C 
ATOM     16  O   LIG d   1       1.208  54.857 122.341  0.00  0.00    -0.276 OA
ATOM     17  H   LIG d   1       0.116  55.452 119.436  0.00  0.00     0.149 HD
ENDBRANCH   6  13
BRANCH   5  18
ATOM     18  N   LIG d   1      -2.696  55.990 121.054  0.00  0.00     0.381 N 
ATOM     19  H   LIG d   1      -2.221  55.447 121.747  0.00  0.00    -0.090 HD
ATOM     20  H   LIG d   1      -2.939  55.383 120.290  0.00  0.00    -0.090 HD
ATOM     21  H   LIG d   1      -3.519  56.392 121.444  0.00  0.00    -0.090 HD
ENDBRANCH   5  18
BRANCH   3  22
ATOM     22  C   LIG d   1      -2.044  60.719 120.671  0.00  0.00     0.382 C 
ATOM     23  O   LIG d   1      -3.284  60.861 120.802  0.00  0.00    -0.241 OA
ATOM     24  O   LIG d   1      -1.342  61.704 120.373  0.00  0.00    -0.241 OA
ENDBRANCH   3  22
TORSDOF 7
ENDMDL
MODEL 6
REMARK VINA RESULT:      -4.5      3.046      5.963
REMARK  7 active torsions:
REMARK  status: ('A' for Active; 'I' for Inactive)
REMARK    1  A    between atoms: C_2  and  C_3 
REMARK    2  A    between atoms: C_3  and  O_6 
REMARK    3  A    between atoms: C_3  and  C_4 
REMARK    4  A    between atoms: C_7  and  O_6 
REMARK    5  A    between atoms: C_9  and  C_10 
REMARK    6  A    between atoms: N_15  and  C_14 
REMARK    7  A    between atoms: N_20  and  C_19 
REMARK       I    between atoms: C_22  and  N_20 
ROOT
ATOM      1  C   LIG d   1      -6.527  81.266 118.738  0.00  0.00     0.161 C 
ATOM      2  C   LIG d   1      -5.275  81.486 119.335  0.00  0.00     0.016 C 
ATOM      3  C   LIG d   1      -4.961  82.646 120.080  0.00  0.00     0.038 C 
ATOM      4  C   LIG d   1      -5.933  83.602 120.408  0.00  0.00     0.028 C 
ATOM      5  C   LIG d   1      -7.078  83.670 119.403  0.00  0.00    -0.047 C 
ATOM      6  C   LIG d   1      -7.635  82.246 119.178  0.00  0.00     0.091 C 
ENDROOT
BRANCH   1   7
ATOM      7  O   LIG d   1      -6.944  79.904 118.964  0.00  0.00    -0.368 OA
BRANCH   7   8
ATOM      8  C   LIG d   1      -6.658  78.965 117.899  0.00  0.00     0.119 C 
BRANCH   8   9
ATOM      9  C   LIG d   1      -7.855  78.000 117.799  0.00  0.00     0.028 C 
ATOM     10  C   LIG d   1      -9.134  78.585 118.422  0.00  0.00     0.006 C 
ENDBRANCH   8   9
BRANCH   8  11
ATOM     11  C   LIG d   1      -5.454  78.083 118.242  0.00  0.00     0.028 C 
ATOM     12  C   LIG d   1      -4.344  78.152 117.181  0.00  0.00     0.006 C 
ENDBRANCH   8  11
ENDBRANCH   7   8
ENDBRANCH   1   7
BRANCH   6  13
ATOM     13  N   LIG d   1      -8.703  82.211 118.146  0.00  0.00    -0.311 N 
ATOM     14  C   LIG d   1     -10.002  82.277 118.433  0.00  0.00     0.210 C 
ATOM     15  C   LIG d   1     -10.936  82.204 117.221  0.00  0.00     0.109 C 
ATOM     16  O   LIG d   1     -10.468  82.421 119.573  0.00  0.00    -0.276 OA
ATOM     17  H   LIG d   1      -8.412  82.126 117.191  0.00  0.00     0.149 HD
ENDBRANCH   6  13
BRANCH   5  18
ATOM     18  N   LIG d   1      -8.085  84.606 119.938  0.00  0.00     0.381 N 
ATOM     19  H   LIG d   1      -8.986  84.172 119.937  0.00  0.00    -0.090 HD
ATOM     20  H   LIG d   1      -8.125  85.416 119.344  0.00  0.00    -0.090 HD
ATOM     21  H   LIG d   1      -7.840  84.878 120.865  0.00  0.00    -0.090 HD
ENDBRANCH   5  18
BRANCH   3  22
ATOM     22  C   LIG d   1      -3.651  82.877 120.471  0.00  0.00     0.382 C 
ATOM     23  O   LIG d   1      -3.251  82.476 121.590  0.00  0.00    -0.241 OA
ATOM     24  O   LIG d   1      -2.877  83.521 119.737  0.00  0.00    -0.241 OA
ENDBRANCH   3  22
TORSDOF 7
ENDMDL
MODEL 7
REMARK VINA RESULT:      -4.5      2.467      5.916
REMARK  7 active torsions:
REMARK  status: ('A' for Active; 'I' for Inactive)
REMARK    1  A    between atoms: C_2  and  C_3 
REMARK    2  A    between atoms: C_3  and  O_6 
REMARK    3  A    between atoms: C_3  and  C_4 
REMARK    4  A    between atoms: C_7  and  O_6 
REMARK    5  A    between atoms: C_9  and  C_10 
REMARK    6  A    between atoms: N_15  and  C_14 
REMARK    7  A    between atoms: N_20  and  C_19 
REMARK       I    between atoms: C_22  and  N_20 
ROOT
ATOM      1  C   LIG d   1      -9.633  81.722 120.889  0.00  0.00     0.161 C 
ATOM      2  C   LIG d   1     -10.380  82.560 121.734  0.00  0.00     0.016 C 
ATOM      3  C   LIG d   1     -10.162  83.954 121.837  0.00  0.00     0.038 C 
ATOM      4  C   LIG d   1      -9.278  84.631 120.985  0.00  0.00     0.028 C 
ATOM      5  C   LIG d   1      -8.142  83.754 120.469  0.00  0.00    -0.047 C 
ATOM      6  C   LIG d   1      -8.740  82.461 119.870  0.00  0.00     0.091 C 
ENDROOT
BRANCH   1   7
ATOM      7  O   LIG d   1     -10.513  80.804 120.211  0.00  0.00    -0.368 OA
BRANCH   7   8
ATOM      8  C   LIG d   1     -10.380  79.408 120.575  0.00  0.00     0.119 C 
BRANCH   8   9
ATOM      9  C   LIG d   1     -10.730  78.569 119.330  0.00  0.00     0.028 C 
ATOM     10  C   LIG d   1      -9.505  78.298 118.441  0.00  0.00     0.006 C 
ENDBRANCH   8   9
BRANCH   8  11
ATOM     11  C   LIG d   1     -11.410  79.008 121.636  0.00  0.00     0.028 C 
ATOM     12  C   LIG d   1     -11.613  77.487 121.726  0.00  0.00     0.006 C 
ENDBRANCH   8  11
ENDBRANCH   7   8
ENDBRANCH   1   7
BRANCH   6  13
ATOM     13  N   LIG d   1      -7.692  81.509 119.418  0.00  0.00    -0.311 N 
ATOM     14  C   LIG d   1      -7.418  81.275 118.136  0.00  0.00     0.210 C 
ATOM     15  C   LIG d   1      -6.314  80.242 117.889  0.00  0.00     0.109 C 
ATOM     16  O   LIG d   1      -7.962  81.849 117.180  0.00  0.00    -0.276 OA
ATOM     17  H   LIG d   1      -7.180  81.023 120.128  0.00  0.00     0.149 HD
ENDBRANCH   6  13
BRANCH   5  18
ATOM     18  N   LIG d   1      -7.378  84.547 119.487  0.00  0.00     0.381 N 
ATOM     19  H   LIG d   1      -7.078  85.405 119.904  0.00  0.00    -0.090 HD
ATOM     20  H   LIG d   1      -7.977  84.767 118.710  0.00  0.00    -0.090 HD
ATOM     21  H   LIG d   1      -6.589  84.028 119.170  0.00  0.00    -0.090 HD
ENDBRANCH   5  18
BRANCH   3  22
ATOM     22  C   LIG d   1     -10.805  84.677 122.830  0.00  0.00     0.382 C 
ATOM     23  O   LIG d   1     -10.918  85.923 122.725  0.00  0.00    -0.241 OA
ATOM     24  O   LIG d   1     -11.235  84.107 123.850  0.00  0.00    -0.241 OA
ENDBRANCH   3  22
TORSDOF 7
ENDMDL
MODEL 8
REMARK VINA RESULT:      -4.5     21.675     24.310
REMARK  7 active torsions:
REMARK  status: ('A' for Active; 'I' for Inactive)
REMARK    1  A    between atoms: C_2  and  C_3 
REMARK    2  A    between atoms: C_3  and  O_6 
REMARK    3  A    between atoms: C_3  and  C_4 
REMARK    4  A    between atoms: C_7  and  O_6 
REMARK    5  A    between atoms: C_9  and  C_10 
REMARK    6  A    between atoms: N_15  and  C_14 
REMARK    7  A    between atoms: N_20  and  C_19 
REMARK       I    between atoms: C_22  and  N_20 
ROOT
ATOM      1  C   LIG d   1       0.448  59.352 119.999  0.00  0.00     0.161 C 
ATOM      2  C   LIG d   1       1.847  59.396 120.114  0.00  0.00     0.016 C 
ATOM      3  C   LIG d   1       2.524  60.168 121.086  0.00  0.00     0.038 C 
ATOM      4  C   LIG d   1       1.839  60.833 122.114  0.00  0.00     0.028 C 
ATOM      5  C   LIG d   1       0.415  61.226 121.736  0.00  0.00    -0.047 C 
ATOM      6  C   LIG d   1      -0.318  59.983 121.180  0.00  0.00     0.091 C 
ENDROOT
BRANCH   1   7
ATOM      7  O   LIG d   1       0.018  57.992 119.792  0.00  0.00    -0.368 OA
BRANCH   7   8
ATOM      8  C   LIG d   1       0.179  57.094 120.918  0.00  0.00     0.119 C 
BRANCH   8   9
ATOM      9  C   LIG d   1       1.095  55.941 120.463  0.00  0.00     0.028 C 
ATOM     10  C   LIG d   1       1.190  55.837 118.932  0.00  0.00     0.006 C 
ENDBRANCH   8   9
BRANCH   8  11
ATOM     11  C   LIG d   1      -1.149  56.432 121.298  0.00  0.00     0.028 C 
ATOM     12  C   LIG d   1      -2.272  56.729 120.291  0.00  0.00     0.006 C 
ENDBRANCH   8  11
ENDBRANCH   7   8
ENDBRANCH   1   7
BRANCH   6  13
ATOM     13  N   LIG d   1      -1.692  60.299 120.708  0.00  0.00    -0.311 N 
ATOM     14  C   LIG d   1      -2.778  60.153 121.465  0.00  0.00     0.210 C 
ATOM     15  C   LIG d   1      -4.098  60.517 120.777  0.00  0.00     0.109 C 
ATOM     16  O   LIG d   1      -2.771  59.789 122.650  0.00  0.00    -0.276 OA
ATOM     17  H   LIG d   1      -1.786  60.631 119.769  0.00  0.00     0.149 HD
ENDBRANCH   6  13
BRANCH   5  18
ATOM     18  N   LIG d   1      -0.228  61.786 122.940  0.00  0.00     0.381 N 
ATOM     19  H   LIG d   1      -0.660  61.052 123.465  0.00  0.00    -0.090 HD
ATOM     20  H   LIG d   1      -0.941  62.434 122.657  0.00  0.00    -0.090 HD
ATOM     21  H   LIG d   1       0.450  62.251 123.503  0.00  0.00    -0.090 HD
ENDBRANCH   5  18
BRANCH   3  22
ATOM     22  C   LIG d   1       3.902  60.311 121.013  0.00  0.00     0.382 C 
ATOM     23  O   LIG d   1       4.618  59.999 121.995  0.00  0.00    -0.241 OA
ATOM     24  O   LIG d   1       4.434  60.790 119.994  0.00  0.00    -0.241 OA
ENDBRANCH   3  22
TORSDOF 7
ENDMDL
MODEL 9
REMARK VINA RESULT:      -4.3     12.333     14.472
REMARK  7 active torsions:
REMARK  status: ('A' for Active; 'I' for Inactive)
REMARK    1  A    between atoms: C_2  and  C_3 
REMARK    2  A    between atoms: C_3  and  O_6 
REMARK    3  A    between atoms: C_3  and  C_4 
REMARK    4  A    between atoms: C_7  and  O_6 
REMARK    5  A    between atoms: C_9  and  C_10 
REMARK    6  A    between atoms: N_15  and  C_14 
REMARK    7  A    between atoms: N_20  and  C_19 
REMARK       I    between atoms: C_22  and  N_20 
ROOT
ATOM      1  C   LIG d   1      -4.655  93.362 119.412  0.00  0.00     0.161 C 
ATOM      2  C   LIG d   1      -5.848  93.277 118.675  0.00  0.00     0.016 C 
ATOM      3  C   LIG d   1      -6.832  94.292 118.667  0.00  0.00     0.038 C 
ATOM      4  C   LIG d   1      -6.619  95.536 119.280  0.00  0.00     0.028 C 
ATOM      5  C   LIG d   1      -5.647  95.474 120.453  0.00  0.00    -0.047 C 
ATOM      6  C   LIG d   1      -4.355  94.758 119.997  0.00  0.00     0.091 C 
ENDROOT
BRANCH   1   7
ATOM      7  O   LIG d   1      -3.549  92.909 118.605  0.00  0.00    -0.368 OA
BRANCH   7   8
ATOM      8  C   LIG d   1      -2.912  91.680 119.031  0.00  0.00     0.119 C 
BRANCH   8   9
ATOM      9  C   LIG d   1      -1.420  91.777 118.656  0.00  0.00     0.028 C 
ATOM     10  C   LIG d   1      -0.507  91.840 119.892  0.00  0.00     0.006 C 
ENDBRANCH   8   9
BRANCH   8  11
ATOM     11  C   LIG d   1      -3.448  90.475 118.251  0.00  0.00     0.028 C 
ATOM     12  C   LIG d   1      -2.471  89.289 118.241  0.00  0.00     0.006 C 
ENDBRANCH   8  11
ENDBRANCH   7   8
ENDBRANCH   1   7
BRANCH   6  13
ATOM     13  N   LIG d   1      -3.383  94.581 121.108  0.00  0.00    -0.311 N 
ATOM     14  C   LIG d   1      -2.106  94.950 121.030  0.00  0.00     0.210 C 
ATOM     15  C   LIG d   1      -1.271  94.658 122.281  0.00  0.00     0.109 C 
ATOM     16  O   LIG d   1      -1.593  95.521 120.056  0.00  0.00    -0.276 OA
ATOM     17  H   LIG d   1      -3.723  94.153 121.947  0.00  0.00     0.149 HD
ENDBRANCH   6  13
BRANCH   5  18
ATOM     18  N   LIG d   1      -5.411  96.857 120.909  0.00  0.00     0.381 N 
ATOM     19  H   LIG d   1      -5.537  97.492 120.146  0.00  0.00    -0.090 HD
ATOM     20  H   LIG d   1      -4.462  96.936 121.232  0.00  0.00    -0.090 HD
ATOM     21  H   LIG d   1      -6.040  97.085 121.647  0.00  0.00    -0.090 HD
ENDBRANCH   5  18
BRANCH   3  22
ATOM     22  C   LIG d   1      -8.062  94.052 118.073  0.00  0.00     0.382 C 
ATOM     23  O   LIG d   1      -9.079  94.672 118.466  0.00  0.00    -0.241 OA
ATOM     24  O   LIG d   1      -8.175  93.192 117.180  0.00  0.00    -0.241 OA
ENDBRANCH   3  22
TORSDOF 7
ENDMDL
