MODEL 1
REMARK VINA RESULT:      -7.0      0.000      0.000
REMARK  7 active torsions:
REMARK  status: ('A' for Active; 'I' for Inactive)
REMARK    1  A    between atoms: C_2  and  C_3 
REMARK    2  A    between atoms: C_3  and  O_6 
REMARK    3  A    between atoms: C_3  and  C_4 
REMARK    4  A    between atoms: C_7  and  O_6 
REMARK    5  A    between atoms: C_9  and  C_10 
REMARK    6  A    between atoms: N_15  and  C_14 
REMARK    7  A    between atoms: N_20  and  C_19 
REMARK       I    between atoms: C_22  and  N_20 
ROOT
ATOM      1  C   LIG d   1       0.915  83.896 109.233  0.00  0.00     0.161 C 
ATOM      2  C   LIG d   1       0.629  85.194 109.687  0.00  0.00     0.016 C 
ATOM      3  C   LIG d   1      -0.181  85.465 110.813  0.00  0.00     0.038 C 
ATOM      4  C   LIG d   1      -0.641  84.443 111.658  0.00  0.00     0.028 C 
ATOM      5  C   LIG d   1      -0.799  83.100 110.954  0.00  0.00    -0.047 C 
ATOM      6  C   LIG d   1       0.513  82.768 110.207  0.00  0.00     0.091 C 
ENDROOT
BRANCH   1   7
ATOM      7  O   LIG d   1       2.312  83.792 108.895  0.00  0.00    -0.368 OA
BRANCH   7   8
ATOM      8  C   LIG d   1       3.208  83.456 109.983  0.00  0.00     0.119 C 
BRANCH   8   9
ATOM      9  C   LIG d   1       3.697  84.778 110.605  0.00  0.00     0.028 C 
ATOM     10  C   LIG d   1       3.465  84.833 112.125  0.00  0.00     0.006 C 
ENDBRANCH   8   9
BRANCH   8  11
ATOM     11  C   LIG d   1       4.470  82.757 109.470  0.00  0.00     0.028 C 
ATOM     12  C   LIG d   1       4.186  81.790 108.309  0.00  0.00     0.006 C 
ENDBRANCH   8  11
ENDBRANCH   7   8
ENDBRANCH   1   7
BRANCH   6  13
ATOM     13  N   LIG d   1       0.416  81.510 109.422  0.00  0.00    -0.311 N 
ATOM     14  C   LIG d   1       1.130  80.419 109.694  0.00  0.00     0.210 C 
ATOM     15  C   LIG d   1       0.891  79.237 108.748  0.00  0.00     0.109 C 
ATOM     16  O   LIG d   1       1.915  80.307 110.647  0.00  0.00    -0.276 OA
ATOM     17  H   LIG d   1      -0.221  81.502 108.649  0.00  0.00     0.149 HD
ENDBRANCH   6  13
BRANCH   5  18
ATOM     18  N   LIG d   1      -1.150  82.098 111.978  0.00  0.00     0.381 N 
ATOM     19  H   LIG d   1      -1.908  82.437 112.537  0.00  0.00    -0.090 HD
ATOM     20  H   LIG d   1      -0.356  81.953 112.577  0.00  0.00    -0.090 HD
ATOM     21  H   LIG d   1      -1.408  81.240 111.542  0.00  0.00    -0.090 HD
ENDBRANCH   5  18
BRANCH   3  22
ATOM     22  C   LIG d   1      -0.572  86.767 111.082  0.00  0.00     0.382 C 
ATOM     23  O   LIG d   1      -1.761  87.118 110.884  0.00  0.00    -0.241 OA
ATOM     24  O   LIG d   1       0.258  87.608 111.476  0.00  0.00    -0.241 OA
ENDBRANCH   3  22
TORSDOF 7
ENDMDL
MODEL 2
REMARK VINA RESULT:      -6.6      2.569      4.385
REMARK  7 active torsions:
REMARK  status: ('A' for Active; 'I' for Inactive)
REMARK    1  A    between atoms: C_2  and  C_3 
REMARK    2  A    between atoms: C_3  and  O_6 
REMARK    3  A    between atoms: C_3  and  C_4 
REMARK    4  A    between atoms: C_7  and  O_6 
REMARK    5  A    between atoms: C_9  and  C_10 
REMARK    6  A    between atoms: N_15  and  C_14 
REMARK    7  A    between atoms: N_20  and  C_19 
REMARK       I    between atoms: C_22  and  N_20 
ROOT
ATOM      1  C   LIG d   1       0.220  82.515 111.055  0.00  0.00     0.161 C 
ATOM      2  C   LIG d   1      -0.904  82.212 111.842  0.00  0.00     0.016 C 
ATOM      3  C   LIG d   1      -1.395  80.899 112.025  0.00  0.00     0.038 C 
ATOM      4  C   LIG d   1      -0.700  79.775 111.553  0.00  0.00     0.028 C 
ATOM      5  C   LIG d   1       0.161  80.066 110.329  0.00  0.00    -0.047 C 
ATOM      6  C   LIG d   1       1.055  81.291 110.623  0.00  0.00     0.091 C 
ENDROOT
BRANCH   1   7
ATOM      7  O   LIG d   1       1.051  83.473 111.739  0.00  0.00    -0.368 OA
BRANCH   7   8
ATOM      8  C   LIG d   1       1.128  84.791 111.142  0.00  0.00     0.119 C 
BRANCH   8   9
ATOM      9  C   LIG d   1       0.222  84.788 109.895  0.00  0.00     0.028 C 
ATOM     10  C   LIG d   1      -0.834  85.905 109.934  0.00  0.00     0.006 C 
ENDBRANCH   8   9
BRANCH   8  11
ATOM     11  C   LIG d   1       2.537  85.086 110.620  0.00  0.00     0.028 C 
ATOM     12  C   LIG d   1       3.143  86.360 111.227  0.00  0.00     0.006 C 
ENDBRANCH   8  11
ENDBRANCH   7   8
ENDBRANCH   1   7
BRANCH   6  13
ATOM     13  N   LIG d   1       1.869  81.695 109.447  0.00  0.00    -0.311 N 
ATOM     14  C   LIG d   1       3.200  81.758 109.463  0.00  0.00     0.210 C 
ATOM     15  C   LIG d   1       3.841  82.216 108.150  0.00  0.00     0.109 C 
ATOM     16  O   LIG d   1       3.911  81.446 110.430  0.00  0.00    -0.276 OA
ATOM     17  H   LIG d   1       1.375  81.935 108.611  0.00  0.00     0.149 HD
ENDBRANCH   6  13
BRANCH   5  18
ATOM     18  N   LIG d   1       0.933  78.845 110.027  0.00  0.00     0.381 N 
ATOM     19  H   LIG d   1       0.309  78.097 109.799  0.00  0.00    -0.090 HD
ATOM     20  H   LIG d   1       1.456  78.582 110.844  0.00  0.00    -0.090 HD
ATOM     21  H   LIG d   1       1.554  79.014 109.266  0.00  0.00    -0.090 HD
ENDBRANCH   5  18
BRANCH   3  22
ATOM     22  C   LIG d   1      -2.615  80.703 112.654  0.00  0.00     0.382 C 
ATOM     23  O   LIG d   1      -2.784  79.707 113.397  0.00  0.00    -0.241 OA
ATOM     24  O   LIG d   1      -3.563  81.486 112.451  0.00  0.00    -0.241 OA
ENDBRANCH   3  22
TORSDOF 7
ENDMDL
MODEL 3
REMARK VINA RESULT:      -6.5      2.389      4.661
REMARK  7 active torsions:
REMARK  status: ('A' for Active; 'I' for Inactive)
REMARK    1  A    between atoms: C_2  and  C_3 
REMARK    2  A    between atoms: C_3  and  O_6 
REMARK    3  A    between atoms: C_3  and  C_4 
REMARK    4  A    between atoms: C_7  and  O_6 
REMARK    5  A    between atoms: C_9  and  C_10 
REMARK    6  A    between atoms: N_15  and  C_14 
REMARK    7  A    between atoms: N_20  and  C_19 
REMARK       I    between atoms: C_22  and  N_20 
ROOT
ATOM      1  C   LIG d   1       1.629  82.293 111.507  0.00  0.00     0.161 C 
ATOM      2  C   LIG d   1       2.334  82.654 110.347  0.00  0.00     0.016 C 
ATOM      3  C   LIG d   1       2.179  81.994 109.106  0.00  0.00     0.038 C 
ATOM      4  C   LIG d   1       1.191  81.019 108.902  0.00  0.00     0.028 C 
ATOM      5  C   LIG d   1       0.804  80.275 110.175  0.00  0.00    -0.047 C 
ATOM      6  C   LIG d   1       0.466  81.305 111.277  0.00  0.00     0.091 C 
ENDROOT
BRANCH   1   7
ATOM      7  O   LIG d   1       1.155  83.477 112.178  0.00  0.00    -0.368 OA
BRANCH   7   8
ATOM      8  C   LIG d   1       1.024  84.665 111.359  0.00  0.00     0.119 C 
BRANCH   8   9
ATOM      9  C   LIG d   1       1.742  85.815 112.092  0.00  0.00     0.028 C 
ATOM     10  C   LIG d   1       2.836  86.467 111.231  0.00  0.00     0.006 C 
ENDBRANCH   8   9
BRANCH   8  11
ATOM     11  C   LIG d   1      -0.439  85.106 111.247  0.00  0.00     0.028 C 
ATOM     12  C   LIG d   1      -0.836  85.493 109.814  0.00  0.00     0.006 C 
ENDBRANCH   8  11
ENDBRANCH   7   8
ENDBRANCH   1   7
BRANCH   6  13
ATOM     13  N   LIG d   1       0.158  80.662 112.580  0.00  0.00    -0.311 N 
ATOM     14  C   LIG d   1      -1.073  80.315 112.954  0.00  0.00     0.210 C 
ATOM     15  C   LIG d   1      -1.172  79.683 114.346  0.00  0.00     0.109 C 
ATOM     16  O   LIG d   1      -2.087  80.442 112.251  0.00  0.00    -0.276 OA
ATOM     17  H   LIG d   1       0.927  80.494 113.199  0.00  0.00     0.149 HD
ENDBRANCH   6  13
BRANCH   5  18
ATOM     18  N   LIG d   1      -0.329  79.388 109.846  0.00  0.00     0.381 N 
ATOM     19  H   LIG d   1      -0.717  79.649 108.962  0.00  0.00    -0.090 HD
ATOM     20  H   LIG d   1      -1.040  79.496 110.547  0.00  0.00    -0.090 HD
ATOM     21  H   LIG d   1      -0.023  78.441 109.816  0.00  0.00    -0.090 HD
ENDBRANCH   5  18
BRANCH   3  22
ATOM     22  C   LIG d   1       3.047  82.280 108.062  0.00  0.00     0.382 C 
ATOM     23  O   LIG d   1       4.276  82.061 108.191  0.00  0.00    -0.241 OA
ATOM     24  O   LIG d   1       2.622  82.795 107.011  0.00  0.00    -0.241 OA
ENDBRANCH   3  22
TORSDOF 7
ENDMDL
MODEL 4
REMARK VINA RESULT:      -6.2      2.580      4.821
REMARK  7 active torsions:
REMARK  status: ('A' for Active; 'I' for Inactive)
REMARK    1  A    between atoms: C_2  and  C_3 
REMARK    2  A    between atoms: C_3  and  O_6 
REMARK    3  A    between atoms: C_3  and  C_4 
REMARK    4  A    between atoms: C_7  and  O_6 
REMARK    5  A    between atoms: C_9  and  C_10 
REMARK    6  A    between atoms: N_15  and  C_14 
REMARK    7  A    between atoms: N_20  and  C_19 
REMARK       I    between atoms: C_22  and  N_20 
ROOT
ATOM      1  C   LIG d   1       2.236  83.304 111.743  0.00  0.00     0.161 C 
ATOM      2  C   LIG d   1       1.224  82.332 111.664  0.00  0.00     0.016 C 
ATOM      3  C   LIG d   1      -0.151  82.646 111.572  0.00  0.00     0.038 C 
ATOM      4  C   LIG d   1      -0.601  83.964 111.399  0.00  0.00     0.028 C 
ATOM      5  C   LIG d   1       0.346  85.008 111.979  0.00  0.00    -0.047 C 
ATOM      6  C   LIG d   1       1.772  84.745 111.444  0.00  0.00     0.091 C 
ENDROOT
BRANCH   1   7
ATOM      7  O   LIG d   1       3.331  82.941 110.880  0.00  0.00    -0.368 OA
BRANCH   7   8
ATOM      8  C   LIG d   1       2.993  82.131 109.727  0.00  0.00     0.119 C 
BRANCH   8   9
ATOM      9  C   LIG d   1       4.007  80.973 109.661  0.00  0.00     0.028 C 
ATOM     10  C   LIG d   1       3.324  79.603 109.515  0.00  0.00     0.006 C 
ENDBRANCH   8   9
BRANCH   8  11
ATOM     11  C   LIG d   1       3.182  82.912 108.423  0.00  0.00     0.028 C 
ATOM     12  C   LIG d   1       1.867  83.117 107.655  0.00  0.00     0.006 C 
ENDBRANCH   8  11
ENDBRANCH   7   8
ENDBRANCH   1   7
BRANCH   6  13
ATOM     13  N   LIG d   1       2.777  85.671 112.029  0.00  0.00    -0.311 N 
ATOM     14  C   LIG d   1       2.995  86.902 111.569  0.00  0.00     0.210 C 
ATOM     15  C   LIG d   1       4.089  87.683 112.304  0.00  0.00     0.109 C 
ATOM     16  O   LIG d   1       2.363  87.434 110.644  0.00  0.00    -0.276 OA
ATOM     17  H   LIG d   1       3.313  85.332 112.804  0.00  0.00     0.149 HD
ENDBRANCH   6  13
BRANCH   5  18
ATOM     18  N   LIG d   1      -0.175  86.338 111.608  0.00  0.00     0.381 N 
ATOM     19  H   LIG d   1       0.451  86.779 110.965  0.00  0.00    -0.090 HD
ATOM     20  H   LIG d   1      -0.231  86.907 112.435  0.00  0.00    -0.090 HD
ATOM     21  H   LIG d   1      -1.077  86.247 111.196  0.00  0.00    -0.090 HD
ENDBRANCH   5  18
BRANCH   3  22
ATOM     22  C   LIG d   1      -1.096  81.638 111.692  0.00  0.00     0.382 C 
ATOM     23  O   LIG d   1      -0.807  80.465 111.354  0.00  0.00    -0.241 OA
ATOM     24  O   LIG d   1      -2.247  81.896 112.093  0.00  0.00    -0.241 OA
ENDBRANCH   3  22
TORSDOF 7
ENDMDL
MODEL 5
REMARK VINA RESULT:      -5.6      2.404      5.745
REMARK  7 active torsions:
REMARK  status: ('A' for Active; 'I' for Inactive)
REMARK    1  A    between atoms: C_2  and  C_3 
REMARK    2  A    between atoms: C_3  and  O_6 
REMARK    3  A    between atoms: C_3  and  C_4 
REMARK    4  A    between atoms: C_7  and  O_6 
REMARK    5  A    between atoms: C_9  and  C_10 
REMARK    6  A    between atoms: N_15  and  C_14 
REMARK    7  A    between atoms: N_20  and  C_19 
REMARK       I    between atoms: C_22  and  N_20 
ROOT
ATOM      1  C   LIG d   1       1.133  83.073 110.481  0.00  0.00     0.161 C 
ATOM      2  C   LIG d   1       0.635  81.825 110.075  0.00  0.00     0.016 C 
ATOM      3  C   LIG d   1       1.455  80.777 109.596  0.00  0.00     0.038 C 
ATOM      4  C   LIG d   1       2.855  80.856 109.634  0.00  0.00     0.028 C 
ATOM      5  C   LIG d   1       3.384  82.285 109.563  0.00  0.00    -0.047 C 
ATOM      6  C   LIG d   1       2.667  83.139 110.634  0.00  0.00     0.091 C 
ENDROOT
BRANCH   1   7
ATOM      7  O   LIG d   1       0.490  83.482 111.705  0.00  0.00    -0.368 OA
BRANCH   7   8
ATOM      8  C   LIG d   1      -0.485  84.547 111.587  0.00  0.00     0.119 C 
BRANCH   8   9
ATOM      9  C   LIG d   1      -0.990  84.554 110.132  0.00  0.00     0.028 C 
ATOM     10  C   LIG d   1      -0.968  85.961 109.509  0.00  0.00     0.006 C 
ENDBRANCH   8   9
BRANCH   8  11
ATOM     11  C   LIG d   1       0.162  85.919 111.799  0.00  0.00     0.028 C 
ATOM     12  C   LIG d   1       0.766  86.083 113.202  0.00  0.00     0.006 C 
ENDBRANCH   8  11
ENDBRANCH   7   8
ENDBRANCH   1   7
BRANCH   6  13
ATOM     13  N   LIG d   1       3.064  84.570 110.578  0.00  0.00    -0.311 N 
ATOM     14  C   LIG d   1       3.636  85.212 111.595  0.00  0.00     0.210 C 
ATOM     15  C   LIG d   1       3.947  86.690 111.333  0.00  0.00     0.109 C 
ATOM     16  O   LIG d   1       3.944  84.692 112.677  0.00  0.00    -0.276 OA
ATOM     17  H   LIG d   1       2.879  85.061 109.725  0.00  0.00     0.149 HD
ENDBRANCH   6  13
BRANCH   5  18
ATOM     18  N   LIG d   1       4.846  82.229 109.751  0.00  0.00     0.381 N 
ATOM     19  H   LIG d   1       5.058  82.083 110.718  0.00  0.00    -0.090 HD
ATOM     20  H   LIG d   1       5.243  83.108 109.470  0.00  0.00    -0.090 HD
ATOM     21  H   LIG d   1       5.232  81.492 109.204  0.00  0.00    -0.090 HD
ENDBRANCH   5  18
BRANCH   3  22
ATOM     22  C   LIG d   1       0.874  79.651 109.034  0.00  0.00     0.382 C 
ATOM     23  O   LIG d   1      -0.334  79.671 108.695  0.00  0.00    -0.241 OA
ATOM     24  O   LIG d   1       1.530  78.600 108.904  0.00  0.00    -0.241 OA
ENDBRANCH   3  22
TORSDOF 7
ENDMDL
MODEL 6
REMARK VINA RESULT:      -5.5      1.373      2.152
REMARK  7 active torsions:
REMARK  status: ('A' for Active; 'I' for Inactive)
REMARK    1  A    between atoms: C_2  and  C_3 
REMARK    2  A    between atoms: C_3  and  O_6 
REMARK    3  A    between atoms: C_3  and  C_4 
REMARK    4  A    between atoms: C_7  and  O_6 
REMARK    5  A    between atoms: C_9  and  C_10 
REMARK    6  A    between atoms: N_15  and  C_14 
REMARK    7  A    between atoms: N_20  and  C_19 
REMARK       I    between atoms: C_22  and  N_20 
ROOT
ATOM      1  C   LIG d   1       1.740  83.598 109.773  0.00  0.00     0.161 C 
ATOM      2  C   LIG d   1       1.831  84.956 110.120  0.00  0.00     0.016 C 
ATOM      3  C   LIG d   1       0.953  85.587 111.032  0.00  0.00     0.038 C 
ATOM      4  C   LIG d   1       0.012  84.861 111.777  0.00  0.00     0.028 C 
ATOM      5  C   LIG d   1      -0.451  83.582 111.088  0.00  0.00    -0.047 C 
ATOM      6  C   LIG d   1       0.790  82.766 110.660  0.00  0.00     0.091 C 
ENDROOT
BRANCH   1   7
ATOM      7  O   LIG d   1       3.055  83.008 109.756  0.00  0.00    -0.368 OA
BRANCH   7   8
ATOM      8  C   LIG d   1       3.578  82.653 108.453  0.00  0.00     0.119 C 
BRANCH   8   9
ATOM      9  C   LIG d   1       2.378  82.300 107.553  0.00  0.00     0.028 C 
ATOM     10  C   LIG d   1       1.893  83.501 106.724  0.00  0.00     0.006 C 
ENDBRANCH   8   9
BRANCH   8  11
ATOM     11  C   LIG d   1       4.423  81.378 108.520  0.00  0.00     0.028 C 
ATOM     12  C   LIG d   1       3.858  80.340 109.503  0.00  0.00     0.006 C 
ENDBRANCH   8  11
ENDBRANCH   7   8
ENDBRANCH   1   7
BRANCH   6  13
ATOM     13  N   LIG d   1       0.427  81.539 109.903  0.00  0.00    -0.311 N 
ATOM     14  C   LIG d   1       0.218  80.357 110.480  0.00  0.00     0.210 C 
ATOM     15  C   LIG d   1      -0.125  79.218 109.514  0.00  0.00     0.109 C 
ATOM     16  O   LIG d   1       0.253  80.151 111.702  0.00  0.00    -0.276 OA
ATOM     17  H   LIG d   1       0.347  81.624 108.908  0.00  0.00     0.149 HD
ENDBRANCH   6  13
BRANCH   5  18
ATOM     18  N   LIG d   1      -1.322  82.857 112.032  0.00  0.00     0.381 N 
ATOM     19  H   LIG d   1      -0.859  82.759 112.913  0.00  0.00    -0.090 HD
ATOM     20  H   LIG d   1      -1.504  81.939 111.667  0.00  0.00    -0.090 HD
ATOM     21  H   LIG d   1      -2.179  83.351 112.153  0.00  0.00    -0.090 HD
ENDBRANCH   5  18
BRANCH   3  22
ATOM     22  C   LIG d   1       0.986  86.965 111.175  0.00  0.00     0.382 C 
ATOM     23  O   LIG d   1       2.060  87.589 110.997  0.00  0.00    -0.241 OA
ATOM     24  O   LIG d   1      -0.035  87.589 111.524  0.00  0.00    -0.241 OA
ENDBRANCH   3  22
TORSDOF 7
ENDMDL
MODEL 7
REMARK VINA RESULT:      -5.4      2.058      3.791
REMARK  7 active torsions:
REMARK  status: ('A' for Active; 'I' for Inactive)
REMARK    1  A    between atoms: C_2  and  C_3 
REMARK    2  A    between atoms: C_3  and  O_6 
REMARK    3  A    between atoms: C_3  and  C_4 
REMARK    4  A    between atoms: C_7  and  O_6 
REMARK    5  A    between atoms: C_9  and  C_10 
REMARK    6  A    between atoms: N_15  and  C_14 
REMARK    7  A    between atoms: N_20  and  C_19 
REMARK       I    between atoms: C_22  and  N_20 
ROOT
ATOM      1  C   LIG d   1       1.154  83.302 111.447  0.00  0.00     0.161 C 
ATOM      2  C   LIG d   1       0.435  84.486 111.681  0.00  0.00     0.016 C 
ATOM      3  C   LIG d   1       0.052  85.379 110.654  0.00  0.00     0.038 C 
ATOM      4  C   LIG d   1       0.232  85.070 109.298  0.00  0.00     0.028 C 
ATOM      5  C   LIG d   1       1.402  84.127 109.041  0.00  0.00    -0.047 C 
ATOM      6  C   LIG d   1       1.263  82.893 109.963  0.00  0.00     0.091 C 
ENDROOT
BRANCH   1   7
ATOM      7  O   LIG d   1       0.590  82.226 112.223  0.00  0.00    -0.368 OA
BRANCH   7   8
ATOM      8  C   LIG d   1      -0.437  81.440 111.570  0.00  0.00     0.119 C 
BRANCH   8   9
ATOM      9  C   LIG d   1      -1.797  81.901 112.129  0.00  0.00     0.028 C 
ATOM     10  C   LIG d   1      -2.506  80.798 112.933  0.00  0.00     0.006 C 
ENDBRANCH   8   9
BRANCH   8  11
ATOM     11  C   LIG d   1      -0.327  79.959 111.942  0.00  0.00     0.028 C 
ATOM     12  C   LIG d   1      -0.670  79.023 110.772  0.00  0.00     0.006 C 
ENDBRANCH   8  11
ENDBRANCH   7   8
ENDBRANCH   1   7
BRANCH   6  13
ATOM     13  N   LIG d   1       2.412  81.959 109.837  0.00  0.00    -0.311 N 
ATOM     14  C   LIG d   1       2.334  80.780 109.222  0.00  0.00     0.210 C 
ATOM     15  C   LIG d   1       3.630  79.963 109.222  0.00  0.00     0.109 C 
ATOM     16  O   LIG d   1       1.323  80.347 108.648  0.00  0.00    -0.276 OA
ATOM     17  H   LIG d   1       3.279  82.245 110.247  0.00  0.00     0.149 HD
ENDBRANCH   6  13
BRANCH   5  18
ATOM     18  N   LIG d   1       1.390  83.781 107.607  0.00  0.00     0.381 N 
ATOM     19  H   LIG d   1       0.493  83.988 107.217  0.00  0.00    -0.090 HD
ATOM     20  H   LIG d   1       1.557  82.795 107.509  0.00  0.00    -0.090 HD
ATOM     21  H   LIG d   1       2.096  84.294 107.127  0.00  0.00    -0.090 HD
ENDBRANCH   5  18
BRANCH   3  22
ATOM     22  C   LIG d   1      -0.484  86.615 110.983  0.00  0.00     0.382 C 
ATOM     23  O   LIG d   1       0.236  87.484 111.532  0.00  0.00    -0.241 OA
ATOM     24  O   LIG d   1      -1.688  86.856 110.778  0.00  0.00    -0.241 OA
ENDBRANCH   3  22
TORSDOF 7
ENDMDL
MODEL 8
REMARK VINA RESULT:      -5.1      2.251      4.191
REMARK  7 active torsions:
REMARK  status: ('A' for Active; 'I' for Inactive)
REMARK    1  A    between atoms: C_2  and  C_3 
REMARK    2  A    between atoms: C_3  and  O_6 
REMARK    3  A    between atoms: C_3  and  C_4 
REMARK    4  A    between atoms: C_7  and  O_6 
REMARK    5  A    between atoms: C_9  and  C_10 
REMARK    6  A    between atoms: N_15  and  C_14 
REMARK    7  A    between atoms: N_20  and  C_19 
REMARK       I    between atoms: C_22  and  N_20 
ROOT
ATOM      1  C   LIG d   1       1.968  82.248 111.554  0.00  0.00     0.161 C 
ATOM      2  C   LIG d   1       2.324  83.581 111.820  0.00  0.00     0.016 C 
ATOM      3  C   LIG d   1       2.796  84.472 110.830  0.00  0.00     0.038 C 
ATOM      4  C   LIG d   1       2.802  84.133 109.468  0.00  0.00     0.028 C 
ATOM      5  C   LIG d   1       2.929  82.634 109.218  0.00  0.00    -0.047 C 
ATOM      6  C   LIG d   1       1.862  81.894 110.056  0.00  0.00     0.091 C 
ENDROOT
BRANCH   1   7
ATOM      7  O   LIG d   1       0.738  81.926 112.233  0.00  0.00    -0.368 OA
BRANCH   7   8
ATOM      8  C   LIG d   1      -0.484  82.214 111.510  0.00  0.00     0.119 C 
BRANCH   8   9
ATOM      9  C   LIG d   1      -0.748  83.728 111.633  0.00  0.00     0.028 C 
ATOM     10  C   LIG d   1      -0.793  84.428 110.264  0.00  0.00     0.006 C 
ENDBRANCH   8   9
BRANCH   8  11
ATOM     11  C   LIG d   1      -1.692  81.537 112.164  0.00  0.00     0.028 C 
ATOM     12  C   LIG d   1      -1.472  80.037 112.413  0.00  0.00     0.006 C 
ENDBRANCH   8  11
ENDBRANCH   7   8
ENDBRANCH   1   7
BRANCH   6  13
ATOM     13  N   LIG d   1       1.971  80.416 109.934  0.00  0.00    -0.311 N 
ATOM     14  C   LIG d   1       1.027  79.654 109.385  0.00  0.00     0.210 C 
ATOM     15  C   LIG d   1       1.331  78.153 109.379  0.00  0.00     0.109 C 
ATOM     16  O   LIG d   1      -0.019  80.082 108.875  0.00  0.00    -0.276 OA
ATOM     17  H   LIG d   1       2.802  79.989 110.295  0.00  0.00     0.149 HD
ENDBRANCH   6  13
BRANCH   5  18
ATOM     18  N   LIG d   1       2.783  82.411 107.767  0.00  0.00     0.381 N 
ATOM     19  H   LIG d   1       3.516  82.883 107.276  0.00  0.00    -0.090 HD
ATOM     20  H   LIG d   1       1.905  82.794 107.466  0.00  0.00    -0.090 HD
ATOM     21  H   LIG d   1       2.815  81.435 107.568  0.00  0.00    -0.090 HD
ENDBRANCH   5  18
BRANCH   3  22
ATOM     22  C   LIG d   1       3.308  85.706 111.203  0.00  0.00     0.382 C 
ATOM     23  O   LIG d   1       3.958  85.818 112.270  0.00  0.00    -0.241 OA
ATOM     24  O   LIG d   1       3.089  86.717 110.510  0.00  0.00    -0.241 OA
ENDBRANCH   3  22
TORSDOF 7
ENDMDL
MODEL 9
REMARK VINA RESULT:      -4.8     24.786     27.184
REMARK  7 active torsions:
REMARK  status: ('A' for Active; 'I' for Inactive)
REMARK    1  A    between atoms: C_2  and  C_3 
REMARK    2  A    between atoms: C_3  and  O_6 
REMARK    3  A    between atoms: C_3  and  C_4 
REMARK    4  A    between atoms: C_7  and  O_6 
REMARK    5  A    between atoms: C_9  and  C_10 
REMARK    6  A    between atoms: N_15  and  C_14 
REMARK    7  A    between atoms: N_20  and  C_19 
REMARK       I    between atoms: C_22  and  N_20 
ROOT
ATOM      1  C   LIG d   1     -25.609  85.615 113.239  0.00  0.00     0.161 C 
ATOM      2  C   LIG d   1     -24.486  86.413 113.512  0.00  0.00     0.016 C 
ATOM      3  C   LIG d   1     -23.182  85.892 113.677  0.00  0.00     0.038 C 
ATOM      4  C   LIG d   1     -22.885  84.544 113.431  0.00  0.00     0.028 C 
ATOM      5  C   LIG d   1     -24.074  83.613 113.648  0.00  0.00    -0.047 C 
ATOM      6  C   LIG d   1     -25.286  84.155 112.857  0.00  0.00     0.091 C 
ENDROOT
BRANCH   1   7
ATOM      7  O   LIG d   1     -26.413  86.234 112.216  0.00  0.00    -0.368 OA
BRANCH   7   8
ATOM      8  C   LIG d   1     -27.347  87.246 112.666  0.00  0.00     0.119 C 
BRANCH   8   9
ATOM      9  C   LIG d   1     -28.649  87.065 111.861  0.00  0.00     0.028 C 
ATOM     10  C   LIG d   1     -29.484  85.872 112.356  0.00  0.00     0.006 C 
ENDBRANCH   8   9
BRANCH   8  11
ATOM     11  C   LIG d   1     -26.851  88.654 112.324  0.00  0.00     0.028 C 
ATOM     12  C   LIG d   1     -27.951  89.544 111.723  0.00  0.00     0.006 C 
ENDBRANCH   8  11
ENDBRANCH   7   8
ENDBRANCH   1   7
BRANCH   6  13
ATOM     13  N   LIG d   1     -26.515  83.349 113.082  0.00  0.00    -0.311 N 
ATOM     14  C   LIG d   1     -26.883  82.339 112.296  0.00  0.00     0.210 C 
ATOM     15  C   LIG d   1     -28.195  81.655 112.694  0.00  0.00     0.109 C 
ATOM     16  O   LIG d   1     -26.232  81.924 111.325  0.00  0.00    -0.276 OA
ATOM     17  H   LIG d   1     -27.087  83.598 113.865  0.00  0.00     0.149 HD
ENDBRANCH   6  13
BRANCH   5  18
ATOM     18  N   LIG d   1     -23.664  82.261 113.224  0.00  0.00     0.381 N 
ATOM     19  H   LIG d   1     -24.159  81.574 113.757  0.00  0.00    -0.090 HD
ATOM     20  H   LIG d   1     -22.681  82.149 113.399  0.00  0.00    -0.090 HD
ATOM     21  H   LIG d   1     -23.852  82.136 112.253  0.00  0.00    -0.090 HD
ENDBRANCH   5  18
BRANCH   3  22
ATOM     22  C   LIG d   1     -22.165  86.718 114.133  0.00  0.00     0.382 C 
ATOM     23  O   LIG d   1     -22.433  87.869 114.554  0.00  0.00    -0.241 OA
ATOM     24  O   LIG d   1     -20.978  86.342 114.087  0.00  0.00    -0.241 OA
ENDBRANCH   3  22
TORSDOF 7
ENDMDL
