MODEL 1
REMARK VINA RESULT:      -6.6      0.000      0.000
REMARK  7 active torsions:
REMARK  status: ('A' for Active; 'I' for Inactive)
REMARK    1  A    between atoms: C_2  and  C_3 
REMARK    2  A    between atoms: C_3  and  O_6 
REMARK    3  A    between atoms: C_3  and  C_4 
REMARK    4  A    between atoms: C_7  and  O_6 
REMARK    5  A    between atoms: C_9  and  C_10 
REMARK    6  A    between atoms: N_15  and  C_14 
REMARK    7  A    between atoms: N_20  and  C_19 
REMARK       I    between atoms: C_22  and  N_20 
ROOT
ATOM      1  C   LIG d   1       0.392  82.790 110.875  0.00  0.00     0.161 C 
ATOM      2  C   LIG d   1      -0.739  82.508 111.659  0.00  0.00     0.016 C 
ATOM      3  C   LIG d   1      -1.287  81.212 111.797  0.00  0.00     0.038 C 
ATOM      4  C   LIG d   1      -0.646  80.077 111.279  0.00  0.00     0.028 C 
ATOM      5  C   LIG d   1       0.220  80.375 110.059  0.00  0.00    -0.047 C 
ATOM      6  C   LIG d   1       1.170  81.548 110.392  0.00  0.00     0.091 C 
ENDROOT
BRANCH   1   7
ATOM      7  O   LIG d   1       1.270  83.684 111.587  0.00  0.00    -0.368 OA
BRANCH   7   8
ATOM      8  C   LIG d   1       1.363  85.034 111.067  0.00  0.00     0.119 C 
BRANCH   8   9
ATOM      9  C   LIG d   1       0.451  85.116 109.828  0.00  0.00     0.028 C 
ATOM     10  C   LIG d   1      -0.751  86.050 110.045  0.00  0.00     0.006 C 
ENDBRANCH   8   9
BRANCH   8  11
ATOM     11  C   LIG d   1       2.774  85.337 110.554  0.00  0.00     0.028 C 
ATOM     12  C   LIG d   1       3.874  84.758 111.458  0.00  0.00     0.006 C 
ENDBRANCH   8  11
ENDBRANCH   7   8
ENDBRANCH   1   7
BRANCH   6  13
ATOM     13  N   LIG d   1       1.994  81.959 109.225  0.00  0.00    -0.311 N 
ATOM     14  C   LIG d   1       3.324  81.886 109.205  0.00  0.00     0.210 C 
ATOM     15  C   LIG d   1       3.978  82.379 107.910  0.00  0.00     0.109 C 
ATOM     16  O   LIG d   1       4.021  81.430 110.123  0.00  0.00    -0.276 OA
ATOM     17  H   LIG d   1       1.507  82.312 108.424  0.00  0.00     0.149 HD
ENDBRANCH   6  13
BRANCH   5  18
ATOM     18  N   LIG d   1       0.935  79.134 109.707  0.00  0.00     0.381 N 
ATOM     19  H   LIG d   1       1.920  79.264 109.827  0.00  0.00    -0.090 HD
ATOM     20  H   LIG d   1       0.761  78.921 108.740  0.00  0.00    -0.090 HD
ATOM     21  H   LIG d   1       0.620  78.383 110.281  0.00  0.00    -0.090 HD
ENDBRANCH   5  18
BRANCH   3  22
ATOM     22  C   LIG d   1      -2.510  81.047 112.428  0.00  0.00     0.382 C 
ATOM     23  O   LIG d   1      -3.018  79.903 112.522  0.00  0.00    -0.241 OA
ATOM     24  O   LIG d   1      -3.134  82.033 112.864  0.00  0.00    -0.241 OA
ENDBRANCH   3  22
TORSDOF 7
ENDMDL
MODEL 2
REMARK VINA RESULT:      -6.4      1.612      4.887
REMARK  7 active torsions:
REMARK  status: ('A' for Active; 'I' for Inactive)
REMARK    1  A    between atoms: C_2  and  C_3 
REMARK    2  A    between atoms: C_3  and  O_6 
REMARK    3  A    between atoms: C_3  and  C_4 
REMARK    4  A    between atoms: C_7  and  O_6 
REMARK    5  A    between atoms: C_9  and  C_10 
REMARK    6  A    between atoms: N_15  and  C_14 
REMARK    7  A    between atoms: N_20  and  C_19 
REMARK       I    between atoms: C_22  and  N_20 
ROOT
ATOM      1  C   LIG d   1       1.349  83.045 111.439  0.00  0.00     0.161 C 
ATOM      2  C   LIG d   1       2.343  82.780 110.483  0.00  0.00     0.016 C 
ATOM      3  C   LIG d   1       2.351  81.624 109.668  0.00  0.00     0.038 C 
ATOM      4  C   LIG d   1       1.276  80.723 109.649  0.00  0.00     0.028 C 
ATOM      5  C   LIG d   1       0.494  80.685 110.957  0.00  0.00    -0.047 C 
ATOM      6  C   LIG d   1       0.110  82.129 111.354  0.00  0.00     0.091 C 
ENDROOT
BRANCH   1   7
ATOM      7  O   LIG d   1       0.955  84.429 111.363  0.00  0.00    -0.368 OA
BRANCH   7   8
ATOM      8  C   LIG d   1       1.554  85.205 110.296  0.00  0.00     0.119 C 
BRANCH   8   9
ATOM      9  C   LIG d   1       2.187  86.457 110.934  0.00  0.00     0.028 C 
ATOM     10  C   LIG d   1       3.577  86.174 111.527  0.00  0.00     0.006 C 
ENDBRANCH   8   9
BRANCH   8  11
ATOM     11  C   LIG d   1       0.492  85.736 109.329  0.00  0.00     0.028 C 
ATOM     12  C   LIG d   1      -0.856  86.009 110.015  0.00  0.00     0.006 C 
ENDBRANCH   8  11
ENDBRANCH   7   8
ENDBRANCH   1   7
BRANCH   6  13
ATOM     13  N   LIG d   1      -0.586  82.190 112.666  0.00  0.00    -0.311 N 
ATOM     14  C   LIG d   1      -1.899  82.022 112.808  0.00  0.00     0.210 C 
ATOM     15  C   LIG d   1      -2.415  82.144 114.246  0.00  0.00     0.109 C 
ATOM     16  O   LIG d   1      -2.681  81.750 111.885  0.00  0.00    -0.276 OA
ATOM     17  H   LIG d   1      -0.022  82.375 113.473  0.00  0.00     0.149 HD
ENDBRANCH   6  13
BRANCH   5  18
ATOM     18  N   LIG d   1      -0.676  79.811 110.752  0.00  0.00     0.381 N 
ATOM     19  H   LIG d   1      -0.381  78.935 110.369  0.00  0.00    -0.090 HD
ATOM     20  H   LIG d   1      -1.298  80.249 110.095  0.00  0.00    -0.090 HD
ATOM     21  H   LIG d   1      -1.147  79.663 111.617  0.00  0.00    -0.090 HD
ENDBRANCH   5  18
BRANCH   3  22
ATOM     22  C   LIG d   1       3.463  81.340 108.890  0.00  0.00     0.382 C 
ATOM     23  O   LIG d   1       4.220  80.389 109.201  0.00  0.00    -0.241 OA
ATOM     24  O   LIG d   1       3.744  82.051 107.906  0.00  0.00    -0.241 OA
ENDBRANCH   3  22
TORSDOF 7
ENDMDL
MODEL 3
REMARK VINA RESULT:      -6.4      1.891      4.994
REMARK  7 active torsions:
REMARK  status: ('A' for Active; 'I' for Inactive)
REMARK    1  A    between atoms: C_2  and  C_3 
REMARK    2  A    between atoms: C_3  and  O_6 
REMARK    3  A    between atoms: C_3  and  C_4 
REMARK    4  A    between atoms: C_7  and  O_6 
REMARK    5  A    between atoms: C_9  and  C_10 
REMARK    6  A    between atoms: N_15  and  C_14 
REMARK    7  A    between atoms: N_20  and  C_19 
REMARK       I    between atoms: C_22  and  N_20 
ROOT
ATOM      1  C   LIG d   1       1.318  81.877 111.942  0.00  0.00     0.161 C 
ATOM      2  C   LIG d   1       2.446  82.483 111.365  0.00  0.00     0.016 C 
ATOM      3  C   LIG d   1       2.759  82.393 109.989  0.00  0.00     0.038 C 
ATOM      4  C   LIG d   1       1.877  81.813 109.065  0.00  0.00     0.028 C 
ATOM      5  C   LIG d   1       0.973  80.748 109.676  0.00  0.00    -0.047 C 
ATOM      6  C   LIG d   1       0.286  81.334 110.931  0.00  0.00     0.091 C 
ENDROOT
BRANCH   1   7
ATOM      7  O   LIG d   1       0.686  82.792 112.859  0.00  0.00    -0.368 OA
BRANCH   7   8
ATOM      8  C   LIG d   1       0.845  84.202 112.562  0.00  0.00     0.119 C 
BRANCH   8   9
ATOM      9  C   LIG d   1       1.028  84.939 113.903  0.00  0.00     0.028 C 
ATOM     10  C   LIG d   1      -0.293  85.513 114.442  0.00  0.00     0.006 C 
ENDBRANCH   8   9
BRANCH   8  11
ATOM     11  C   LIG d   1      -0.430  84.788 111.948  0.00  0.00     0.028 C 
ATOM     12  C   LIG d   1      -0.303  85.036 110.436  0.00  0.00     0.006 C 
ENDBRANCH   8  11
ENDBRANCH   7   8
ENDBRANCH   1   7
BRANCH   6  13
ATOM     13  N   LIG d   1      -0.552  80.331 111.639  0.00  0.00    -0.311 N 
ATOM     14  C   LIG d   1      -1.788  80.580 112.068  0.00  0.00     0.210 C 
ATOM     15  C   LIG d   1      -2.469  79.414 112.791  0.00  0.00     0.109 C 
ATOM     16  O   LIG d   1      -2.397  81.646 111.890  0.00  0.00    -0.276 OA
ATOM     17  H   LIG d   1      -0.147  79.429 111.797  0.00  0.00     0.149 HD
ENDBRANCH   6  13
BRANCH   5  18
ATOM     18  N   LIG d   1       0.015  80.327 108.637  0.00  0.00     0.381 N 
ATOM     19  H   LIG d   1      -0.039  81.026 107.922  0.00  0.00    -0.090 HD
ATOM     20  H   LIG d   1      -0.895  80.231 109.053  0.00  0.00    -0.090 HD
ATOM     21  H   LIG d   1       0.301  79.459 108.241  0.00  0.00    -0.090 HD
ENDBRANCH   5  18
BRANCH   3  22
ATOM     22  C   LIG d   1       3.984  82.852 109.532  0.00  0.00     0.382 C 
ATOM     23  O   LIG d   1       4.703  82.114 108.815  0.00  0.00    -0.241 OA
ATOM     24  O   LIG d   1       4.401  83.979 109.863  0.00  0.00    -0.241 OA
ENDBRANCH   3  22
TORSDOF 7
ENDMDL
MODEL 4
REMARK VINA RESULT:      -6.4      2.711      4.450
REMARK  7 active torsions:
REMARK  status: ('A' for Active; 'I' for Inactive)
REMARK    1  A    between atoms: C_2  and  C_3 
REMARK    2  A    between atoms: C_3  and  O_6 
REMARK    3  A    between atoms: C_3  and  C_4 
REMARK    4  A    between atoms: C_7  and  O_6 
REMARK    5  A    between atoms: C_9  and  C_10 
REMARK    6  A    between atoms: N_15  and  C_14 
REMARK    7  A    between atoms: N_20  and  C_19 
REMARK       I    between atoms: C_22  and  N_20 
ROOT
ATOM      1  C   LIG d   1       1.616  83.964 111.716  0.00  0.00     0.161 C 
ATOM      2  C   LIG d   1       0.671  82.927 111.650  0.00  0.00     0.016 C 
ATOM      3  C   LIG d   1      -0.510  82.900 112.428  0.00  0.00     0.038 C 
ATOM      4  C   LIG d   1      -0.902  83.991 113.218  0.00  0.00     0.028 C 
ATOM      5  C   LIG d   1       0.268  84.840 113.703  0.00  0.00    -0.047 C 
ATOM      6  C   LIG d   1       1.151  85.215 112.491  0.00  0.00     0.091 C 
ENDROOT
BRANCH   1   7
ATOM      7  O   LIG d   1       2.038  84.326 110.386  0.00  0.00    -0.368 OA
BRANCH   7   8
ATOM      8  C   LIG d   1       1.066  84.121 109.332  0.00  0.00     0.119 C 
BRANCH   8   9
ATOM      9  C   LIG d   1       1.815  83.533 108.120  0.00  0.00     0.028 C 
ATOM     10  C   LIG d   1       2.920  82.548 108.535  0.00  0.00     0.006 C 
ENDBRANCH   8   9
BRANCH   8  11
ATOM     11  C   LIG d   1       0.485  85.451 108.843  0.00  0.00     0.028 C 
ATOM     12  C   LIG d   1      -0.790  85.858 109.598  0.00  0.00     0.006 C 
ENDBRANCH   8  11
ENDBRANCH   7   8
ENDBRANCH   1   7
BRANCH   6  13
ATOM     13  N   LIG d   1       2.365  85.975 112.887  0.00  0.00    -0.311 N 
ATOM     14  C   LIG d   1       2.857  86.992 112.181  0.00  0.00     0.210 C 
ATOM     15  C   LIG d   1       4.128  87.624 112.757  0.00  0.00     0.109 C 
ATOM     16  O   LIG d   1       2.343  87.450 111.150  0.00  0.00    -0.276 OA
ATOM     17  H   LIG d   1       2.827  85.690 113.729  0.00  0.00     0.149 HD
ENDBRANCH   6  13
BRANCH   5  18
ATOM     18  N   LIG d   1      -0.291  86.015 114.397  0.00  0.00     0.381 N 
ATOM     19  H   LIG d   1      -1.161  85.772 114.826  0.00  0.00    -0.090 HD
ATOM     20  H   LIG d   1      -0.463  86.740 113.722  0.00  0.00    -0.090 HD
ATOM     21  H   LIG d   1       0.350  86.339 115.088  0.00  0.00    -0.090 HD
ENDBRANCH   5  18
BRANCH   3  22
ATOM     22  C   LIG d   1      -1.293  81.756 112.449  0.00  0.00     0.382 C 
ATOM     23  O   LIG d   1      -2.471  81.794 112.018  0.00  0.00    -0.241 OA
ATOM     24  O   LIG d   1      -0.851  80.697 112.934  0.00  0.00    -0.241 OA
ENDBRANCH   3  22
TORSDOF 7
ENDMDL
MODEL 5
REMARK VINA RESULT:      -6.0      2.903      6.101
REMARK  7 active torsions:
REMARK  status: ('A' for Active; 'I' for Inactive)
REMARK    1  A    between atoms: C_2  and  C_3 
REMARK    2  A    between atoms: C_3  and  O_6 
REMARK    3  A    between atoms: C_3  and  C_4 
REMARK    4  A    between atoms: C_7  and  O_6 
REMARK    5  A    between atoms: C_9  and  C_10 
REMARK    6  A    between atoms: N_15  and  C_14 
REMARK    7  A    between atoms: N_20  and  C_19 
REMARK       I    between atoms: C_22  and  N_20 
ROOT
ATOM      1  C   LIG d   1       1.507  85.047 110.914  0.00  0.00     0.161 C 
ATOM      2  C   LIG d   1       2.374  86.148 111.013  0.00  0.00     0.016 C 
ATOM      3  C   LIG d   1       2.777  86.713 112.245  0.00  0.00     0.038 C 
ATOM      4  C   LIG d   1       2.458  86.116 113.474  0.00  0.00     0.028 C 
ATOM      5  C   LIG d   1       1.171  85.300 113.435  0.00  0.00    -0.047 C 
ATOM      6  C   LIG d   1       1.238  84.314 112.245  0.00  0.00     0.091 C 
ENDROOT
BRANCH   1   7
ATOM      7  O   LIG d   1       2.001  84.123 109.925  0.00  0.00    -0.368 OA
BRANCH   7   8
ATOM      8  C   LIG d   1       2.999  83.175 110.380  0.00  0.00     0.119 C 
BRANCH   8   9
ATOM      9  C   LIG d   1       4.323  83.520 109.671  0.00  0.00     0.028 C 
ATOM     10  C   LIG d   1       4.703  82.483 108.601  0.00  0.00     0.006 C 
ENDBRANCH   8   9
BRANCH   8  11
ATOM     11  C   LIG d   1       2.659  81.750 109.933  0.00  0.00     0.028 C 
ATOM     12  C   LIG d   1       1.270  81.645 109.285  0.00  0.00     0.006 C 
ENDBRANCH   8  11
ENDBRANCH   7   8
ENDBRANCH   1   7
BRANCH   6  13
ATOM     13  N   LIG d   1      -0.017  83.535 112.084  0.00  0.00    -0.311 N 
ATOM     14  C   LIG d   1      -0.189  82.311 112.580  0.00  0.00     0.210 C 
ATOM     15  C   LIG d   1      -1.552  81.677 112.282  0.00  0.00     0.109 C 
ATOM     16  O   LIG d   1       0.646  81.702 113.265  0.00  0.00    -0.276 OA
ATOM     17  H   LIG d   1      -0.759  83.966 111.567  0.00  0.00     0.149 HD
ENDBRANCH   6  13
BRANCH   5  18
ATOM     18  N   LIG d   1       1.032  84.624 114.738  0.00  0.00     0.381 N 
ATOM     19  H   LIG d   1       0.637  83.714 114.608  0.00  0.00    -0.090 HD
ATOM     20  H   LIG d   1       0.408  85.158 115.317  0.00  0.00    -0.090 HD
ATOM     21  H   LIG d   1       1.922  84.548 115.179  0.00  0.00    -0.090 HD
ENDBRANCH   5  18
BRANCH   3  22
ATOM     22  C   LIG d   1       3.475  87.911 112.255  0.00  0.00     0.382 C 
ATOM     23  O   LIG d   1       2.922  88.955 112.679  0.00  0.00    -0.241 OA
ATOM     24  O   LIG d   1       4.635  87.970 111.806  0.00  0.00    -0.241 OA
ENDBRANCH   3  22
TORSDOF 7
ENDMDL
MODEL 6
REMARK VINA RESULT:      -5.8      3.182      6.146
REMARK  7 active torsions:
REMARK  status: ('A' for Active; 'I' for Inactive)
REMARK    1  A    between atoms: C_2  and  C_3 
REMARK    2  A    between atoms: C_3  and  O_6 
REMARK    3  A    between atoms: C_3  and  C_4 
REMARK    4  A    between atoms: C_7  and  O_6 
REMARK    5  A    between atoms: C_9  and  C_10 
REMARK    6  A    between atoms: N_15  and  C_14 
REMARK    7  A    between atoms: N_20  and  C_19 
REMARK       I    between atoms: C_22  and  N_20 
ROOT
ATOM      1  C   LIG d   1       2.089  84.600 111.714  0.00  0.00     0.161 C 
ATOM      2  C   LIG d   1       2.772  85.820 111.579  0.00  0.00     0.016 C 
ATOM      3  C   LIG d   1       2.974  86.722 112.649  0.00  0.00     0.038 C 
ATOM      4  C   LIG d   1       2.635  86.393 113.970  0.00  0.00     0.028 C 
ATOM      5  C   LIG d   1       1.491  85.390 114.070  0.00  0.00    -0.047 C 
ATOM      6  C   LIG d   1       1.809  84.174 113.171  0.00  0.00     0.091 C 
ENDROOT
BRANCH   1   7
ATOM      7  O   LIG d   1       2.802  83.561 111.015  0.00  0.00    -0.368 OA
BRANCH   7   8
ATOM      8  C   LIG d   1       3.261  83.889 109.681  0.00  0.00     0.119 C 
BRANCH   8   9
ATOM      9  C   LIG d   1       2.292  83.226 108.682  0.00  0.00     0.028 C 
ATOM     10  C   LIG d   1       1.231  84.207 108.155  0.00  0.00     0.006 C 
ENDBRANCH   8   9
BRANCH   8  11
ATOM     11  C   LIG d   1       4.629  83.264 109.393  0.00  0.00     0.028 C 
ATOM     12  C   LIG d   1       4.598  82.278 108.215  0.00  0.00     0.006 C 
ENDBRANCH   8  11
ENDBRANCH   7   8
ENDBRANCH   1   7
BRANCH   6  13
ATOM     13  N   LIG d   1       0.702  83.182 113.144  0.00  0.00    -0.311 N 
ATOM     14  C   LIG d   1      -0.538  83.478 112.760  0.00  0.00     0.210 C 
ATOM     15  C   LIG d   1      -1.531  82.314 112.828  0.00  0.00     0.109 C 
ATOM     16  O   LIG d   1      -0.902  84.586 112.338  0.00  0.00    -0.276 OA
ATOM     17  H   LIG d   1       0.918  82.250 113.441  0.00  0.00     0.149 HD
ENDBRANCH   6  13
BRANCH   5  18
ATOM     18  N   LIG d   1       1.334  85.032 115.492  0.00  0.00     0.381 N 
ATOM     19  H   LIG d   1       1.665  84.101 115.645  0.00  0.00    -0.090 HD
ATOM     20  H   LIG d   1       0.359  85.064 115.730  0.00  0.00    -0.090 HD
ATOM     21  H   LIG d   1       1.844  85.671 116.062  0.00  0.00    -0.090 HD
ENDBRANCH   5  18
BRANCH   3  22
ATOM     22  C   LIG d   1       3.484  87.986 112.395  0.00  0.00     0.382 C 
ATOM     23  O   LIG d   1       4.614  88.111 111.863  0.00  0.00    -0.241 OA
ATOM     24  O   LIG d   1       2.849  89.003 112.732  0.00  0.00    -0.241 OA
ENDBRANCH   3  22
TORSDOF 7
ENDMDL
MODEL 7
REMARK VINA RESULT:      -5.7      2.486      5.175
REMARK  7 active torsions:
REMARK  status: ('A' for Active; 'I' for Inactive)
REMARK    1  A    between atoms: C_2  and  C_3 
REMARK    2  A    between atoms: C_3  and  O_6 
REMARK    3  A    between atoms: C_3  and  C_4 
REMARK    4  A    between atoms: C_7  and  O_6 
REMARK    5  A    between atoms: C_9  and  C_10 
REMARK    6  A    between atoms: N_15  and  C_14 
REMARK    7  A    between atoms: N_20  and  C_19 
REMARK       I    between atoms: C_22  and  N_20 
ROOT
ATOM      1  C   LIG d   1       2.686  82.786 111.506  0.00  0.00     0.161 C 
ATOM      2  C   LIG d   1       2.862  84.144 111.818  0.00  0.00     0.016 C 
ATOM      3  C   LIG d   1       2.570  85.194 110.918  0.00  0.00     0.038 C 
ATOM      4  C   LIG d   1       1.934  84.961 109.689  0.00  0.00     0.028 C 
ATOM      5  C   LIG d   1       2.199  83.570 109.124  0.00  0.00    -0.047 C 
ATOM      6  C   LIG d   1       1.889  82.518 110.212  0.00  0.00     0.091 C 
ENDROOT
BRANCH   1   7
ATOM      7  O   LIG d   1       2.076  82.104 112.620  0.00  0.00    -0.368 OA
BRANCH   7   8
ATOM      8  C   LIG d   1       1.050  82.838 113.333  0.00  0.00     0.119 C 
BRANCH   8   9
ATOM      9  C   LIG d   1       1.151  82.447 114.820  0.00  0.00     0.028 C 
ATOM     10  C   LIG d   1       0.237  83.303 115.714  0.00  0.00     0.006 C 
ENDBRANCH   8   9
BRANCH   8  11
ATOM     11  C   LIG d   1      -0.351  82.405 112.894  0.00  0.00     0.028 C 
ATOM     12  C   LIG d   1      -0.463  80.889 112.666  0.00  0.00     0.006 C 
ENDBRANCH   8  11
ENDBRANCH   7   8
ENDBRANCH   1   7
BRANCH   6  13
ATOM     13  N   LIG d   1       2.202  81.134 109.770  0.00  0.00    -0.311 N 
ATOM     14  C   LIG d   1       1.288  80.294 109.289  0.00  0.00     0.210 C 
ATOM     15  C   LIG d   1       1.820  78.908 108.909  0.00  0.00     0.109 C 
ATOM     16  O   LIG d   1       0.093  80.574 109.110  0.00  0.00    -0.276 OA
ATOM     17  H   LIG d   1       3.154  80.834 109.850  0.00  0.00     0.149 HD
ENDBRANCH   6  13
BRANCH   5  18
ATOM     18  N   LIG d   1       1.368  83.414 107.915  0.00  0.00     0.381 N 
ATOM     19  H   LIG d   1       1.873  82.901 107.220  0.00  0.00    -0.090 HD
ATOM     20  H   LIG d   1       1.159  84.324 107.544  0.00  0.00    -0.090 HD
ATOM     21  H   LIG d   1       0.523  82.938 108.141  0.00  0.00    -0.090 HD
ENDBRANCH   5  18
BRANCH   3  22
ATOM     22  C   LIG d   1       2.951  86.491 111.227  0.00  0.00     0.382 C 
ATOM     23  O   LIG d   1       2.096  87.409 111.243  0.00  0.00    -0.241 OA
ATOM     24  O   LIG d   1       4.147  86.763 111.446  0.00  0.00    -0.241 OA
ENDBRANCH   3  22
TORSDOF 7
ENDMDL
MODEL 8
REMARK VINA RESULT:      -5.6      3.635      6.176
REMARK  7 active torsions:
REMARK  status: ('A' for Active; 'I' for Inactive)
REMARK    1  A    between atoms: C_2  and  C_3 
REMARK    2  A    between atoms: C_3  and  O_6 
REMARK    3  A    between atoms: C_3  and  C_4 
REMARK    4  A    between atoms: C_7  and  O_6 
REMARK    5  A    between atoms: C_9  and  C_10 
REMARK    6  A    between atoms: N_15  and  C_14 
REMARK    7  A    between atoms: N_20  and  C_19 
REMARK       I    between atoms: C_22  and  N_20 
ROOT
ATOM      1  C   LIG d   1       1.525  85.062 112.559  0.00  0.00     0.161 C 
ATOM      2  C   LIG d   1       2.134  86.259 112.145  0.00  0.00     0.016 C 
ATOM      3  C   LIG d   1       3.229  86.848 112.818  0.00  0.00     0.038 C 
ATOM      4  C   LIG d   1       3.891  86.196 113.869  0.00  0.00     0.028 C 
ATOM      5  C   LIG d   1       2.999  85.228 114.639  0.00  0.00    -0.047 C 
ATOM      6  C   LIG d   1       2.304  84.279 113.636  0.00  0.00     0.091 C 
ENDROOT
BRANCH   1   7
ATOM      7  O   LIG d   1       1.272  84.223 111.415  0.00  0.00    -0.368 OA
BRANCH   7   8
ATOM      8  C   LIG d   1       1.869  84.651 110.165  0.00  0.00     0.119 C 
BRANCH   8   9
ATOM      9  C   LIG d   1       0.755  84.663 109.101  0.00  0.00     0.028 C 
ATOM     10  C   LIG d   1      -0.359  85.673 109.428  0.00  0.00     0.006 C 
ENDBRANCH   8   9
BRANCH   8  11
ATOM     11  C   LIG d   1       2.898  83.634 109.663  0.00  0.00     0.028 C 
ATOM     12  C   LIG d   1       4.288  83.835 110.288  0.00  0.00     0.006 C 
ENDBRANCH   8  11
ENDBRANCH   7   8
ENDBRANCH   1   7
BRANCH   6  13
ATOM     13  N   LIG d   1       1.348  83.355 114.300  0.00  0.00    -0.311 N 
ATOM     14  C   LIG d   1       1.694  82.160 114.775  0.00  0.00     0.210 C 
ATOM     15  C   LIG d   1       0.550  81.358 115.404  0.00  0.00     0.109 C 
ATOM     16  O   LIG d   1       2.846  81.701 114.765  0.00  0.00    -0.276 OA
ATOM     17  H   LIG d   1       0.398  83.661 114.378  0.00  0.00     0.149 HD
ENDBRANCH   6  13
BRANCH   5  18
ATOM     18  N   LIG d   1       3.849  84.518 115.614  0.00  0.00     0.381 N 
ATOM     19  H   LIG d   1       4.104  85.138 116.356  0.00  0.00    -0.090 HD
ATOM     20  H   LIG d   1       4.689  84.216 115.153  0.00  0.00    -0.090 HD
ATOM     21  H   LIG d   1       3.362  83.731 115.981  0.00  0.00    -0.090 HD
ENDBRANCH   5  18
BRANCH   3  22
ATOM     22  C   LIG d   1       3.647  88.122 112.466  0.00  0.00     0.382 C 
ATOM     23  O   LIG d   1       4.782  88.291 111.957  0.00  0.00    -0.241 OA
ATOM     24  O   LIG d   1       2.923  89.110 112.691  0.00  0.00    -0.241 OA
ENDBRANCH   3  22
TORSDOF 7
ENDMDL
MODEL 9
REMARK VINA RESULT:      -5.6      2.668      4.422
REMARK  7 active torsions:
REMARK  status: ('A' for Active; 'I' for Inactive)
REMARK    1  A    between atoms: C_2  and  C_3 
REMARK    2  A    between atoms: C_3  and  O_6 
REMARK    3  A    between atoms: C_3  and  C_4 
REMARK    4  A    between atoms: C_7  and  O_6 
REMARK    5  A    between atoms: C_9  and  C_10 
REMARK    6  A    between atoms: N_15  and  C_14 
REMARK    7  A    between atoms: N_20  and  C_19 
REMARK       I    between atoms: C_22  and  N_20 
ROOT
ATOM      1  C   LIG d   1      -0.383  81.302 111.725  0.00  0.00     0.161 C 
ATOM      2  C   LIG d   1      -1.005  80.045 111.645  0.00  0.00     0.016 C 
ATOM      3  C   LIG d   1      -1.834  79.520 112.663  0.00  0.00     0.038 C 
ATOM      4  C   LIG d   1      -2.221  80.287 113.773  0.00  0.00     0.028 C 
ATOM      5  C   LIG d   1      -1.214  81.371 114.141  0.00  0.00    -0.047 C 
ATOM      6  C   LIG d   1      -0.883  82.198 112.878  0.00  0.00     0.091 C 
ENDROOT
BRANCH   1   7
ATOM      7  O   LIG d   1      -0.507  81.990 110.465  0.00  0.00    -0.368 OA
BRANCH   7   8
ATOM      8  C   LIG d   1       0.709  82.122 109.689  0.00  0.00     0.119 C 
BRANCH   8   9
ATOM      9  C   LIG d   1       1.792  81.268 110.376  0.00  0.00     0.028 C 
ATOM     10  C   LIG d   1       2.476  80.294 109.402  0.00  0.00     0.006 C 
ENDBRANCH   8   9
BRANCH   8  11
ATOM     11  C   LIG d   1       1.240  83.558 109.726  0.00  0.00     0.028 C 
ATOM     12  C   LIG d   1       0.124  84.610 109.626  0.00  0.00     0.006 C 
ENDBRANCH   8  11
ENDBRANCH   7   8
ENDBRANCH   1   7
BRANCH   6  13
ATOM     13  N   LIG d   1       0.159  83.228 113.131  0.00  0.00    -0.311 N 
ATOM     14  C   LIG d   1      -0.092  84.535 113.152  0.00  0.00     0.210 C 
ATOM     15  C   LIG d   1       1.128  85.424 113.411  0.00  0.00     0.109 C 
ATOM     16  O   LIG d   1      -1.216  85.042 113.012  0.00  0.00    -0.276 OA
ATOM     17  H   LIG d   1       1.093  82.903 113.286  0.00  0.00     0.149 HD
ENDBRANCH   6  13
BRANCH   5  18
ATOM     18  N   LIG d   1      -1.806  82.180 115.223  0.00  0.00     0.381 N 
ATOM     19  H   LIG d   1      -1.133  82.316 115.951  0.00  0.00    -0.090 HD
ATOM     20  H   LIG d   1      -2.591  81.685 115.607  0.00  0.00    -0.090 HD
ATOM     21  H   LIG d   1      -2.103  83.062 114.866  0.00  0.00    -0.090 HD
ENDBRANCH   5  18
BRANCH   3  22
ATOM     22  C   LIG d   1      -2.252  78.200 112.597  0.00  0.00     0.382 C 
ATOM     23  O   LIG d   1      -3.327  77.911 112.017  0.00  0.00    -0.241 OA
ATOM     24  O   LIG d   1      -1.591  77.299 113.147  0.00  0.00    -0.241 OA
ENDBRANCH   3  22
TORSDOF 7
ENDMDL
