MODEL 1
REMARK VINA RESULT:      -6.6      0.000      0.000
REMARK  7 active torsions:
REMARK  status: ('A' for Active; 'I' for Inactive)
REMARK    1  A    between atoms: C_2  and  C_3 
REMARK    2  A    between atoms: C_3  and  O_6 
REMARK    3  A    between atoms: C_3  and  C_4 
REMARK    4  A    between atoms: C_7  and  O_6 
REMARK    5  A    between atoms: C_9  and  C_10 
REMARK    6  A    between atoms: N_15  and  C_14 
REMARK    7  A    between atoms: N_20  and  C_19 
REMARK       I    between atoms: C_22  and  N_20 
ROOT
ATOM      1  C   LIG d   1       0.288  82.850 111.182  0.00  0.00     0.161 C 
ATOM      2  C   LIG d   1      -0.844  82.579 111.968  0.00  0.00     0.016 C 
ATOM      3  C   LIG d   1      -1.412  81.291 112.097  0.00  0.00     0.038 C 
ATOM      4  C   LIG d   1      -0.792  80.151 111.565  0.00  0.00     0.028 C 
ATOM      5  C   LIG d   1       0.073  80.446 110.343  0.00  0.00    -0.047 C 
ATOM      6  C   LIG d   1       1.043  81.601 110.683  0.00  0.00     0.091 C 
ENDROOT
BRANCH   1   7
ATOM      7  O   LIG d   1       1.183  83.724 111.898  0.00  0.00    -0.368 OA
BRANCH   7   8
ATOM      8  C   LIG d   1       1.326  85.064 111.367  0.00  0.00     0.119 C 
BRANCH   8   9
ATOM      9  C   LIG d   1       0.430  85.166 110.118  0.00  0.00     0.028 C 
ATOM     10  C   LIG d   1      -0.568  86.332 110.205  0.00  0.00     0.006 C 
ENDBRANCH   8   9
BRANCH   8  11
ATOM     11  C   LIG d   1       2.751  85.315 110.865  0.00  0.00     0.028 C 
ATOM     12  C   LIG d   1       3.420  86.520 111.545  0.00  0.00     0.006 C 
ENDBRANCH   8  11
ENDBRANCH   7   8
ENDBRANCH   1   7
BRANCH   6  13
ATOM     13  N   LIG d   1       1.868  82.010 109.516  0.00  0.00    -0.311 N 
ATOM     14  C   LIG d   1       3.194  81.898 109.481  0.00  0.00     0.210 C 
ATOM     15  C   LIG d   1       3.852  82.397 108.191  0.00  0.00     0.109 C 
ATOM     16  O   LIG d   1       3.887  81.405 110.384  0.00  0.00    -0.276 OA
ATOM     17  H   LIG d   1       1.384  82.392 108.727  0.00  0.00     0.149 HD
ENDBRANCH   6  13
BRANCH   5  18
ATOM     18  N   LIG d   1       0.766  79.197 109.976  0.00  0.00     0.381 N 
ATOM     19  H   LIG d   1       1.470  78.988 110.655  0.00  0.00    -0.090 HD
ATOM     20  H   LIG d   1       1.215  79.324 109.086  0.00  0.00    -0.090 HD
ATOM     21  H   LIG d   1       0.113  78.447 109.923  0.00  0.00    -0.090 HD
ENDBRANCH   5  18
BRANCH   3  22
ATOM     22  C   LIG d   1      -2.636  81.139 112.732  0.00  0.00     0.382 C 
ATOM     23  O   LIG d   1      -3.330  82.148 113.004  0.00  0.00    -0.241 OA
ATOM     24  O   LIG d   1      -3.033  80.010 113.076  0.00  0.00    -0.241 OA
ENDBRANCH   3  22
TORSDOF 7
ENDMDL
MODEL 2
REMARK VINA RESULT:      -6.6      1.473      4.962
REMARK  7 active torsions:
REMARK  status: ('A' for Active; 'I' for Inactive)
REMARK    1  A    between atoms: C_2  and  C_3 
REMARK    2  A    between atoms: C_3  and  O_6 
REMARK    3  A    between atoms: C_3  and  C_4 
REMARK    4  A    between atoms: C_7  and  O_6 
REMARK    5  A    between atoms: C_9  and  C_10 
REMARK    6  A    between atoms: N_15  and  C_14 
REMARK    7  A    between atoms: N_20  and  C_19 
REMARK       I    between atoms: C_22  and  N_20 
ROOT
ATOM      1  C   LIG d   1       1.760  82.315 111.693  0.00  0.00     0.161 C 
ATOM      2  C   LIG d   1       2.776  82.551 110.752  0.00  0.00     0.016 C 
ATOM      3  C   LIG d   1       2.806  81.951 109.472  0.00  0.00     0.038 C 
ATOM      4  C   LIG d   1       1.734  81.188 108.986  0.00  0.00     0.028 C 
ATOM      5  C   LIG d   1       0.923  80.512 110.086  0.00  0.00    -0.047 C 
ATOM      6  C   LIG d   1       0.526  81.572 111.139  0.00  0.00     0.091 C 
ENDROOT
BRANCH   1   7
ATOM      7  O   LIG d   1       1.363  83.558 112.306  0.00  0.00    -0.368 OA
BRANCH   7   8
ATOM      8  C   LIG d   1       1.407  84.730 111.455  0.00  0.00     0.119 C 
BRANCH   8   9
ATOM      9  C   LIG d   1       2.063  85.865 112.265  0.00  0.00     0.028 C 
ATOM     10  C   LIG d   1       3.310  86.437 111.570  0.00  0.00     0.006 C 
ENDBRANCH   8   9
BRANCH   8  11
ATOM     11  C   LIG d   1      -0.002  85.231 111.124  0.00  0.00     0.028 C 
ATOM     12  C   LIG d   1      -0.065  85.995 109.792  0.00  0.00     0.006 C 
ENDBRANCH   8  11
ENDBRANCH   7   8
ENDBRANCH   1   7
BRANCH   6  13
ATOM     13  N   LIG d   1      -0.199  80.980 112.294  0.00  0.00    -0.311 N 
ATOM     14  C   LIG d   1      -1.296  81.518 112.824  0.00  0.00     0.210 C 
ATOM     15  C   LIG d   1      -1.874  80.758 114.022  0.00  0.00     0.109 C 
ATOM     16  O   LIG d   1      -1.864  82.534 112.397  0.00  0.00    -0.276 OA
ATOM     17  H   LIG d   1       0.176  80.138 112.683  0.00  0.00     0.149 HD
ENDBRANCH   6  13
BRANCH   5  18
ATOM     18  N   LIG d   1      -0.240  79.865 109.450  0.00  0.00     0.381 N 
ATOM     19  H   LIG d   1      -0.425  80.296 108.566  0.00  0.00    -0.090 HD
ATOM     20  H   LIG d   1      -1.044  79.992 110.038  0.00  0.00    -0.090 HD
ATOM     21  H   LIG d   1      -0.062  78.893 109.322  0.00  0.00    -0.090 HD
ENDBRANCH   5  18
BRANCH   3  22
ATOM     22  C   LIG d   1       3.936  82.081 108.678  0.00  0.00     0.382 C 
ATOM     23  O   LIG d   1       4.247  81.168 107.876  0.00  0.00    -0.241 OA
ATOM     24  O   LIG d   1       4.672  83.080 108.787  0.00  0.00    -0.241 OA
ENDBRANCH   3  22
TORSDOF 7
ENDMDL
MODEL 3
REMARK VINA RESULT:      -6.3      2.810      4.016
REMARK  7 active torsions:
REMARK  status: ('A' for Active; 'I' for Inactive)
REMARK    1  A    between atoms: C_2  and  C_3 
REMARK    2  A    between atoms: C_3  and  O_6 
REMARK    3  A    between atoms: C_3  and  C_4 
REMARK    4  A    between atoms: C_7  and  O_6 
REMARK    5  A    between atoms: C_9  and  C_10 
REMARK    6  A    between atoms: N_15  and  C_14 
REMARK    7  A    between atoms: N_20  and  C_19 
REMARK       I    between atoms: C_22  and  N_20 
ROOT
ATOM      1  C   LIG d   1       2.533  84.881 110.526  0.00  0.00     0.161 C 
ATOM      2  C   LIG d   1       1.537  85.811 110.867  0.00  0.00     0.016 C 
ATOM      3  C   LIG d   1       0.182  85.462 111.067  0.00  0.00     0.038 C 
ATOM      4  C   LIG d   1      -0.244  84.125 111.086  0.00  0.00     0.028 C 
ATOM      5  C   LIG d   1       0.631  83.198 110.249  0.00  0.00    -0.047 C 
ATOM      6  C   LIG d   1       2.109  83.403 110.652  0.00  0.00     0.091 C 
ENDROOT
BRANCH   1   7
ATOM      7  O   LIG d   1       3.721  85.130 111.305  0.00  0.00    -0.368 OA
BRANCH   7   8
ATOM      8  C   LIG d   1       3.555  85.980 112.466  0.00  0.00     0.119 C 
BRANCH   8   9
ATOM      9  C   LIG d   1       4.430  87.230 112.254  0.00  0.00     0.028 C 
ATOM     10  C   LIG d   1       5.236  87.603 113.510  0.00  0.00     0.006 C 
ENDBRANCH   8   9
BRANCH   8  11
ATOM     11  C   LIG d   1       4.105  85.310 113.729  0.00  0.00     0.028 C 
ATOM     12  C   LIG d   1       3.461  83.942 114.007  0.00  0.00     0.006 C 
ENDBRANCH   8  11
ENDBRANCH   7   8
ENDBRANCH   1   7
BRANCH   6  13
ATOM     13  N   LIG d   1       3.040  82.595 109.823  0.00  0.00    -0.311 N 
ATOM     14  C   LIG d   1       3.605  81.465 110.244  0.00  0.00     0.210 C 
ATOM     15  C   LIG d   1       4.549  80.800 109.237  0.00  0.00     0.109 C 
ATOM     16  O   LIG d   1       3.388  80.933 111.343  0.00  0.00    -0.276 OA
ATOM     17  H   LIG d   1       3.248  82.938 108.905  0.00  0.00     0.149 HD
ENDBRANCH   6  13
BRANCH   5  18
ATOM     18  N   LIG d   1       0.157  81.819 110.469  0.00  0.00     0.381 N 
ATOM     19  H   LIG d   1       0.828  81.169 110.109  0.00  0.00    -0.090 HD
ATOM     20  H   LIG d   1      -0.706  81.688 109.973  0.00  0.00    -0.090 HD
ATOM     21  H   LIG d   1       0.017  81.658 111.442  0.00  0.00    -0.090 HD
ENDBRANCH   5  18
BRANCH   3  22
ATOM     22  C   LIG d   1      -0.771  86.459 111.210  0.00  0.00     0.382 C 
ATOM     23  O   LIG d   1      -1.099  86.853 112.355  0.00  0.00    -0.241 OA
ATOM     24  O   LIG d   1      -1.340  86.937 110.210  0.00  0.00    -0.241 OA
ENDBRANCH   3  22
TORSDOF 7
ENDMDL
MODEL 4
REMARK VINA RESULT:      -5.9      2.619      4.867
REMARK  7 active torsions:
REMARK  status: ('A' for Active; 'I' for Inactive)
REMARK    1  A    between atoms: C_2  and  C_3 
REMARK    2  A    between atoms: C_3  and  O_6 
REMARK    3  A    between atoms: C_3  and  C_4 
REMARK    4  A    between atoms: C_7  and  O_6 
REMARK    5  A    between atoms: C_9  and  C_10 
REMARK    6  A    between atoms: N_15  and  C_14 
REMARK    7  A    between atoms: N_20  and  C_19 
REMARK       I    between atoms: C_22  and  N_20 
ROOT
ATOM      1  C   LIG d   1       2.713  83.919 111.325  0.00  0.00     0.161 C 
ATOM      2  C   LIG d   1       1.671  82.985 111.452  0.00  0.00     0.016 C 
ATOM      3  C   LIG d   1       0.303  83.325 111.339  0.00  0.00     0.038 C 
ATOM      4  C   LIG d   1      -0.112  84.604 110.939  0.00  0.00     0.028 C 
ATOM      5  C   LIG d   1       0.884  85.703 111.294  0.00  0.00    -0.047 C 
ATOM      6  C   LIG d   1       2.284  85.296 110.779  0.00  0.00     0.091 C 
ENDROOT
BRANCH   1   7
ATOM      7  O   LIG d   1       3.769  83.365 110.515  0.00  0.00    -0.368 OA
BRANCH   7   8
ATOM      8  C   LIG d   1       3.402  82.252 109.664  0.00  0.00     0.119 C 
BRANCH   8   9
ATOM      9  C   LIG d   1       4.553  81.228 109.721  0.00  0.00     0.028 C 
ATOM     10  C   LIG d   1       4.092  79.807 109.354  0.00  0.00     0.006 C 
ENDBRANCH   8   9
BRANCH   8  11
ATOM     11  C   LIG d   1       3.312  82.679 108.196  0.00  0.00     0.028 C 
ATOM     12  C   LIG d   1       1.896  83.117 107.789  0.00  0.00     0.006 C 
ENDBRANCH   8  11
ENDBRANCH   7   8
ENDBRANCH   1   7
BRANCH   6  13
ATOM     13  N   LIG d   1       3.334  86.278 111.157  0.00  0.00    -0.311 N 
ATOM     14  C   LIG d   1       3.589  86.629 112.417  0.00  0.00     0.210 C 
ATOM     15  C   LIG d   1       4.699  87.671 112.585  0.00  0.00     0.109 C 
ATOM     16  O   LIG d   1       3.023  86.153 113.412  0.00  0.00    -0.276 OA
ATOM     17  H   LIG d   1       3.862  86.690 110.414  0.00  0.00     0.149 HD
ENDBRANCH   6  13
BRANCH   5  18
ATOM     18  N   LIG d   1       0.391  86.960 110.699  0.00  0.00     0.381 N 
ATOM     19  H   LIG d   1       1.082  87.335 110.080  0.00  0.00    -0.090 HD
ATOM     20  H   LIG d   1       0.231  87.626 111.433  0.00  0.00    -0.090 HD
ATOM     21  H   LIG d   1      -0.455  86.792 110.201  0.00  0.00    -0.090 HD
ENDBRANCH   5  18
BRANCH   3  22
ATOM     22  C   LIG d   1      -0.667  82.390 111.667  0.00  0.00     0.382 C 
ATOM     23  O   LIG d   1      -0.572  81.213 111.242  0.00  0.00    -0.241 OA
ATOM     24  O   LIG d   1      -1.658  82.719 112.345  0.00  0.00    -0.241 OA
ENDBRANCH   3  22
TORSDOF 7
ENDMDL
MODEL 5
REMARK VINA RESULT:      -5.8      3.287      6.018
REMARK  7 active torsions:
REMARK  status: ('A' for Active; 'I' for Inactive)
REMARK    1  A    between atoms: C_2  and  C_3 
REMARK    2  A    between atoms: C_3  and  O_6 
REMARK    3  A    between atoms: C_3  and  C_4 
REMARK    4  A    between atoms: C_7  and  O_6 
REMARK    5  A    between atoms: C_9  and  C_10 
REMARK    6  A    between atoms: N_15  and  C_14 
REMARK    7  A    between atoms: N_20  and  C_19 
REMARK       I    between atoms: C_22  and  N_20 
ROOT
ATOM      1  C   LIG d   1       1.707  85.311 112.622  0.00  0.00     0.161 C 
ATOM      2  C   LIG d   1       2.228  86.591 112.368  0.00  0.00     0.016 C 
ATOM      3  C   LIG d   1       3.509  87.008 112.799  0.00  0.00     0.038 C 
ATOM      4  C   LIG d   1       4.421  86.118 113.384  0.00  0.00     0.028 C 
ATOM      5  C   LIG d   1       3.752  84.957 114.112  0.00  0.00    -0.047 C 
ATOM      6  C   LIG d   1       2.730  84.291 113.162  0.00  0.00     0.091 C 
ENDROOT
BRANCH   1   7
ATOM      7  O   LIG d   1       1.069  84.800 111.435  0.00  0.00    -0.368 OA
BRANCH   7   8
ATOM      8  C   LIG d   1       1.709  85.125 110.176  0.00  0.00     0.119 C 
BRANCH   8   9
ATOM      9  C   LIG d   1       0.666  85.841 109.297  0.00  0.00     0.028 C 
ATOM     10  C   LIG d   1      -0.665  86.070 110.034  0.00  0.00     0.006 C 
ENDBRANCH   8   9
BRANCH   8  11
ATOM     11  C   LIG d   1       2.092  83.860 109.403  0.00  0.00     0.028 C 
ATOM     12  C   LIG d   1       3.542  83.420 109.660  0.00  0.00     0.006 C 
ENDBRANCH   8  11
ENDBRANCH   7   8
ENDBRANCH   1   7
BRANCH   6  13
ATOM     13  N   LIG d   1       1.970  83.198 113.823  0.00  0.00    -0.311 N 
ATOM     14  C   LIG d   1       2.005  81.930 113.415  0.00  0.00     0.210 C 
ATOM     15  C   LIG d   1       1.132  80.967 114.225  0.00  0.00     0.109 C 
ATOM     16  O   LIG d   1       2.701  81.507 112.480  0.00  0.00    -0.276 OA
ATOM     17  H   LIG d   1       1.403  83.448 114.609  0.00  0.00     0.149 HD
ENDBRANCH   6  13
BRANCH   5  18
ATOM     18  N   LIG d   1       4.816  84.036 114.555  0.00  0.00     0.381 N 
ATOM     19  H   LIG d   1       5.218  83.577 113.762  0.00  0.00    -0.090 HD
ATOM     20  H   LIG d   1       4.412  83.337 115.153  0.00  0.00    -0.090 HD
ATOM     21  H   LIG d   1       5.519  84.540 115.048  0.00  0.00    -0.090 HD
ENDBRANCH   5  18
BRANCH   3  22
ATOM     22  C   LIG d   1       3.873  88.341 112.680  0.00  0.00     0.382 C 
ATOM     23  O   LIG d   1       5.072  88.647 112.474  0.00  0.00    -0.241 OA
ATOM     24  O   LIG d   1       3.025  89.243 112.821  0.00  0.00    -0.241 OA
ENDBRANCH   3  22
TORSDOF 7
ENDMDL
MODEL 6
REMARK VINA RESULT:      -5.8      3.163      6.140
REMARK  7 active torsions:
REMARK  status: ('A' for Active; 'I' for Inactive)
REMARK    1  A    between atoms: C_2  and  C_3 
REMARK    2  A    between atoms: C_3  and  O_6 
REMARK    3  A    between atoms: C_3  and  C_4 
REMARK    4  A    between atoms: C_7  and  O_6 
REMARK    5  A    between atoms: C_9  and  C_10 
REMARK    6  A    between atoms: N_15  and  C_14 
REMARK    7  A    between atoms: N_20  and  C_19 
REMARK       I    between atoms: C_22  and  N_20 
ROOT
ATOM      1  C   LIG d   1       2.450  85.504 111.519  0.00  0.00     0.161 C 
ATOM      2  C   LIG d   1       2.995  86.790 111.669  0.00  0.00     0.016 C 
ATOM      3  C   LIG d   1       3.909  87.134 112.692  0.00  0.00     0.038 C 
ATOM      4  C   LIG d   1       4.460  86.169 113.548  0.00  0.00     0.028 C 
ATOM      5  C   LIG d   1       3.559  84.957 113.755  0.00  0.00    -0.047 C 
ATOM      6  C   LIG d   1       3.125  84.412 112.375  0.00  0.00     0.091 C 
ENDROOT
BRANCH   1   7
ATOM      7  O   LIG d   1       2.462  85.128 110.128  0.00  0.00    -0.368 OA
BRANCH   7   8
ATOM      8  C   LIG d   1       1.196  84.691 109.575  0.00  0.00     0.119 C 
BRANCH   8   9
ATOM      9  C   LIG d   1       1.506  83.765 108.383  0.00  0.00     0.028 C 
ATOM     10  C   LIG d   1       2.810  82.974 108.578  0.00  0.00     0.006 C 
ENDBRANCH   8   9
BRANCH   8  11
ATOM     11  C   LIG d   1       0.410  85.865 108.984  0.00  0.00     0.028 C 
ATOM     12  C   LIG d   1      -0.543  86.515 109.999  0.00  0.00     0.006 C 
ENDBRANCH   8  11
ENDBRANCH   7   8
ENDBRANCH   1   7
BRANCH   6  13
ATOM     13  N   LIG d   1       2.173  83.277 112.488  0.00  0.00    -0.311 N 
ATOM     14  C   LIG d   1       2.465  82.034 112.108  0.00  0.00     0.210 C 
ATOM     15  C   LIG d   1       1.333  81.019 112.292  0.00  0.00     0.109 C 
ATOM     16  O   LIG d   1       3.565  81.671 111.665  0.00  0.00    -0.276 OA
ATOM     17  H   LIG d   1       1.267  83.477 112.866  0.00  0.00     0.149 HD
ENDBRANCH   6  13
BRANCH   5  18
ATOM     18  N   LIG d   1       4.312  83.973 114.555  0.00  0.00     0.381 N 
ATOM     19  H   LIG d   1       3.688  83.480 115.162  0.00  0.00    -0.090 HD
ATOM     20  H   LIG d   1       4.984  84.460 115.122  0.00  0.00    -0.090 HD
ATOM     21  H   LIG d   1       4.778  83.330 113.953  0.00  0.00    -0.090 HD
ENDBRANCH   5  18
BRANCH   3  22
ATOM     22  C   LIG d   1       4.250  88.463 112.890  0.00  0.00     0.382 C 
ATOM     23  O   LIG d   1       5.253  88.946 112.311  0.00  0.00    -0.241 OA
ATOM     24  O   LIG d   1       3.594  89.173 113.676  0.00  0.00    -0.241 OA
ENDBRANCH   3  22
TORSDOF 7
ENDMDL
MODEL 7
REMARK VINA RESULT:      -5.7      2.313      4.901
REMARK  7 active torsions:
REMARK  status: ('A' for Active; 'I' for Inactive)
REMARK    1  A    between atoms: C_2  and  C_3 
REMARK    2  A    between atoms: C_3  and  O_6 
REMARK    3  A    between atoms: C_3  and  C_4 
REMARK    4  A    between atoms: C_7  and  O_6 
REMARK    5  A    between atoms: C_9  and  C_10 
REMARK    6  A    between atoms: N_15  and  C_14 
REMARK    7  A    between atoms: N_20  and  C_19 
REMARK       I    between atoms: C_22  and  N_20 
ROOT
ATOM      1  C   LIG d   1       0.707  82.782 110.870  0.00  0.00     0.161 C 
ATOM      2  C   LIG d   1       0.462  84.154 111.052  0.00  0.00     0.016 C 
ATOM      3  C   LIG d   1       0.780  85.136 110.086  0.00  0.00     0.038 C 
ATOM      4  C   LIG d   1       1.229  84.795 108.802  0.00  0.00     0.028 C 
ATOM      5  C   LIG d   1       1.965  83.460 108.752  0.00  0.00    -0.047 C 
ATOM      6  C   LIG d   1       1.093  82.380 109.432  0.00  0.00     0.091 C 
ENDROOT
BRANCH   1   7
ATOM      7  O   LIG d   1      -0.433  82.020 111.315  0.00  0.00    -0.368 OA
BRANCH   7   8
ATOM      8  C   LIG d   1      -0.153  80.931 112.229  0.00  0.00     0.119 C 
BRANCH   8   9
ATOM      9  C   LIG d   1      -1.441  80.095 112.361  0.00  0.00     0.028 C 
ATOM     10  C   LIG d   1      -2.648  80.942 112.798  0.00  0.00     0.006 C 
ENDBRANCH   8   9
BRANCH   8  11
ATOM     11  C   LIG d   1       0.141  81.448 113.640  0.00  0.00     0.028 C 
ATOM     12  C   LIG d   1       1.599  81.216 114.068  0.00  0.00     0.006 C 
ENDBRANCH   8  11
ENDBRANCH   7   8
ENDBRANCH   1   7
BRANCH   6  13
ATOM     13  N   LIG d   1       1.775  81.061 109.501  0.00  0.00    -0.311 N 
ATOM     14  C   LIG d   1       1.354  79.982 108.844  0.00  0.00     0.210 C 
ATOM     15  C   LIG d   1       2.191  78.720 109.070  0.00  0.00     0.109 C 
ATOM     16  O   LIG d   1       0.385  79.959 108.069  0.00  0.00    -0.276 OA
ATOM     17  H   LIG d   1       2.588  80.999 110.082  0.00  0.00     0.149 HD
ENDBRANCH   6  13
BRANCH   5  18
ATOM     18  N   LIG d   1       2.255  83.163 107.337  0.00  0.00     0.381 N 
ATOM     19  H   LIG d   1       3.110  82.649 107.266  0.00  0.00    -0.090 HD
ATOM     20  H   LIG d   1       2.366  84.029 106.839  0.00  0.00    -0.090 HD
ATOM     21  H   LIG d   1       1.508  82.637 106.939  0.00  0.00    -0.090 HD
ENDBRANCH   5  18
BRANCH   3  22
ATOM     22  C   LIG d   1       0.688  86.480 110.416  0.00  0.00     0.382 C 
ATOM     23  O   LIG d   1       1.719  87.195 110.427  0.00  0.00    -0.241 OA
ATOM     24  O   LIG d   1      -0.406  86.975 110.746  0.00  0.00    -0.241 OA
ENDBRANCH   3  22
TORSDOF 7
ENDMDL
MODEL 8
REMARK VINA RESULT:      -5.4      2.069      4.843
REMARK  7 active torsions:
REMARK  status: ('A' for Active; 'I' for Inactive)
REMARK    1  A    between atoms: C_2  and  C_3 
REMARK    2  A    between atoms: C_3  and  O_6 
REMARK    3  A    between atoms: C_3  and  C_4 
REMARK    4  A    between atoms: C_7  and  O_6 
REMARK    5  A    between atoms: C_9  and  C_10 
REMARK    6  A    between atoms: N_15  and  C_14 
REMARK    7  A    between atoms: N_20  and  C_19 
REMARK       I    between atoms: C_22  and  N_20 
ROOT
ATOM      1  C   LIG d   1       1.872  82.597 111.382  0.00  0.00     0.161 C 
ATOM      2  C   LIG d   1       1.528  83.910 111.743  0.00  0.00     0.016 C 
ATOM      3  C   LIG d   1       1.231  84.923 110.803  0.00  0.00     0.038 C 
ATOM      4  C   LIG d   1       1.108  84.650 109.433  0.00  0.00     0.028 C 
ATOM      5  C   LIG d   1       1.939  83.456 108.976  0.00  0.00    -0.047 C 
ATOM      6  C   LIG d   1       1.635  82.252 109.897  0.00  0.00     0.091 C 
ENDROOT
BRANCH   1   7
ATOM      7  O   LIG d   1       1.179  81.660 112.230  0.00  0.00    -0.368 OA
BRANCH   7   8
ATOM      8  C   LIG d   1      -0.255  81.574 112.048  0.00  0.00     0.119 C 
BRANCH   8   9
ATOM      9  C   LIG d   1      -0.885  81.335 113.434  0.00  0.00     0.028 C 
ATOM     10  C   LIG d   1       0.172  81.090 114.524  0.00  0.00     0.006 C 
ENDBRANCH   8   9
BRANCH   8  11
ATOM     11  C   LIG d   1      -0.638  80.349 111.212  0.00  0.00     0.028 C 
ATOM     12  C   LIG d   1      -1.704  79.474 111.890  0.00  0.00     0.006 C 
ENDBRANCH   8  11
ENDBRANCH   7   8
ENDBRANCH   1   7
BRANCH   6  13
ATOM     13  N   LIG d   1       2.469  81.065 109.572  0.00  0.00    -0.311 N 
ATOM     14  C   LIG d   1       3.799  81.061 109.648  0.00  0.00     0.210 C 
ATOM     15  C   LIG d   1       4.464  79.740 109.249  0.00  0.00     0.109 C 
ATOM     16  O   LIG d   1       4.488  82.015 110.037  0.00  0.00    -0.276 OA
ATOM     17  H   LIG d   1       1.989  80.237 109.277  0.00  0.00     0.149 HD
ENDBRANCH   6  13
BRANCH   5  18
ATOM     18  N   LIG d   1       1.612  83.200 107.561  0.00  0.00     0.381 N 
ATOM     19  H   LIG d   1       2.412  82.828 107.090  0.00  0.00    -0.090 HD
ATOM     20  H   LIG d   1       1.363  84.069 107.123  0.00  0.00    -0.090 HD
ATOM     21  H   LIG d   1       0.853  82.558 107.498  0.00  0.00    -0.090 HD
ENDBRANCH   5  18
BRANCH   3  22
ATOM     22  C   LIG d   1       1.091  86.236 111.228  0.00  0.00     0.382 C 
ATOM     23  O   LIG d   1       1.649  87.163 110.593  0.00  0.00    -0.241 OA
ATOM     24  O   LIG d   1       0.452  86.500 112.264  0.00  0.00    -0.241 OA
ENDBRANCH   3  22
TORSDOF 7
ENDMDL
MODEL 9
REMARK VINA RESULT:      -5.1      2.779      5.712
REMARK  7 active torsions:
REMARK  status: ('A' for Active; 'I' for Inactive)
REMARK    1  A    between atoms: C_2  and  C_3 
REMARK    2  A    between atoms: C_3  and  O_6 
REMARK    3  A    between atoms: C_3  and  C_4 
REMARK    4  A    between atoms: C_7  and  O_6 
REMARK    5  A    between atoms: C_9  and  C_10 
REMARK    6  A    between atoms: N_15  and  C_14 
REMARK    7  A    between atoms: N_20  and  C_19 
REMARK       I    between atoms: C_22  and  N_20 
ROOT
ATOM      1  C   LIG d   1       3.008  84.608 111.078  0.00  0.00     0.161 C 
ATOM      2  C   LIG d   1       3.220  85.896 111.596  0.00  0.00     0.016 C 
ATOM      3  C   LIG d   1       2.256  86.929 111.532  0.00  0.00     0.038 C 
ATOM      4  C   LIG d   1       0.950  86.696 111.076  0.00  0.00     0.028 C 
ATOM      5  C   LIG d   1       0.851  85.546 110.080  0.00  0.00    -0.047 C 
ATOM      6  C   LIG d   1       1.549  84.303 110.677  0.00  0.00     0.091 C 
ENDROOT
BRANCH   1   7
ATOM      7  O   LIG d   1       3.487  83.621 112.012  0.00  0.00    -0.368 OA
BRANCH   7   8
ATOM      8  C   LIG d   1       2.500  83.065 112.915  0.00  0.00     0.119 C 
BRANCH   8   9
ATOM      9  C   LIG d   1       2.937  83.413 114.351  0.00  0.00     0.028 C 
ATOM     10  C   LIG d   1       4.355  84.007 114.405  0.00  0.00     0.006 C 
ENDBRANCH   8   9
BRANCH   8  11
ATOM     11  C   LIG d   1       2.488  81.535 112.854  0.00  0.00     0.028 C 
ATOM     12  C   LIG d   1       3.336  80.977 111.700  0.00  0.00     0.006 C 
ENDBRANCH   8  11
ENDBRANCH   7   8
ENDBRANCH   1   7
BRANCH   6  13
ATOM     13  N   LIG d   1       1.573  83.157 109.732  0.00  0.00    -0.311 N 
ATOM     14  C   LIG d   1       0.737  82.123 109.813  0.00  0.00     0.210 C 
ATOM     15  C   LIG d   1       0.945  81.039 108.750  0.00  0.00     0.109 C 
ATOM     16  O   LIG d   1      -0.177  82.016 110.644  0.00  0.00    -0.276 OA
ATOM     17  H   LIG d   1       2.263  83.178 109.007  0.00  0.00     0.149 HD
ENDBRANCH   6  13
BRANCH   5  18
ATOM     18  N   LIG d   1      -0.579  85.325 109.794  0.00  0.00     0.381 N 
ATOM     19  H   LIG d   1      -0.736  85.355 108.807  0.00  0.00    -0.090 HD
ATOM     20  H   LIG d   1      -1.113  86.061 110.221  0.00  0.00    -0.090 HD
ATOM     21  H   LIG d   1      -0.867  84.443 110.157  0.00  0.00    -0.090 HD
ENDBRANCH   5  18
BRANCH   3  22
ATOM     22  C   LIG d   1       2.608  88.221 111.890  0.00  0.00     0.382 C 
ATOM     23  O   LIG d   1       3.662  88.427 112.539  0.00  0.00    -0.241 OA
ATOM     24  O   LIG d   1       1.864  89.180 111.609  0.00  0.00    -0.241 OA
ENDBRANCH   3  22
TORSDOF 7
ENDMDL
