MODEL 1
REMARK VINA RESULT:      -6.6      0.000      0.000
REMARK  7 active torsions:
REMARK  status: ('A' for Active; 'I' for Inactive)
REMARK    1  A    between atoms: C_2  and  C_3 
REMARK    2  A    between atoms: C_3  and  O_6 
REMARK    3  A    between atoms: C_3  and  C_4 
REMARK    4  A    between atoms: C_7  and  O_6 
REMARK    5  A    between atoms: C_9  and  C_10 
REMARK    6  A    between atoms: N_15  and  C_14 
REMARK    7  A    between atoms: N_20  and  C_19 
REMARK       I    between atoms: C_22  and  N_20 
ROOT
ATOM      1  C   LIG d   1      -0.031  82.868 111.121  0.00  0.00     0.161 C 
ATOM      2  C   LIG d   1      -1.137  82.519 111.913  0.00  0.00     0.016 C 
ATOM      3  C   LIG d   1      -1.567  81.185 112.104  0.00  0.00     0.038 C 
ATOM      4  C   LIG d   1      -0.823  80.092 111.635  0.00  0.00     0.028 C 
ATOM      5  C   LIG d   1       0.020  80.415 110.407  0.00  0.00    -0.047 C 
ATOM      6  C   LIG d   1       0.858  81.682 110.693  0.00  0.00     0.091 C 
ENDROOT
BRANCH   1   7
ATOM      7  O   LIG d   1       0.758  83.867 111.797  0.00  0.00    -0.368 OA
BRANCH   7   8
ATOM      8  C   LIG d   1       0.799  85.175 111.176  0.00  0.00     0.119 C 
BRANCH   8   9
ATOM      9  C   LIG d   1      -0.167  85.148 109.976  0.00  0.00     0.028 C 
ATOM     10  C   LIG d   1       0.526  85.530 108.657  0.00  0.00     0.006 C 
ENDBRANCH   8   9
BRANCH   8  11
ATOM     11  C   LIG d   1       2.179  85.466 110.580  0.00  0.00     0.028 C 
ATOM     12  C   LIG d   1       3.323  84.832 111.388  0.00  0.00     0.006 C 
ENDBRANCH   8  11
ENDBRANCH   7   8
ENDBRANCH   1   7
BRANCH   6  13
ATOM     13  N   LIG d   1       1.650  82.116 109.512  0.00  0.00    -0.311 N 
ATOM     14  C   LIG d   1       2.921  81.772 109.314  0.00  0.00     0.210 C 
ATOM     15  C   LIG d   1       3.556  82.344 108.043  0.00  0.00     0.109 C 
ATOM     16  O   LIG d   1       3.573  81.020 110.054  0.00  0.00    -0.276 OA
ATOM     17  H   LIG d   1       1.189  82.703 108.845  0.00  0.00     0.149 HD
ENDBRANCH   6  13
BRANCH   5  18
ATOM     18  N   LIG d   1       0.846  79.230 110.109  0.00  0.00     0.381 N 
ATOM     19  H   LIG d   1       1.669  79.507 109.612  0.00  0.00    -0.090 HD
ATOM     20  H   LIG d   1       0.320  78.606 109.523  0.00  0.00    -0.090 HD
ATOM     21  H   LIG d   1       1.099  78.769 110.955  0.00  0.00    -0.090 HD
ENDBRANCH   5  18
BRANCH   3  22
ATOM     22  C   LIG d   1      -2.775  80.937 112.737  0.00  0.00     0.382 C 
ATOM     23  O   LIG d   1      -3.124  79.757 112.982  0.00  0.00    -0.241 OA
ATOM     24  O   LIG d   1      -3.541  81.875 113.028  0.00  0.00    -0.241 OA
ENDBRANCH   3  22
TORSDOF 7
ENDMDL
MODEL 2
REMARK VINA RESULT:      -6.6      1.619      4.952
REMARK  7 active torsions:
REMARK  status: ('A' for Active; 'I' for Inactive)
REMARK    1  A    between atoms: C_2  and  C_3 
REMARK    2  A    between atoms: C_3  and  O_6 
REMARK    3  A    between atoms: C_3  and  C_4 
REMARK    4  A    between atoms: C_7  and  O_6 
REMARK    5  A    between atoms: C_9  and  C_10 
REMARK    6  A    between atoms: N_15  and  C_14 
REMARK    7  A    between atoms: N_20  and  C_19 
REMARK       I    between atoms: C_22  and  N_20 
ROOT
ATOM      1  C   LIG d   1       1.448  83.229 111.269  0.00  0.00     0.161 C 
ATOM      2  C   LIG d   1       2.406  83.055 110.256  0.00  0.00     0.016 C 
ATOM      3  C   LIG d   1       2.460  81.913 109.424  0.00  0.00     0.038 C 
ATOM      4  C   LIG d   1       1.461  80.929 109.450  0.00  0.00     0.028 C 
ATOM      5  C   LIG d   1       0.759  80.814 110.798  0.00  0.00    -0.047 C 
ATOM      6  C   LIG d   1       0.283  82.218 111.238  0.00  0.00     0.091 C 
ENDROOT
BRANCH   1   7
ATOM      7  O   LIG d   1       0.941  84.578 111.236  0.00  0.00    -0.368 OA
BRANCH   7   8
ATOM      8  C   LIG d   1       1.402  85.405 110.139  0.00  0.00     0.119 C 
BRANCH   8   9
ATOM      9  C   LIG d   1       1.807  86.770 110.727  0.00  0.00     0.028 C 
ATOM     10  C   LIG d   1       3.173  86.723 111.434  0.00  0.00     0.006 C 
ENDBRANCH   8   9
BRANCH   8  11
ATOM     11  C   LIG d   1       0.267  85.708 109.156  0.00  0.00     0.028 C 
ATOM     12  C   LIG d   1      -1.049  86.075 109.859  0.00  0.00     0.006 C 
ENDBRANCH   8  11
ENDBRANCH   7   8
ENDBRANCH   1   7
BRANCH   6  13
ATOM     13  N   LIG d   1      -0.341  82.208 112.586  0.00  0.00    -0.311 N 
ATOM     14  C   LIG d   1      -1.651  82.083 112.787  0.00  0.00     0.210 C 
ATOM     15  C   LIG d   1      -2.087  82.118 114.256  0.00  0.00     0.109 C 
ATOM     16  O   LIG d   1      -2.491  81.913 111.891  0.00  0.00    -0.276 OA
ATOM     17  H   LIG d   1       0.271  82.310 113.373  0.00  0.00     0.149 HD
ENDBRANCH   6  13
BRANCH   5  18
ATOM     18  N   LIG d   1      -0.348  79.851 110.644  0.00  0.00     0.381 N 
ATOM     19  H   LIG d   1      -0.693  79.583 111.544  0.00  0.00    -0.090 HD
ATOM     20  H   LIG d   1      -0.001  79.029 110.182  0.00  0.00    -0.090 HD
ATOM     21  H   LIG d   1      -1.082  80.258 110.106  0.00  0.00    -0.090 HD
ENDBRANCH   5  18
BRANCH   3  22
ATOM     22  C   LIG d   1       3.546  81.728 108.582  0.00  0.00     0.382 C 
ATOM     23  O   LIG d   1       3.597  82.331 107.483  0.00  0.00    -0.241 OA
ATOM     24  O   LIG d   1       4.454  80.931 108.887  0.00  0.00    -0.241 OA
ENDBRANCH   3  22
TORSDOF 7
ENDMDL
MODEL 3
REMARK VINA RESULT:      -6.1      2.639      5.541
REMARK  7 active torsions:
REMARK  status: ('A' for Active; 'I' for Inactive)
REMARK    1  A    between atoms: C_2  and  C_3 
REMARK    2  A    between atoms: C_3  and  O_6 
REMARK    3  A    between atoms: C_3  and  C_4 
REMARK    4  A    between atoms: C_7  and  O_6 
REMARK    5  A    between atoms: C_9  and  C_10 
REMARK    6  A    between atoms: N_15  and  C_14 
REMARK    7  A    between atoms: N_20  and  C_19 
REMARK       I    between atoms: C_22  and  N_20 
ROOT
ATOM      1  C   LIG d   1       2.248  84.178 110.813  0.00  0.00     0.161 C 
ATOM      2  C   LIG d   1       2.818  85.455 110.951  0.00  0.00     0.016 C 
ATOM      3  C   LIG d   1       2.526  86.325 112.026  0.00  0.00     0.038 C 
ATOM      4  C   LIG d   1       1.755  85.914 113.124  0.00  0.00     0.028 C 
ATOM      5  C   LIG d   1       0.753  84.817 112.784  0.00  0.00    -0.047 C 
ATOM      6  C   LIG d   1       1.492  83.669 112.059  0.00  0.00     0.091 C 
ENDROOT
BRANCH   1   7
ATOM      7  O   LIG d   1       3.262  83.231 110.422  0.00  0.00    -0.368 OA
BRANCH   7   8
ATOM      8  C   LIG d   1       3.412  83.010 108.998  0.00  0.00     0.119 C 
BRANCH   8   9
ATOM      9  C   LIG d   1       2.016  82.691 108.429  0.00  0.00     0.028 C 
ATOM     10  C   LIG d   1       1.640  83.603 107.250  0.00  0.00     0.006 C 
ENDBRANCH   8   9
BRANCH   8  11
ATOM     11  C   LIG d   1       4.261  81.767 108.713  0.00  0.00     0.028 C 
ATOM     12  C   LIG d   1       3.723  80.507 109.408  0.00  0.00     0.006 C 
ENDBRANCH   8  11
ENDBRANCH   7   8
ENDBRANCH   1   7
BRANCH   6  13
ATOM     13  N   LIG d   1       0.570  82.591 111.616  0.00  0.00    -0.311 N 
ATOM     14  C   LIG d   1       0.807  81.296 111.813  0.00  0.00     0.210 C 
ATOM     15  C   LIG d   1      -0.263  80.350 111.260  0.00  0.00     0.109 C 
ATOM     16  O   LIG d   1       1.787  80.842 112.423  0.00  0.00    -0.276 OA
ATOM     17  H   LIG d   1      -0.265  82.873 111.140  0.00  0.00     0.149 HD
ENDBRANCH   6  13
BRANCH   5  18
ATOM     18  N   LIG d   1       0.116  84.389 114.044  0.00  0.00     0.381 N 
ATOM     19  H   LIG d   1      -0.484  83.606 113.872  0.00  0.00    -0.090 HD
ATOM     20  H   LIG d   1      -0.445  85.144 114.398  0.00  0.00    -0.090 HD
ATOM     21  H   LIG d   1       0.813  84.142 114.712  0.00  0.00    -0.090 HD
ENDBRANCH   5  18
BRANCH   3  22
ATOM     22  C   LIG d   1       2.975  87.636 111.990  0.00  0.00     0.382 C 
ATOM     23  O   LIG d   1       4.199  87.876 111.857  0.00  0.00    -0.241 OA
ATOM     24  O   LIG d   1       2.176  88.582 112.134  0.00  0.00    -0.241 OA
ENDBRANCH   3  22
TORSDOF 7
ENDMDL
MODEL 4
REMARK VINA RESULT:      -6.0      2.161      4.155
REMARK  7 active torsions:
REMARK  status: ('A' for Active; 'I' for Inactive)
REMARK    1  A    between atoms: C_2  and  C_3 
REMARK    2  A    between atoms: C_3  and  O_6 
REMARK    3  A    between atoms: C_3  and  C_4 
REMARK    4  A    between atoms: C_7  and  O_6 
REMARK    5  A    between atoms: C_9  and  C_10 
REMARK    6  A    between atoms: N_15  and  C_14 
REMARK    7  A    between atoms: N_20  and  C_19 
REMARK       I    between atoms: C_22  and  N_20 
ROOT
ATOM      1  C   LIG d   1       1.509  82.531 111.339  0.00  0.00     0.161 C 
ATOM      2  C   LIG d   1       0.339  81.775 111.524  0.00  0.00     0.016 C 
ATOM      3  C   LIG d   1      -0.896  82.337 111.921  0.00  0.00     0.038 C 
ATOM      4  C   LIG d   1      -1.083  83.724 112.015  0.00  0.00     0.028 C 
ATOM      5  C   LIG d   1       0.199  84.489 112.328  0.00  0.00    -0.047 C 
ATOM      6  C   LIG d   1       1.297  84.059 111.329  0.00  0.00     0.091 C 
ENDROOT
BRANCH   1   7
ATOM      7  O   LIG d   1       2.177  82.110 110.134  0.00  0.00    -0.368 OA
BRANCH   7   8
ATOM      8  C   LIG d   1       3.480  81.499 110.307  0.00  0.00     0.119 C 
BRANCH   8   9
ATOM      9  C   LIG d   1       4.503  82.369 109.551  0.00  0.00     0.028 C 
ATOM     10  C   LIG d   1       4.296  82.329 108.028  0.00  0.00     0.006 C 
ENDBRANCH   8   9
BRANCH   8  11
ATOM     11  C   LIG d   1       3.544  80.123 109.638  0.00  0.00     0.028 C 
ATOM     12  C   LIG d   1       2.154  79.527 109.367  0.00  0.00     0.006 C 
ENDBRANCH   8  11
ENDBRANCH   7   8
ENDBRANCH   1   7
BRANCH   6  13
ATOM     13  N   LIG d   1       2.607  84.697 111.618  0.00  0.00    -0.311 N 
ATOM     14  C   LIG d   1       2.967  85.885 111.134  0.00  0.00     0.210 C 
ATOM     15  C   LIG d   1       4.369  86.350 111.538  0.00  0.00     0.109 C 
ATOM     16  O   LIG d   1       2.246  86.611 110.434  0.00  0.00    -0.276 OA
ATOM     17  H   LIG d   1       3.242  84.190 112.203  0.00  0.00     0.149 HD
ENDBRANCH   6  13
BRANCH   5  18
ATOM     18  N   LIG d   1      -0.113  85.929 112.261  0.00  0.00     0.381 N 
ATOM     19  H   LIG d   1       0.473  86.433 112.896  0.00  0.00    -0.090 HD
ATOM     20  H   LIG d   1      -1.070  86.068 112.537  0.00  0.00    -0.090 HD
ATOM     21  H   LIG d   1       0.024  86.264 111.333  0.00  0.00    -0.090 HD
ENDBRANCH   5  18
BRANCH   3  22
ATOM     22  C   LIG d   1      -1.950  81.505 112.268  0.00  0.00     0.382 C 
ATOM     23  O   LIG d   1      -1.966  80.315 111.871  0.00  0.00    -0.241 OA
ATOM     24  O   LIG d   1      -2.906  81.942 112.936  0.00  0.00    -0.241 OA
ENDBRANCH   3  22
TORSDOF 7
ENDMDL
MODEL 5
REMARK VINA RESULT:      -5.7      2.345      5.164
REMARK  7 active torsions:
REMARK  status: ('A' for Active; 'I' for Inactive)
REMARK    1  A    between atoms: C_2  and  C_3 
REMARK    2  A    between atoms: C_3  and  O_6 
REMARK    3  A    between atoms: C_3  and  C_4 
REMARK    4  A    between atoms: C_7  and  O_6 
REMARK    5  A    between atoms: C_9  and  C_10 
REMARK    6  A    between atoms: N_15  and  C_14 
REMARK    7  A    between atoms: N_20  and  C_19 
REMARK       I    between atoms: C_22  and  N_20 
ROOT
ATOM      1  C   LIG d   1      -0.493  82.937 110.689  0.00  0.00     0.161 C 
ATOM      2  C   LIG d   1      -0.452  84.316 110.420  0.00  0.00     0.016 C 
ATOM      3  C   LIG d   1      -0.481  85.306 111.429  0.00  0.00     0.038 C 
ATOM      4  C   LIG d   1      -0.399  84.980 112.791  0.00  0.00     0.028 C 
ATOM      5  C   LIG d   1      -0.947  83.594 113.116  0.00  0.00    -0.047 C 
ATOM      6  C   LIG d   1      -0.291  82.561 112.171  0.00  0.00     0.091 C 
ENDROOT
BRANCH   1   7
ATOM      7  O   LIG d   1       0.468  82.250 109.862  0.00  0.00    -0.368 OA
BRANCH   7   8
ATOM      8  C   LIG d   1       1.828  82.218 110.359  0.00  0.00     0.119 C 
BRANCH   8   9
ATOM      9  C   LIG d   1       2.699  83.025 109.376  0.00  0.00     0.028 C 
ATOM     10  C   LIG d   1       4.195  82.694 109.509  0.00  0.00     0.006 C 
ENDBRANCH   8   9
BRANCH   8  11
ATOM     11  C   LIG d   1       2.398  80.797 110.332  0.00  0.00     0.028 C 
ATOM     12  C   LIG d   1       1.429  79.778 109.713  0.00  0.00     0.006 C 
ENDBRANCH   8  11
ENDBRANCH   7   8
ENDBRANCH   1   7
BRANCH   6  13
ATOM     13  N   LIG d   1      -0.834  81.191 112.366  0.00  0.00    -0.311 N 
ATOM     14  C   LIG d   1      -2.137  80.915 112.389  0.00  0.00     0.210 C 
ATOM     15  C   LIG d   1      -2.481  79.441 112.622  0.00  0.00     0.109 C 
ATOM     16  O   LIG d   1      -3.039  81.746 112.206  0.00  0.00    -0.276 OA
ATOM     17  H   LIG d   1      -0.171  80.451 112.490  0.00  0.00     0.149 HD
ENDBRANCH   6  13
BRANCH   5  18
ATOM     18  N   LIG d   1      -0.673  83.330 114.541  0.00  0.00     0.381 N 
ATOM     19  H   LIG d   1      -1.167  83.990 115.109  0.00  0.00    -0.090 HD
ATOM     20  H   LIG d   1       0.311  83.443 114.710  0.00  0.00    -0.090 HD
ATOM     21  H   LIG d   1      -0.954  82.403 114.776  0.00  0.00    -0.090 HD
ENDBRANCH   5  18
BRANCH   3  22
ATOM     22  C   LIG d   1      -0.633  86.639 111.079  0.00  0.00     0.382 C 
ATOM     23  O   LIG d   1      -1.732  87.049 110.633  0.00  0.00    -0.241 OA
ATOM     24  O   LIG d   1       0.328  87.427 111.162  0.00  0.00    -0.241 OA
ENDBRANCH   3  22
TORSDOF 7
ENDMDL
MODEL 6
REMARK VINA RESULT:      -5.5      2.377      4.144
REMARK  7 active torsions:
REMARK  status: ('A' for Active; 'I' for Inactive)
REMARK    1  A    between atoms: C_2  and  C_3 
REMARK    2  A    between atoms: C_3  and  O_6 
REMARK    3  A    between atoms: C_3  and  C_4 
REMARK    4  A    between atoms: C_7  and  O_6 
REMARK    5  A    between atoms: C_9  and  C_10 
REMARK    6  A    between atoms: N_15  and  C_14 
REMARK    7  A    between atoms: N_20  and  C_19 
REMARK       I    between atoms: C_22  and  N_20 
ROOT
ATOM      1  C   LIG d   1      -0.035  82.692 111.538  0.00  0.00     0.161 C 
ATOM      2  C   LIG d   1      -0.757  81.652 112.145  0.00  0.00     0.016 C 
ATOM      3  C   LIG d   1      -1.588  81.837 113.274  0.00  0.00     0.038 C 
ATOM      4  C   LIG d   1      -1.873  83.112 113.783  0.00  0.00     0.028 C 
ATOM      5  C   LIG d   1      -0.771  84.132 113.516  0.00  0.00    -0.047 C 
ATOM      6  C   LIG d   1      -0.420  84.109 112.011  0.00  0.00     0.091 C 
ENDROOT
BRANCH   1   7
ATOM      7  O   LIG d   1      -0.149  82.595 110.104  0.00  0.00    -0.368 OA
BRANCH   7   8
ATOM      8  C   LIG d   1       1.013  82.085 109.405  0.00  0.00     0.119 C 
BRANCH   8   9
ATOM      9  C   LIG d   1       0.725  80.617 109.037  0.00  0.00     0.028 C 
ATOM     10  C   LIG d   1       1.871  79.674 109.443  0.00  0.00     0.006 C 
ENDBRANCH   8   9
BRANCH   8  11
ATOM     11  C   LIG d   1       2.239  82.040 110.322  0.00  0.00     0.028 C 
ATOM     12  C   LIG d   1       3.295  83.096 109.958  0.00  0.00     0.006 C 
ENDBRANCH   8  11
ENDBRANCH   7   8
ENDBRANCH   1   7
BRANCH   6  13
ATOM     13  N   LIG d   1       0.708  85.018 111.678  0.00  0.00    -0.311 N 
ATOM     14  C   LIG d   1       0.544  86.289 111.316  0.00  0.00     0.210 C 
ATOM     15  C   LIG d   1       1.839  87.043 110.997  0.00  0.00     0.109 C 
ATOM     16  O   LIG d   1      -0.549  86.872 111.260  0.00  0.00    -0.276 OA
ATOM     17  H   LIG d   1       1.632  84.635 111.728  0.00  0.00     0.149 HD
ENDBRANCH   6  13
BRANCH   5  18
ATOM     18  N   LIG d   1      -1.257  85.446 113.977  0.00  0.00     0.381 N 
ATOM     19  H   LIG d   1      -1.933  85.320 114.704  0.00  0.00    -0.090 HD
ATOM     20  H   LIG d   1      -1.704  85.915 113.209  0.00  0.00    -0.090 HD
ATOM     21  H   LIG d   1      -0.496  85.993 114.313  0.00  0.00    -0.090 HD
ENDBRANCH   5  18
BRANCH   3  22
ATOM     22  C   LIG d   1      -2.111  80.733 113.930  0.00  0.00     0.382 C 
ATOM     23  O   LIG d   1      -1.343  79.902 114.471  0.00  0.00    -0.241 OA
ATOM     24  O   LIG d   1      -3.341  80.535 113.950  0.00  0.00    -0.241 OA
ENDBRANCH   3  22
TORSDOF 7
ENDMDL
MODEL 7
REMARK VINA RESULT:      -5.5      2.855      4.591
REMARK  7 active torsions:
REMARK  status: ('A' for Active; 'I' for Inactive)
REMARK    1  A    between atoms: C_2  and  C_3 
REMARK    2  A    between atoms: C_3  and  O_6 
REMARK    3  A    between atoms: C_3  and  C_4 
REMARK    4  A    between atoms: C_7  and  O_6 
REMARK    5  A    between atoms: C_9  and  C_10 
REMARK    6  A    between atoms: N_15  and  C_14 
REMARK    7  A    between atoms: N_20  and  C_19 
REMARK       I    between atoms: C_22  and  N_20 
ROOT
ATOM      1  C   LIG d   1       2.470  83.948 111.809  0.00  0.00     0.161 C 
ATOM      2  C   LIG d   1       1.267  83.265 112.051  0.00  0.00     0.016 C 
ATOM      3  C   LIG d   1      -0.009  83.853 111.888  0.00  0.00     0.038 C 
ATOM      4  C   LIG d   1      -0.171  85.126 111.322  0.00  0.00     0.028 C 
ATOM      5  C   LIG d   1       1.030  86.041 111.535  0.00  0.00    -0.047 C 
ATOM      6  C   LIG d   1       2.311  85.302 111.085  0.00  0.00     0.091 C 
ENDROOT
BRANCH   1   7
ATOM      7  O   LIG d   1       3.378  83.096 111.084  0.00  0.00    -0.368 OA
BRANCH   7   8
ATOM      8  C   LIG d   1       3.454  83.316 109.653  0.00  0.00     0.119 C 
BRANCH   8   9
ATOM      9  C   LIG d   1       2.254  82.594 109.010  0.00  0.00     0.028 C 
ATOM     10  C   LIG d   1       1.618  83.411 107.873  0.00  0.00     0.006 C 
ENDBRANCH   8   9
BRANCH   8  11
ATOM     11  C   LIG d   1       4.696  82.651 109.053  0.00  0.00     0.028 C 
ATOM     12  C   LIG d   1       4.550  81.127 108.917  0.00  0.00     0.006 C 
ENDBRANCH   8  11
ENDBRANCH   7   8
ENDBRANCH   1   7
BRANCH   6  13
ATOM     13  N   LIG d   1       3.542  86.095 111.338  0.00  0.00    -0.311 N 
ATOM     14  C   LIG d   1       3.825  86.654 112.513  0.00  0.00     0.210 C 
ATOM     15  C   LIG d   1       5.136  87.445 112.553  0.00  0.00     0.109 C 
ATOM     16  O   LIG d   1       3.132  86.542 113.535  0.00  0.00    -0.276 OA
ATOM     17  H   LIG d   1       4.176  86.209 110.571  0.00  0.00     0.149 HD
ENDBRANCH   6  13
BRANCH   5  18
ATOM     18  N   LIG d   1       0.784  87.283 110.778  0.00  0.00     0.381 N 
ATOM     19  H   LIG d   1       1.646  87.772 110.639  0.00  0.00    -0.090 HD
ATOM     20  H   LIG d   1       0.170  87.873 111.312  0.00  0.00    -0.090 HD
ATOM     21  H   LIG d   1       0.369  87.070 109.898  0.00  0.00    -0.090 HD
ENDBRANCH   5  18
BRANCH   3  22
ATOM     22  C   LIG d   1      -1.137  83.180 112.330  0.00  0.00     0.382 C 
ATOM     23  O   LIG d   1      -1.617  83.435 113.461  0.00  0.00    -0.241 OA
ATOM     24  O   LIG d   1      -1.656  82.289 111.631  0.00  0.00    -0.241 OA
ENDBRANCH   3  22
TORSDOF 7
ENDMDL
MODEL 8
REMARK VINA RESULT:      -5.2      2.072      3.796
REMARK  7 active torsions:
REMARK  status: ('A' for Active; 'I' for Inactive)
REMARK    1  A    between atoms: C_2  and  C_3 
REMARK    2  A    between atoms: C_3  and  O_6 
REMARK    3  A    between atoms: C_3  and  C_4 
REMARK    4  A    between atoms: C_7  and  O_6 
REMARK    5  A    between atoms: C_9  and  C_10 
REMARK    6  A    between atoms: N_15  and  C_14 
REMARK    7  A    between atoms: N_20  and  C_19 
REMARK       I    between atoms: C_22  and  N_20 
ROOT
ATOM      1  C   LIG d   1       1.022  82.359 110.564  0.00  0.00     0.161 C 
ATOM      2  C   LIG d   1       0.138  81.355 110.994  0.00  0.00     0.016 C 
ATOM      3  C   LIG d   1      -0.929  81.591 111.891  0.00  0.00     0.038 C 
ATOM      4  C   LIG d   1      -1.279  82.885 112.304  0.00  0.00     0.028 C 
ATOM      5  C   LIG d   1      -0.107  83.861 112.296  0.00  0.00    -0.047 C 
ATOM      6  C   LIG d   1       0.589  83.797 110.917  0.00  0.00     0.091 C 
ENDROOT
BRANCH   1   7
ATOM      7  O   LIG d   1       1.247  82.237 109.146  0.00  0.00    -0.368 OA
BRANCH   7   8
ATOM      8  C   LIG d   1       2.435  81.509 108.749  0.00  0.00     0.119 C 
BRANCH   8   9
ATOM      9  C   LIG d   1       2.081  80.009 108.750  0.00  0.00     0.028 C 
ATOM     10  C   LIG d   1       2.969  79.197 109.707  0.00  0.00     0.006 C 
ENDBRANCH   8   9
BRANCH   8  11
ATOM     11  C   LIG d   1       3.554  81.662 109.784  0.00  0.00     0.028 C 
ATOM     12  C   LIG d   1       4.738  82.491 109.263  0.00  0.00     0.006 C 
ENDBRANCH   8  11
ENDBRANCH   7   8
ENDBRANCH   1   7
BRANCH   6  13
ATOM     13  N   LIG d   1       1.798  84.660 110.852  0.00  0.00    -0.311 N 
ATOM     14  C   LIG d   1       2.808  84.572 111.716  0.00  0.00     0.210 C 
ATOM     15  C   LIG d   1       3.947  85.569 111.481  0.00  0.00     0.109 C 
ATOM     16  O   LIG d   1       2.883  83.743 112.634  0.00  0.00    -0.276 OA
ATOM     17  H   LIG d   1       1.834  85.340 110.118  0.00  0.00     0.149 HD
ENDBRANCH   6  13
BRANCH   5  18
ATOM     18  N   LIG d   1      -0.639  85.199 112.614  0.00  0.00     0.381 N 
ATOM     19  H   LIG d   1      -1.336  85.126 113.328  0.00  0.00    -0.090 HD
ATOM     20  H   LIG d   1      -1.071  85.581 111.791  0.00  0.00    -0.090 HD
ATOM     21  H   LIG d   1       0.098  85.796 112.919  0.00  0.00    -0.090 HD
ENDBRANCH   5  18
BRANCH   3  22
ATOM     22  C   LIG d   1      -1.635  80.519 112.416  0.00  0.00     0.382 C 
ATOM     23  O   LIG d   1      -2.038  79.603 111.659  0.00  0.00    -0.241 OA
ATOM     24  O   LIG d   1      -1.912  80.478 113.629  0.00  0.00    -0.241 OA
ENDBRANCH   3  22
TORSDOF 7
ENDMDL
MODEL 9
REMARK VINA RESULT:      -4.8      2.563      5.326
REMARK  7 active torsions:
REMARK  status: ('A' for Active; 'I' for Inactive)
REMARK    1  A    between atoms: C_2  and  C_3 
REMARK    2  A    between atoms: C_3  and  O_6 
REMARK    3  A    between atoms: C_3  and  C_4 
REMARK    4  A    between atoms: C_7  and  O_6 
REMARK    5  A    between atoms: C_9  and  C_10 
REMARK    6  A    between atoms: N_15  and  C_14 
REMARK    7  A    between atoms: N_20  and  C_19 
REMARK       I    between atoms: C_22  and  N_20 
ROOT
ATOM      1  C   LIG d   1       0.176  84.453 110.888  0.00  0.00     0.161 C 
ATOM      2  C   LIG d   1       1.078  85.528 110.946  0.00  0.00     0.016 C 
ATOM      3  C   LIG d   1       1.826  85.855 112.101  0.00  0.00     0.038 C 
ATOM      4  C   LIG d   1       1.834  85.031 113.236  0.00  0.00     0.028 C 
ATOM      5  C   LIG d   1       0.556  84.218 113.404  0.00  0.00    -0.047 C 
ATOM      6  C   LIG d   1       0.255  83.477 112.081  0.00  0.00     0.091 C 
ENDROOT
BRANCH   1   7
ATOM      7  O   LIG d   1       0.344  83.741 109.646  0.00  0.00    -0.368 OA
BRANCH   7   8
ATOM      8  C   LIG d   1       1.651  83.836 109.029  0.00  0.00     0.119 C 
BRANCH   8   9
ATOM      9  C   LIG d   1       1.435  84.077 107.522  0.00  0.00     0.028 C 
ATOM     10  C   LIG d   1       0.765  85.431 107.234  0.00  0.00     0.006 C 
ENDBRANCH   8   9
BRANCH   8  11
ATOM     11  C   LIG d   1       2.410  82.509 109.123  0.00  0.00     0.028 C 
ATOM     12  C   LIG d   1       1.474  81.293 109.211  0.00  0.00     0.006 C 
ENDBRANCH   8  11
ENDBRANCH   7   8
ENDBRANCH   1   7
BRANCH   6  13
ATOM     13  N   LIG d   1      -1.025  82.724 112.131  0.00  0.00    -0.311 N 
ATOM     14  C   LIG d   1      -1.102  81.429 112.433  0.00  0.00     0.210 C 
ATOM     15  C   LIG d   1      -2.517  80.843 112.408  0.00  0.00     0.109 C 
ATOM     16  O   LIG d   1      -0.137  80.718 112.750  0.00  0.00    -0.276 OA
ATOM     17  H   LIG d   1      -1.861  83.231 111.917  0.00  0.00     0.149 HD
ENDBRANCH   6  13
BRANCH   5  18
ATOM     18  N   LIG d   1       0.755  83.304 114.545  0.00  0.00     0.381 N 
ATOM     19  H   LIG d   1      -0.108  83.185 115.038  0.00  0.00    -0.090 HD
ATOM     20  H   LIG d   1       1.424  83.712 115.174  0.00  0.00    -0.090 HD
ATOM     21  H   LIG d   1       1.085  82.422 114.222  0.00  0.00    -0.090 HD
ENDBRANCH   5  18
BRANCH   3  22
ATOM     22  C   LIG d   1       2.546  87.040 112.141  0.00  0.00     0.382 C 
ATOM     23  O   LIG d   1       2.564  87.796 111.141  0.00  0.00    -0.241 OA
ATOM     24  O   LIG d   1       3.212  87.340 113.150  0.00  0.00    -0.241 OA
ENDBRANCH   3  22
TORSDOF 7
ENDMDL
