MODEL 1
REMARK VINA RESULT:      -6.5      0.000      0.000
REMARK  7 active torsions:
REMARK  status: ('A' for Active; 'I' for Inactive)
REMARK    1  A    between atoms: C_2  and  C_3 
REMARK    2  A    between atoms: C_3  and  O_6 
REMARK    3  A    between atoms: C_3  and  C_4 
REMARK    4  A    between atoms: C_7  and  O_6 
REMARK    5  A    between atoms: C_9  and  C_10 
REMARK    6  A    between atoms: N_15  and  C_14 
REMARK    7  A    between atoms: N_20  and  C_19 
REMARK       I    between atoms: C_22  and  N_20 
ROOT
ATOM      1  C   LIG d   1       1.186  83.743 109.661  0.00  0.00     0.161 C 
ATOM      2  C   LIG d   1       0.757  84.891 110.348  0.00  0.00     0.016 C 
ATOM      3  C   LIG d   1      -0.073  84.848 111.492  0.00  0.00     0.038 C 
ATOM      4  C   LIG d   1      -0.410  83.639 112.119  0.00  0.00     0.028 C 
ATOM      5  C   LIG d   1      -0.416  82.445 111.170  0.00  0.00    -0.047 C 
ATOM      6  C   LIG d   1       0.921  82.412 110.396  0.00  0.00     0.091 C 
ENDROOT
BRANCH   1   7
ATOM      7  O   LIG d   1       2.585  83.865 109.333  0.00  0.00    -0.368 OA
BRANCH   7   8
ATOM      8  C   LIG d   1       3.517  83.596 110.409  0.00  0.00     0.119 C 
BRANCH   8   9
ATOM      9  C   LIG d   1       4.080  84.950 110.883  0.00  0.00     0.028 C 
ATOM     10  C   LIG d   1       3.783  85.221 112.368  0.00  0.00     0.006 C 
ENDBRANCH   8   9
BRANCH   8  11
ATOM     11  C   LIG d   1       4.730  82.805 109.911  0.00  0.00     0.028 C 
ATOM     12  C   LIG d   1       4.568  82.316 108.463  0.00  0.00     0.006 C 
ENDBRANCH   8  11
ENDBRANCH   7   8
ENDBRANCH   1   7
BRANCH   6  13
ATOM     13  N   LIG d   1       0.964  81.324 109.384  0.00  0.00    -0.311 N 
ATOM     14  C   LIG d   1       1.799  80.289 109.457  0.00  0.00     0.210 C 
ATOM     15  C   LIG d   1       1.692  79.290 108.300  0.00  0.00     0.109 C 
ATOM     16  O   LIG d   1       2.595  80.086 110.386  0.00  0.00    -0.276 OA
ATOM     17  H   LIG d   1       0.330  81.393 108.613  0.00  0.00     0.149 HD
ENDBRANCH   6  13
BRANCH   5  18
ATOM     18  N   LIG d   1      -0.646  81.234 111.979  0.00  0.00     0.381 N 
ATOM     19  H   LIG d   1      -1.600  81.204 112.281  0.00  0.00    -0.090 HD
ATOM     20  H   LIG d   1      -0.059  81.271 112.794  0.00  0.00    -0.090 HD
ATOM     21  H   LIG d   1      -0.434  80.421 111.444  0.00  0.00    -0.090 HD
ENDBRANCH   5  18
BRANCH   3  22
ATOM     22  C   LIG d   1      -0.610  86.023 111.996  0.00  0.00     0.382 C 
ATOM     23  O   LIG d   1      -1.185  86.830 111.227  0.00  0.00    -0.241 OA
ATOM     24  O   LIG d   1      -0.487  86.307 113.203  0.00  0.00    -0.241 OA
ENDBRANCH   3  22
TORSDOF 7
ENDMDL
MODEL 2
REMARK VINA RESULT:      -6.3      2.554      4.887
REMARK  7 active torsions:
REMARK  status: ('A' for Active; 'I' for Inactive)
REMARK    1  A    between atoms: C_2  and  C_3 
REMARK    2  A    between atoms: C_3  and  O_6 
REMARK    3  A    between atoms: C_3  and  C_4 
REMARK    4  A    between atoms: C_7  and  O_6 
REMARK    5  A    between atoms: C_9  and  C_10 
REMARK    6  A    between atoms: N_15  and  C_14 
REMARK    7  A    between atoms: N_20  and  C_19 
REMARK       I    between atoms: C_22  and  N_20 
ROOT
ATOM      1  C   LIG d   1       1.577  80.823 111.801  0.00  0.00     0.161 C 
ATOM      2  C   LIG d   1       2.653  81.458 111.158  0.00  0.00     0.016 C 
ATOM      3  C   LIG d   1       2.783  81.536 109.752  0.00  0.00     0.038 C 
ATOM      4  C   LIG d   1       1.762  81.111 108.889  0.00  0.00     0.028 C 
ATOM      5  C   LIG d   1       0.888  80.010 109.479  0.00  0.00    -0.047 C 
ATOM      6  C   LIG d   1       0.399  80.452 110.877  0.00  0.00     0.091 C 
ENDROOT
BRANCH   1   7
ATOM      7  O   LIG d   1       1.117  81.635 112.900  0.00  0.00    -0.368 OA
BRANCH   7   8
ATOM      8  C   LIG d   1       1.229  83.068 112.724  0.00  0.00     0.119 C 
BRANCH   8   9
ATOM      9  C   LIG d   1       1.578  83.677 114.096  0.00  0.00     0.028 C 
ATOM     10  C   LIG d   1       1.478  85.212 114.099  0.00  0.00     0.006 C 
ENDBRANCH   8   9
BRANCH   8  11
ATOM     11  C   LIG d   1      -0.116  83.689 112.335  0.00  0.00     0.028 C 
ATOM     12  C   LIG d   1      -0.177  84.099 110.855  0.00  0.00     0.006 C 
ENDBRANCH   8  11
ENDBRANCH   7   8
ENDBRANCH   1   7
BRANCH   6  13
ATOM     13  N   LIG d   1      -0.394  79.397 111.560  0.00  0.00    -0.311 N 
ATOM     14  C   LIG d   1      -1.545  79.634 112.186  0.00  0.00     0.210 C 
ATOM     15  C   LIG d   1      -2.190  78.409 112.842  0.00  0.00     0.109 C 
ATOM     16  O   LIG d   1      -2.110  80.737 112.233  0.00  0.00    -0.276 OA
ATOM     17  H   LIG d   1      -0.024  78.466 111.545  0.00  0.00     0.149 HD
ENDBRANCH   6  13
BRANCH   5  18
ATOM     18  N   LIG d   1      -0.215  79.761 108.532  0.00  0.00     0.381 N 
ATOM     19  H   LIG d   1       0.154  79.452 107.655  0.00  0.00    -0.090 HD
ATOM     20  H   LIG d   1      -0.713  80.620 108.380  0.00  0.00    -0.090 HD
ATOM     21  H   LIG d   1      -0.833  79.071 108.902  0.00  0.00    -0.090 HD
ENDBRANCH   5  18
BRANCH   3  22
ATOM     22  C   LIG d   1       3.962  82.006 109.196  0.00  0.00     0.382 C 
ATOM     23  O   LIG d   1       4.611  81.286 108.399  0.00  0.00    -0.241 OA
ATOM     24  O   LIG d   1       4.410  83.124 109.516  0.00  0.00    -0.241 OA
ENDBRANCH   3  22
TORSDOF 7
ENDMDL
MODEL 3
REMARK VINA RESULT:      -5.8      2.337      5.064
REMARK  7 active torsions:
REMARK  status: ('A' for Active; 'I' for Inactive)
REMARK    1  A    between atoms: C_2  and  C_3 
REMARK    2  A    between atoms: C_3  and  O_6 
REMARK    3  A    between atoms: C_3  and  C_4 
REMARK    4  A    between atoms: C_7  and  O_6 
REMARK    5  A    between atoms: C_9  and  C_10 
REMARK    6  A    between atoms: N_15  and  C_14 
REMARK    7  A    between atoms: N_20  and  C_19 
REMARK       I    between atoms: C_22  and  N_20 
ROOT
ATOM      1  C   LIG d   1       2.892  82.567 110.358  0.00  0.00     0.161 C 
ATOM      2  C   LIG d   1       2.389  81.742 109.338  0.00  0.00     0.016 C 
ATOM      3  C   LIG d   1       1.527  80.647 109.577  0.00  0.00     0.038 C 
ATOM      4  C   LIG d   1       0.986  80.393 110.846  0.00  0.00     0.028 C 
ATOM      5  C   LIG d   1       1.863  80.892 111.990  0.00  0.00    -0.047 C 
ATOM      6  C   LIG d   1       2.225  82.373 111.735  0.00  0.00     0.091 C 
ENDROOT
BRANCH   1   7
ATOM      7  O   LIG d   1       2.813  83.948 109.953  0.00  0.00    -0.368 OA
BRANCH   7   8
ATOM      8  C   LIG d   1       1.689  84.701 110.471  0.00  0.00     0.119 C 
BRANCH   8   9
ATOM      9  C   LIG d   1       0.804  85.095 109.273  0.00  0.00     0.028 C 
ATOM     10  C   LIG d   1      -0.455  85.868 109.703  0.00  0.00     0.006 C 
ENDBRANCH   8   9
BRANCH   8  11
ATOM     11  C   LIG d   1       2.144  86.025 111.092  0.00  0.00     0.028 C 
ATOM     12  C   LIG d   1       3.655  86.064 111.370  0.00  0.00     0.006 C 
ENDBRANCH   8  11
ENDBRANCH   7   8
ENDBRANCH   1   7
BRANCH   6  13
ATOM     13  N   LIG d   1       3.150  82.916 112.764  0.00  0.00    -0.311 N 
ATOM     14  C   LIG d   1       2.739  83.586 113.839  0.00  0.00     0.210 C 
ATOM     15  C   LIG d   1       3.859  84.076 114.763  0.00  0.00     0.109 C 
ATOM     16  O   LIG d   1       1.552  83.795 114.132  0.00  0.00    -0.276 OA
ATOM     17  H   LIG d   1       4.129  82.765 112.621  0.00  0.00     0.149 HD
ENDBRANCH   6  13
BRANCH   5  18
ATOM     18  N   LIG d   1       1.117  80.686 113.246  0.00  0.00     0.381 N 
ATOM     19  H   LIG d   1       1.256  79.751 113.573  0.00  0.00    -0.090 HD
ATOM     20  H   LIG d   1       0.137  80.815 113.067  0.00  0.00    -0.090 HD
ATOM     21  H   LIG d   1       1.424  81.337 113.935  0.00  0.00    -0.090 HD
ENDBRANCH   5  18
BRANCH   3  22
ATOM     22  C   LIG d   1       1.231  79.768 108.547  0.00  0.00     0.382 C 
ATOM     23  O   LIG d   1       2.135  79.052 108.054  0.00  0.00    -0.241 OA
ATOM     24  O   LIG d   1       0.080  79.714 108.074  0.00  0.00    -0.241 OA
ENDBRANCH   3  22
TORSDOF 7
ENDMDL
MODEL 4
REMARK VINA RESULT:      -5.7      2.072      3.265
REMARK  7 active torsions:
REMARK  status: ('A' for Active; 'I' for Inactive)
REMARK    1  A    between atoms: C_2  and  C_3 
REMARK    2  A    between atoms: C_3  and  O_6 
REMARK    3  A    between atoms: C_3  and  C_4 
REMARK    4  A    between atoms: C_7  and  O_6 
REMARK    5  A    between atoms: C_9  and  C_10 
REMARK    6  A    between atoms: N_15  and  C_14 
REMARK    7  A    between atoms: N_20  and  C_19 
REMARK       I    between atoms: C_22  and  N_20 
ROOT
ATOM      1  C   LIG d   1       1.402  83.578 110.258  0.00  0.00     0.161 C 
ATOM      2  C   LIG d   1       2.119  84.785 110.315  0.00  0.00     0.016 C 
ATOM      3  C   LIG d   1       2.519  85.396 111.525  0.00  0.00     0.038 C 
ATOM      4  C   LIG d   1       2.360  84.760 112.765  0.00  0.00     0.028 C 
ATOM      5  C   LIG d   1       1.193  83.779 112.797  0.00  0.00    -0.047 C 
ATOM      6  C   LIG d   1       1.316  82.814 111.596  0.00  0.00     0.091 C 
ENDROOT
BRANCH   1   7
ATOM      7  O   LIG d   1       1.952  82.730 109.231  0.00  0.00    -0.368 OA
BRANCH   7   8
ATOM      8  C   LIG d   1       2.635  81.537 109.688  0.00  0.00     0.119 C 
BRANCH   8   9
ATOM      9  C   LIG d   1       4.127  81.889 109.844  0.00  0.00     0.028 C 
ATOM     10  C   LIG d   1       4.754  82.386 108.531  0.00  0.00     0.006 C 
ENDBRANCH   8   9
BRANCH   8  11
ATOM     11  C   LIG d   1       2.589  80.430 108.631  0.00  0.00     0.028 C 
ATOM     12  C   LIG d   1       1.754  79.217 109.074  0.00  0.00     0.006 C 
ENDBRANCH   8  11
ENDBRANCH   7   8
ENDBRANCH   1   7
BRANCH   6  13
ATOM     13  N   LIG d   1       0.168  81.874 111.504  0.00  0.00    -0.311 N 
ATOM     14  C   LIG d   1       0.117  80.713 112.154  0.00  0.00     0.210 C 
ATOM     15  C   LIG d   1      -1.149  79.887 111.904  0.00  0.00     0.109 C 
ATOM     16  O   LIG d   1       0.984  80.304 112.940  0.00  0.00    -0.276 OA
ATOM     17  H   LIG d   1      -0.594  82.142 110.912  0.00  0.00     0.149 HD
ENDBRANCH   6  13
BRANCH   5  18
ATOM     18  N   LIG d   1       1.227  83.088 114.100  0.00  0.00     0.381 N 
ATOM     19  H   LIG d   1       1.864  83.554 114.714  0.00  0.00    -0.090 HD
ATOM     20  H   LIG d   1       1.553  82.148 113.960  0.00  0.00    -0.090 HD
ATOM     21  H   LIG d   1       0.316  83.074 114.503  0.00  0.00    -0.090 HD
ENDBRANCH   5  18
BRANCH   3  22
ATOM     22  C   LIG d   1       3.051  86.676 111.506  0.00  0.00     0.382 C 
ATOM     23  O   LIG d   1       4.292  86.841 111.597  0.00  0.00    -0.241 OA
ATOM     24  O   LIG d   1       2.303  87.670 111.442  0.00  0.00    -0.241 OA
ENDBRANCH   3  22
TORSDOF 7
ENDMDL
MODEL 5
REMARK VINA RESULT:      -5.6      2.920      3.896
REMARK  7 active torsions:
REMARK  status: ('A' for Active; 'I' for Inactive)
REMARK    1  A    between atoms: C_2  and  C_3 
REMARK    2  A    between atoms: C_3  and  O_6 
REMARK    3  A    between atoms: C_3  and  C_4 
REMARK    4  A    between atoms: C_7  and  O_6 
REMARK    5  A    between atoms: C_9  and  C_10 
REMARK    6  A    between atoms: N_15  and  C_14 
REMARK    7  A    between atoms: N_20  and  C_19 
REMARK       I    between atoms: C_22  and  N_20 
ROOT
ATOM      1  C   LIG d   1       3.435  83.934 111.515  0.00  0.00     0.161 C 
ATOM      2  C   LIG d   1       3.744  85.201 112.037  0.00  0.00     0.016 C 
ATOM      3  C   LIG d   1       3.010  86.370 111.730  0.00  0.00     0.038 C 
ATOM      4  C   LIG d   1       1.817  86.323 110.994  0.00  0.00     0.028 C 
ATOM      5  C   LIG d   1       1.746  85.144 110.029  0.00  0.00    -0.047 C 
ATOM      6  C   LIG d   1       2.071  83.845 110.799  0.00  0.00     0.091 C 
ENDROOT
BRANCH   1   7
ATOM      7  O   LIG d   1       3.520  82.942 112.558  0.00  0.00    -0.368 OA
BRANCH   7   8
ATOM      8  C   LIG d   1       2.325  82.754 113.356  0.00  0.00     0.119 C 
BRANCH   8   9
ATOM      9  C   LIG d   1       2.599  83.357 114.748  0.00  0.00     0.028 C 
ATOM     10  C   LIG d   1       1.626  84.496 115.095  0.00  0.00     0.006 C 
ENDBRANCH   8   9
BRANCH   8  11
ATOM     11  C   LIG d   1       2.051  81.268 113.605  0.00  0.00     0.028 C 
ATOM     12  C   LIG d   1       2.292  80.854 115.066  0.00  0.00     0.006 C 
ENDBRANCH   8  11
ENDBRANCH   7   8
ENDBRANCH   1   7
BRANCH   6  13
ATOM     13  N   LIG d   1       2.106  82.653 109.912  0.00  0.00    -0.311 N 
ATOM     14  C   LIG d   1       1.186  81.691 109.940  0.00  0.00     0.210 C 
ATOM     15  C   LIG d   1       1.422  80.541 108.955  0.00  0.00     0.109 C 
ATOM     16  O   LIG d   1       0.179  81.696 110.664  0.00  0.00    -0.276 OA
ATOM     17  H   LIG d   1       2.872  82.584 109.271  0.00  0.00     0.149 HD
ENDBRANCH   6  13
BRANCH   5  18
ATOM     18  N   LIG d   1       0.398  85.139 109.430  0.00  0.00     0.381 N 
ATOM     19  H   LIG d   1       0.089  84.197 109.299  0.00  0.00    -0.090 HD
ATOM     20  H   LIG d   1       0.440  85.585 108.530  0.00  0.00    -0.090 HD
ATOM     21  H   LIG d   1      -0.240  85.627 110.020  0.00  0.00    -0.090 HD
ENDBRANCH   5  18
BRANCH   3  22
ATOM     22  C   LIG d   1       3.490  87.608 112.128  0.00  0.00     0.382 C 
ATOM     23  O   LIG d   1       4.715  87.762 112.353  0.00  0.00    -0.241 OA
ATOM     24  O   LIG d   1       2.709  88.561 112.307  0.00  0.00    -0.241 OA
ENDBRANCH   3  22
TORSDOF 7
ENDMDL
MODEL 6
REMARK VINA RESULT:      -5.3     24.561     26.954
REMARK  7 active torsions:
REMARK  status: ('A' for Active; 'I' for Inactive)
REMARK    1  A    between atoms: C_2  and  C_3 
REMARK    2  A    between atoms: C_3  and  O_6 
REMARK    3  A    between atoms: C_3  and  C_4 
REMARK    4  A    between atoms: C_7  and  O_6 
REMARK    5  A    between atoms: C_9  and  C_10 
REMARK    6  A    between atoms: N_15  and  C_14 
REMARK    7  A    between atoms: N_20  and  C_19 
REMARK       I    between atoms: C_22  and  N_20 
ROOT
ATOM      1  C   LIG d   1     -25.709  85.780 113.046  0.00  0.00     0.161 C 
ATOM      2  C   LIG d   1     -24.676  86.706 113.267  0.00  0.00     0.016 C 
ATOM      3  C   LIG d   1     -23.330  86.333 113.486  0.00  0.00     0.038 C 
ATOM      4  C   LIG d   1     -22.896  85.006 113.346  0.00  0.00     0.028 C 
ATOM      5  C   LIG d   1     -23.989  83.980 113.622  0.00  0.00    -0.047 C 
ATOM      6  C   LIG d   1     -25.236  84.335 112.780  0.00  0.00     0.091 C 
ENDROOT
BRANCH   1   7
ATOM      7  O   LIG d   1     -26.553  86.237 111.970  0.00  0.00    -0.368 OA
BRANCH   7   8
ATOM      8  C   LIG d   1     -25.938  86.297 110.660  0.00  0.00     0.119 C 
BRANCH   8   9
ATOM      9  C   LIG d   1     -26.098  87.739 110.139  0.00  0.00     0.028 C 
ATOM     10  C   LIG d   1     -27.106  88.553 110.968  0.00  0.00     0.006 C 
ENDBRANCH   8   9
BRANCH   8  11
ATOM     11  C   LIG d   1     -26.685  85.418 109.653  0.00  0.00     0.028 C 
ATOM     12  C   LIG d   1     -26.068  85.467 108.246  0.00  0.00     0.006 C 
ENDBRANCH   8  11
ENDBRANCH   7   8
ENDBRANCH   1   7
BRANCH   6  13
ATOM     13  N   LIG d   1     -26.382  83.429 113.053  0.00  0.00    -0.311 N 
ATOM     14  C   LIG d   1     -26.795  82.492 112.201  0.00  0.00     0.210 C 
ATOM     15  C   LIG d   1     -28.006  81.681 112.670  0.00  0.00     0.109 C 
ATOM     16  O   LIG d   1     -26.252  82.234 111.116  0.00  0.00    -0.276 OA
ATOM     17  H   LIG d   1     -26.860  83.549 113.924  0.00  0.00     0.149 HD
ENDBRANCH   6  13
BRANCH   5  18
ATOM     18  N   LIG d   1     -23.439  82.648 113.306  0.00  0.00     0.381 N 
ATOM     19  H   LIG d   1     -24.032  82.184 112.647  0.00  0.00    -0.090 HD
ATOM     20  H   LIG d   1     -23.414  82.099 114.148  0.00  0.00    -0.090 HD
ATOM     21  H   LIG d   1     -22.520  82.738 112.932  0.00  0.00    -0.090 HD
ENDBRANCH   5  18
BRANCH   3  22
ATOM     22  C   LIG d   1     -22.409  87.289 113.887  0.00  0.00     0.382 C 
ATOM     23  O   LIG d   1     -22.777  88.255 114.597  0.00  0.00    -0.241 OA
ATOM     24  O   LIG d   1     -21.223  87.220 113.511  0.00  0.00    -0.241 OA
ENDBRANCH   3  22
TORSDOF 7
ENDMDL
MODEL 7
REMARK VINA RESULT:      -5.2      3.404      4.878
REMARK  7 active torsions:
REMARK  status: ('A' for Active; 'I' for Inactive)
REMARK    1  A    between atoms: C_2  and  C_3 
REMARK    2  A    between atoms: C_3  and  O_6 
REMARK    3  A    between atoms: C_3  and  C_4 
REMARK    4  A    between atoms: C_7  and  O_6 
REMARK    5  A    between atoms: C_9  and  C_10 
REMARK    6  A    between atoms: N_15  and  C_14 
REMARK    7  A    between atoms: N_20  and  C_19 
REMARK       I    between atoms: C_22  and  N_20 
ROOT
ATOM      1  C   LIG d   1       2.030  84.275 113.041  0.00  0.00     0.161 C 
ATOM      2  C   LIG d   1       2.622  85.543 113.164  0.00  0.00     0.016 C 
ATOM      3  C   LIG d   1       2.594  86.518 112.140  0.00  0.00     0.038 C 
ATOM      4  C   LIG d   1       1.835  86.345 110.973  0.00  0.00     0.028 C 
ATOM      5  C   LIG d   1       1.637  84.882 110.590  0.00  0.00    -0.047 C 
ATOM      6  C   LIG d   1       1.103  84.110 111.819  0.00  0.00     0.091 C 
ENDROOT
BRANCH   1   7
ATOM      7  O   LIG d   1       1.323  83.947 114.254  0.00  0.00    -0.368 OA
BRANCH   7   8
ATOM      8  C   LIG d   1       2.144  83.634 115.405  0.00  0.00     0.119 C 
BRANCH   8   9
ATOM      9  C   LIG d   1       2.455  82.126 115.357  0.00  0.00     0.028 C 
ATOM     10  C   LIG d   1       3.329  81.668 116.537  0.00  0.00     0.006 C 
ENDBRANCH   8   9
BRANCH   8  11
ATOM     11  C   LIG d   1       1.375  83.848 116.713  0.00  0.00     0.028 C 
ATOM     12  C   LIG d   1       1.117  85.333 117.016  0.00  0.00     0.006 C 
ENDBRANCH   8  11
ENDBRANCH   7   8
ENDBRANCH   1   7
BRANCH   6  13
ATOM     13  N   LIG d   1       0.960  82.655 111.555  0.00  0.00    -0.311 N 
ATOM     14  C   LIG d   1      -0.189  81.994 111.690  0.00  0.00     0.210 C 
ATOM     15  C   LIG d   1      -0.112  80.495 111.387  0.00  0.00     0.109 C 
ATOM     16  O   LIG d   1      -1.271  82.514 112.000  0.00  0.00    -0.276 OA
ATOM     17  H   LIG d   1       1.782  82.160 111.268  0.00  0.00     0.149 HD
ENDBRANCH   6  13
BRANCH   5  18
ATOM     18  N   LIG d   1       0.716  84.844 109.438  0.00  0.00     0.381 N 
ATOM     19  H   LIG d   1       1.069  85.424 108.703  0.00  0.00    -0.090 HD
ATOM     20  H   LIG d   1      -0.177  85.206 109.724  0.00  0.00    -0.090 HD
ATOM     21  H   LIG d   1       0.615  83.908 109.113  0.00  0.00    -0.090 HD
ENDBRANCH   5  18
BRANCH   3  22
ATOM     22  C   LIG d   1       3.363  87.665 112.262  0.00  0.00     0.382 C 
ATOM     23  O   LIG d   1       2.810  88.771 112.475  0.00  0.00    -0.241 OA
ATOM     24  O   LIG d   1       4.600  87.615 112.119  0.00  0.00    -0.241 OA
ENDBRANCH   3  22
TORSDOF 7
ENDMDL
MODEL 8
REMARK VINA RESULT:      -5.1      2.991      4.376
REMARK  7 active torsions:
REMARK  status: ('A' for Active; 'I' for Inactive)
REMARK    1  A    between atoms: C_2  and  C_3 
REMARK    2  A    between atoms: C_3  and  O_6 
REMARK    3  A    between atoms: C_3  and  C_4 
REMARK    4  A    between atoms: C_7  and  O_6 
REMARK    5  A    between atoms: C_9  and  C_10 
REMARK    6  A    between atoms: N_15  and  C_14 
REMARK    7  A    between atoms: N_20  and  C_19 
REMARK       I    between atoms: C_22  and  N_20 
ROOT
ATOM      1  C   LIG d   1       3.596  83.786 112.214  0.00  0.00     0.161 C 
ATOM      2  C   LIG d   1       3.740  85.150 112.519  0.00  0.00     0.016 C 
ATOM      3  C   LIG d   1       3.130  86.183 111.771  0.00  0.00     0.038 C 
ATOM      4  C   LIG d   1       2.206  85.913 110.750  0.00  0.00     0.028 C 
ATOM      5  C   LIG d   1       2.420  84.560 110.081  0.00  0.00    -0.047 C 
ATOM      6  C   LIG d   1       2.503  83.468 111.172  0.00  0.00     0.091 C 
ENDROOT
BRANCH   1   7
ATOM      7  O   LIG d   1       3.370  83.036 113.423  0.00  0.00    -0.368 OA
BRANCH   7   8
ATOM      8  C   LIG d   1       3.147  83.816 114.624  0.00  0.00     0.119 C 
BRANCH   8   9
ATOM      9  C   LIG d   1       3.684  82.997 115.814  0.00  0.00     0.028 C 
ATOM     10  C   LIG d   1       4.536  83.845 116.773  0.00  0.00     0.006 C 
ENDBRANCH   8   9
BRANCH   8  11
ATOM     11  C   LIG d   1       1.651  83.999 114.900  0.00  0.00     0.028 C 
ATOM     12  C   LIG d   1       1.289  85.442 115.286  0.00  0.00     0.006 C 
ENDBRANCH   8  11
ENDBRANCH   7   8
ENDBRANCH   1   7
BRANCH   6  13
ATOM     13  N   LIG d   1       2.796  82.125 110.609  0.00  0.00    -0.311 N 
ATOM     14  C   LIG d   1       3.849  81.868 109.834  0.00  0.00     0.210 C 
ATOM     15  C   LIG d   1       3.953  80.421 109.343  0.00  0.00     0.109 C 
ATOM     16  O   LIG d   1       4.723  82.694 109.534  0.00  0.00    -0.276 OA
ATOM     17  H   LIG d   1       2.154  81.388 110.828  0.00  0.00     0.149 HD
ENDBRANCH   6  13
BRANCH   5  18
ATOM     18  N   LIG d   1       1.308  84.349 109.136  0.00  0.00     0.381 N 
ATOM     19  H   LIG d   1       1.114  83.371 109.053  0.00  0.00    -0.090 HD
ATOM     20  H   LIG d   1       1.580  84.694 108.232  0.00  0.00    -0.090 HD
ATOM     21  H   LIG d   1       0.495  84.831 109.452  0.00  0.00    -0.090 HD
ENDBRANCH   5  18
BRANCH   3  22
ATOM     22  C   LIG d   1       3.475  87.504 112.015  0.00  0.00     0.382 C 
ATOM     23  O   LIG d   1       4.653  87.797 112.330  0.00  0.00    -0.241 OA
ATOM     24  O   LIG d   1       2.612  88.401 111.968  0.00  0.00    -0.241 OA
ENDBRANCH   3  22
TORSDOF 7
ENDMDL
MODEL 9
REMARK VINA RESULT:      -5.1      2.103      2.986
REMARK  7 active torsions:
REMARK  status: ('A' for Active; 'I' for Inactive)
REMARK    1  A    between atoms: C_2  and  C_3 
REMARK    2  A    between atoms: C_3  and  O_6 
REMARK    3  A    between atoms: C_3  and  C_4 
REMARK    4  A    between atoms: C_7  and  O_6 
REMARK    5  A    between atoms: C_9  and  C_10 
REMARK    6  A    between atoms: N_15  and  C_14 
REMARK    7  A    between atoms: N_20  and  C_19 
REMARK       I    between atoms: C_22  and  N_20 
ROOT
ATOM      1  C   LIG d   1       1.110  82.776 110.657  0.00  0.00     0.161 C 
ATOM      2  C   LIG d   1       1.080  84.158 110.404  0.00  0.00     0.016 C 
ATOM      3  C   LIG d   1       1.121  85.136 111.424  0.00  0.00     0.038 C 
ATOM      4  C   LIG d   1       1.348  84.798 112.767  0.00  0.00     0.028 C 
ATOM      5  C   LIG d   1       0.879  83.392 113.126  0.00  0.00    -0.047 C 
ATOM      6  C   LIG d   1       1.470  82.391 112.107  0.00  0.00     0.091 C 
ENDROOT
BRANCH   1   7
ATOM      7  O   LIG d   1       2.005  82.130 109.730  0.00  0.00    -0.368 OA
BRANCH   7   8
ATOM      8  C   LIG d   1       3.256  82.812 109.470  0.00  0.00     0.119 C 
BRANCH   8   9
ATOM      9  C   LIG d   1       3.905  82.139 108.246  0.00  0.00     0.028 C 
ATOM     10  C   LIG d   1       4.299  80.678 108.519  0.00  0.00     0.006 C 
ENDBRANCH   8   9
BRANCH   8  11
ATOM     11  C   LIG d   1       4.249  82.611 110.618  0.00  0.00     0.028 C 
ATOM     12  C   LIG d   1       4.658  83.930 111.292  0.00  0.00     0.006 C 
ENDBRANCH   8  11
ENDBRANCH   7   8
ENDBRANCH   1   7
BRANCH   6  13
ATOM     13  N   LIG d   1       0.993  81.002 112.335  0.00  0.00    -0.311 N 
ATOM     14  C   LIG d   1      -0.289  80.647 112.266  0.00  0.00     0.210 C 
ATOM     15  C   LIG d   1      -0.567  79.168 112.555  0.00  0.00     0.109 C 
ATOM     16  O   LIG d   1      -1.219  81.409 111.961  0.00  0.00    -0.276 OA
ATOM     17  H   LIG d   1       1.684  80.313 112.557  0.00  0.00     0.149 HD
ENDBRANCH   6  13
BRANCH   5  18
ATOM     18  N   LIG d   1       1.301  83.122 114.513  0.00  0.00     0.381 N 
ATOM     19  H   LIG d   1       1.781  83.918 114.882  0.00  0.00    -0.090 HD
ATOM     20  H   LIG d   1       1.936  82.343 114.514  0.00  0.00    -0.090 HD
ATOM     21  H   LIG d   1       0.507  82.913 115.077  0.00  0.00    -0.090 HD
ENDBRANCH   5  18
BRANCH   3  22
ATOM     22  C   LIG d   1       0.893  86.467 111.110  0.00  0.00     0.382 C 
ATOM     23  O   LIG d   1      -0.282  86.889 110.982  0.00  0.00    -0.241 OA
ATOM     24  O   LIG d   1       1.848  87.241 110.908  0.00  0.00    -0.241 OA
ENDBRANCH   3  22
TORSDOF 7
ENDMDL
