MODEL 1
REMARK VINA RESULT:      -5.7      0.000      0.000
REMARK  7 active torsions:
REMARK  status: ('A' for Active; 'I' for Inactive)
REMARK    1  A    between atoms: C_2  and  C_3 
REMARK    2  A    between atoms: C_3  and  O_6 
REMARK    3  A    between atoms: C_3  and  C_4 
REMARK    4  A    between atoms: C_7  and  O_6 
REMARK    5  A    between atoms: C_9  and  C_10 
REMARK    6  A    between atoms: N_15  and  C_14 
REMARK    7  A    between atoms: N_20  and  C_19 
REMARK       I    between atoms: C_22  and  N_20 
ROOT
ATOM      1  C   LIG d   1      -6.343  92.740 118.092  0.00  0.00     0.161 C 
ATOM      2  C   LIG d   1      -6.904  91.647 117.410  0.00  0.00     0.016 C 
ATOM      3  C   LIG d   1      -6.135  90.594 116.863  0.00  0.00     0.038 C 
ATOM      4  C   LIG d   1      -4.756  90.486 117.094  0.00  0.00     0.028 C 
ATOM      5  C   LIG d   1      -4.076  91.828 117.345  0.00  0.00    -0.047 C 
ATOM      6  C   LIG d   1      -4.851  92.583 118.450  0.00  0.00     0.091 C 
ENDROOT
BRANCH   1   7
ATOM      7  O   LIG d   1      -7.115  93.026 119.275  0.00  0.00    -0.368 OA
BRANCH   7   8
ATOM      8  C   LIG d   1      -8.329  93.790 119.075  0.00  0.00     0.119 C 
BRANCH   8   9
ATOM      9  C   LIG d   1      -7.963  95.030 118.236  0.00  0.00     0.028 C 
ATOM     10  C   LIG d   1      -7.347  96.153 119.086  0.00  0.00     0.006 C 
ENDBRANCH   8   9
BRANCH   8  11
ATOM     11  C   LIG d   1      -8.865  94.342 120.400  0.00  0.00     0.028 C 
ATOM     12  C   LIG d   1     -10.205  93.710 120.809  0.00  0.00     0.006 C 
ENDBRANCH   8  11
ENDBRANCH   7   8
ENDBRANCH   1   7
BRANCH   6  13
ATOM     13  N   LIG d   1      -4.302  93.941 118.698  0.00  0.00    -0.311 N 
ATOM     14  C   LIG d   1      -3.393  94.205 119.636  0.00  0.00     0.210 C 
ATOM     15  C   LIG d   1      -2.978  95.676 119.738  0.00  0.00     0.109 C 
ATOM     16  O   LIG d   1      -2.868  93.355 120.370  0.00  0.00    -0.276 OA
ATOM     17  H   LIG d   1      -4.651  94.686 118.127  0.00  0.00     0.149 HD
ENDBRANCH   6  13
BRANCH   5  18
ATOM     18  N   LIG d   1      -2.672  91.555 117.707  0.00  0.00     0.381 N 
ATOM     19  H   LIG d   1      -2.277  90.901 117.061  0.00  0.00    -0.090 HD
ATOM     20  H   LIG d   1      -2.646  91.148 118.625  0.00  0.00    -0.090 HD
ATOM     21  H   LIG d   1      -2.147  92.402 117.696  0.00  0.00    -0.090 HD
ENDBRANCH   5  18
BRANCH   3  22
ATOM     22  C   LIG d   1      -6.741  89.656 116.042  0.00  0.00     0.382 C 
ATOM     23  O   LIG d   1      -6.258  89.407 114.911  0.00  0.00    -0.241 OA
ATOM     24  O   LIG d   1      -7.790  89.087 116.399  0.00  0.00    -0.241 OA
ENDBRANCH   3  22
TORSDOF 7
ENDMDL
MODEL 2
REMARK VINA RESULT:      -5.6      2.359      4.619
REMARK  7 active torsions:
REMARK  status: ('A' for Active; 'I' for Inactive)
REMARK    1  A    between atoms: C_2  and  C_3 
REMARK    2  A    between atoms: C_3  and  O_6 
REMARK    3  A    between atoms: C_3  and  C_4 
REMARK    4  A    between atoms: C_7  and  O_6 
REMARK    5  A    between atoms: C_9  and  C_10 
REMARK    6  A    between atoms: N_15  and  C_14 
REMARK    7  A    between atoms: N_20  and  C_19 
REMARK       I    between atoms: C_22  and  N_20 
ROOT
ATOM      1  C   LIG d   1      -5.437  91.224 118.639  0.00  0.00     0.161 C 
ATOM      2  C   LIG d   1      -5.533  90.537 117.418  0.00  0.00     0.016 C 
ATOM      3  C   LIG d   1      -6.282  91.010 116.316  0.00  0.00     0.038 C 
ATOM      4  C   LIG d   1      -6.866  92.285 116.309  0.00  0.00     0.028 C 
ATOM      5  C   LIG d   1      -7.219  92.798 117.701  0.00  0.00    -0.047 C 
ATOM      6  C   LIG d   1      -5.976  92.670 118.612  0.00  0.00     0.091 C 
ENDROOT
BRANCH   1   7
ATOM      7  O   LIG d   1      -4.072  91.207 119.103  0.00  0.00    -0.368 OA
BRANCH   7   8
ATOM      8  C   LIG d   1      -3.081  90.752 118.150  0.00  0.00     0.119 C 
BRANCH   8   9
ATOM      9  C   LIG d   1      -2.485  89.438 118.694  0.00  0.00     0.028 C 
ATOM     10  C   LIG d   1      -2.353  89.444 120.226  0.00  0.00     0.006 C 
ENDBRANCH   8   9
BRANCH   8  11
ATOM     11  C   LIG d   1      -1.902  91.726 118.064  0.00  0.00     0.028 C 
ATOM     12  C   LIG d   1      -2.345  93.198 118.063  0.00  0.00     0.006 C 
ENDBRANCH   8  11
ENDBRANCH   7   8
ENDBRANCH   1   7
BRANCH   6  13
ATOM     13  N   LIG d   1      -6.258  93.071 120.015  0.00  0.00    -0.311 N 
ATOM     14  C   LIG d   1      -6.024  94.293 120.490  0.00  0.00     0.210 C 
ATOM     15  C   LIG d   1      -6.368  94.490 121.969  0.00  0.00     0.109 C 
ATOM     16  O   LIG d   1      -5.595  95.243 119.817  0.00  0.00    -0.276 OA
ATOM     17  H   LIG d   1      -6.638  92.371 120.622  0.00  0.00     0.149 HD
ENDBRANCH   6  13
BRANCH   5  18
ATOM     18  N   LIG d   1      -7.690  94.188 117.559  0.00  0.00     0.381 N 
ATOM     19  H   LIG d   1      -8.614  94.273 117.934  0.00  0.00    -0.090 HD
ATOM     20  H   LIG d   1      -7.724  94.421 116.582  0.00  0.00    -0.090 HD
ATOM     21  H   LIG d   1      -7.073  94.808 118.035  0.00  0.00    -0.090 HD
ENDBRANCH   5  18
BRANCH   3  22
ATOM     22  C   LIG d   1      -6.485  90.187 115.219  0.00  0.00     0.382 C 
ATOM     23  O   LIG d   1      -7.547  90.277 114.556  0.00  0.00    -0.241 OA
ATOM     24  O   LIG d   1      -5.641  89.324 114.911  0.00  0.00    -0.241 OA
ENDBRANCH   3  22
TORSDOF 7
ENDMDL
MODEL 3
REMARK VINA RESULT:      -5.6      2.483      4.760
REMARK  7 active torsions:
REMARK  status: ('A' for Active; 'I' for Inactive)
REMARK    1  A    between atoms: C_2  and  C_3 
REMARK    2  A    between atoms: C_3  and  O_6 
REMARK    3  A    between atoms: C_3  and  C_4 
REMARK    4  A    between atoms: C_7  and  O_6 
REMARK    5  A    between atoms: C_9  and  C_10 
REMARK    6  A    between atoms: N_15  and  C_14 
REMARK    7  A    between atoms: N_20  and  C_19 
REMARK       I    between atoms: C_22  and  N_20 
ROOT
ATOM      1  C   LIG d   1      -4.125  90.992 117.911  0.00  0.00     0.161 C 
ATOM      2  C   LIG d   1      -4.648  90.351 116.775  0.00  0.00     0.016 C 
ATOM      3  C   LIG d   1      -5.805  90.796 116.095  0.00  0.00     0.038 C 
ATOM      4  C   LIG d   1      -6.434  92.008 116.415  0.00  0.00     0.028 C 
ATOM      5  C   LIG d   1      -6.241  92.424 117.870  0.00  0.00    -0.047 C 
ATOM      6  C   LIG d   1      -4.733  92.379 118.208  0.00  0.00     0.091 C 
ENDROOT
BRANCH   1   7
ATOM      7  O   LIG d   1      -2.691  91.087 117.800  0.00  0.00    -0.368 OA
BRANCH   7   8
ATOM      8  C   LIG d   1      -1.929  90.524 118.896  0.00  0.00     0.119 C 
BRANCH   8   9
ATOM      9  C   LIG d   1      -0.694  89.828 118.291  0.00  0.00     0.028 C 
ATOM     10  C   LIG d   1      -0.946  89.325 116.860  0.00  0.00     0.006 C 
ENDBRANCH   8   9
BRANCH   8  11
ATOM     11  C   LIG d   1      -2.711  89.415 119.606  0.00  0.00     0.028 C 
ATOM     12  C   LIG d   1      -2.711  89.572 121.135  0.00  0.00     0.006 C 
ENDBRANCH   8  11
ENDBRANCH   7   8
ENDBRANCH   1   7
BRANCH   6  13
ATOM     13  N   LIG d   1      -4.463  92.691 119.636  0.00  0.00    -0.311 N 
ATOM     14  C   LIG d   1      -3.620  93.643 120.031  0.00  0.00     0.210 C 
ATOM     15  C   LIG d   1      -3.473  93.787 121.549  0.00  0.00     0.109 C 
ATOM     16  O   LIG d   1      -3.004  94.403 119.269  0.00  0.00    -0.276 OA
ATOM     17  H   LIG d   1      -4.945  92.143 120.322  0.00  0.00     0.149 HD
ENDBRANCH   6  13
BRANCH   5  18
ATOM     18  N   LIG d   1      -6.829  93.767 118.030  0.00  0.00     0.381 N 
ATOM     19  H   LIG d   1      -7.778  93.687 118.335  0.00  0.00    -0.090 HD
ATOM     20  H   LIG d   1      -6.822  94.234 117.140  0.00  0.00    -0.090 HD
ATOM     21  H   LIG d   1      -6.303  94.293 118.693  0.00  0.00    -0.090 HD
ENDBRANCH   5  18
BRANCH   3  22
ATOM     22  C   LIG d   1      -6.367  90.003 115.105  0.00  0.00     0.382 C 
ATOM     23  O   LIG d   1      -5.683  89.107 114.555  0.00  0.00    -0.241 OA
ATOM     24  O   LIG d   1      -7.537  90.202 114.725  0.00  0.00    -0.241 OA
ENDBRANCH   3  22
TORSDOF 7
ENDMDL
MODEL 4
REMARK VINA RESULT:      -5.4      2.489      6.316
REMARK  7 active torsions:
REMARK  status: ('A' for Active; 'I' for Inactive)
REMARK    1  A    between atoms: C_2  and  C_3 
REMARK    2  A    between atoms: C_3  and  O_6 
REMARK    3  A    between atoms: C_3  and  C_4 
REMARK    4  A    between atoms: C_7  and  O_6 
REMARK    5  A    between atoms: C_9  and  C_10 
REMARK    6  A    between atoms: N_15  and  C_14 
REMARK    7  A    between atoms: N_20  and  C_19 
REMARK       I    between atoms: C_22  and  N_20 
ROOT
ATOM      1  C   LIG d   1      -4.017  92.626 118.052  0.00  0.00     0.161 C 
ATOM      2  C   LIG d   1      -3.945  93.569 119.090  0.00  0.00     0.016 C 
ATOM      3  C   LIG d   1      -5.084  94.110 119.730  0.00  0.00     0.038 C 
ATOM      4  C   LIG d   1      -6.377  93.629 119.474  0.00  0.00     0.028 C 
ATOM      5  C   LIG d   1      -6.538  93.039 118.078  0.00  0.00    -0.047 C 
ATOM      6  C   LIG d   1      -5.414  92.006 117.836  0.00  0.00     0.091 C 
ENDROOT
BRANCH   1   7
ATOM      7  O   LIG d   1      -3.037  91.590 118.263  0.00  0.00    -0.368 OA
BRANCH   7   8
ATOM      8  C   LIG d   1      -3.370  90.591 119.258  0.00  0.00     0.119 C 
BRANCH   8   9
ATOM      9  C   LIG d   1      -2.400  90.774 120.441  0.00  0.00     0.028 C 
ATOM     10  C   LIG d   1      -1.984  89.434 121.071  0.00  0.00     0.006 C 
ENDBRANCH   8   9
BRANCH   8  11
ATOM     11  C   LIG d   1      -3.110  89.175 118.736  0.00  0.00     0.028 C 
ATOM     12  C   LIG d   1      -2.762  89.147 117.239  0.00  0.00     0.006 C 
ENDBRANCH   8  11
ENDBRANCH   7   8
ENDBRANCH   1   7
BRANCH   6  13
ATOM     13  N   LIG d   1      -5.448  91.442 116.461  0.00  0.00    -0.311 N 
ATOM     14  C   LIG d   1      -6.139  90.352 116.133  0.00  0.00     0.210 C 
ATOM     15  C   LIG d   1      -6.021  89.929 114.665  0.00  0.00     0.109 C 
ATOM     16  O   LIG d   1      -6.863  89.713 116.911  0.00  0.00    -0.276 OA
ATOM     17  H   LIG d   1      -4.913  91.916 115.760  0.00  0.00     0.149 HD
ENDBRANCH   6  13
BRANCH   5  18
ATOM     18  N   LIG d   1      -7.889  92.452 117.995  0.00  0.00     0.381 N 
ATOM     19  H   LIG d   1      -8.071  91.903 118.812  0.00  0.00    -0.090 HD
ATOM     20  H   LIG d   1      -7.933  91.848 117.193  0.00  0.00    -0.090 HD
ATOM     21  H   LIG d   1      -8.570  93.174 117.913  0.00  0.00    -0.090 HD
ENDBRANCH   5  18
BRANCH   3  22
ATOM     22  C   LIG d   1      -4.939  95.173 120.608  0.00  0.00     0.382 C 
ATOM     23  O   LIG d   1      -3.883  95.296 121.275  0.00  0.00    -0.241 OA
ATOM     24  O   LIG d   1      -5.867  95.986 120.775  0.00  0.00    -0.241 OA
ENDBRANCH   3  22
TORSDOF 7
ENDMDL
MODEL 5
REMARK VINA RESULT:      -5.0     11.506     14.125
REMARK  7 active torsions:
REMARK  status: ('A' for Active; 'I' for Inactive)
REMARK    1  A    between atoms: C_2  and  C_3 
REMARK    2  A    between atoms: C_3  and  O_6 
REMARK    3  A    between atoms: C_3  and  C_4 
REMARK    4  A    between atoms: C_7  and  O_6 
REMARK    5  A    between atoms: C_9  and  C_10 
REMARK    6  A    between atoms: N_15  and  C_14 
REMARK    7  A    between atoms: N_20  and  C_19 
REMARK       I    between atoms: C_22  and  N_20 
ROOT
ATOM      1  C   LIG d   1      -5.552  79.134 117.739  0.00  0.00     0.161 C 
ATOM      2  C   LIG d   1      -6.818  78.529 117.793  0.00  0.00     0.016 C 
ATOM      3  C   LIG d   1      -8.016  79.249 118.007  0.00  0.00     0.038 C 
ATOM      4  C   LIG d   1      -8.044  80.651 118.032  0.00  0.00     0.028 C 
ATOM      5  C   LIG d   1      -6.729  81.275 118.486  0.00  0.00    -0.047 C 
ATOM      6  C   LIG d   1      -5.574  80.675 117.652  0.00  0.00     0.091 C 
ENDROOT
BRANCH   1   7
ATOM      7  O   LIG d   1      -4.793  78.582 116.645  0.00  0.00    -0.368 OA
BRANCH   7   8
ATOM      8  C   LIG d   1      -3.887  77.501 116.978  0.00  0.00     0.119 C 
BRANCH   8   9
ATOM      9  C   LIG d   1      -2.487  78.113 117.172  0.00  0.00     0.028 C 
ATOM     10  C   LIG d   1      -2.084  78.201 118.654  0.00  0.00     0.006 C 
ENDBRANCH   8   9
BRANCH   8  11
ATOM     11  C   LIG d   1      -3.742  76.516 115.814  0.00  0.00     0.028 C 
ATOM     12  C   LIG d   1      -2.428  75.722 115.867  0.00  0.00     0.006 C 
ENDBRANCH   8  11
ENDBRANCH   7   8
ENDBRANCH   1   7
BRANCH   6  13
ATOM     13  N   LIG d   1      -4.242  81.169 118.089  0.00  0.00    -0.311 N 
ATOM     14  C   LIG d   1      -3.310  81.607 117.246  0.00  0.00     0.210 C 
ATOM     15  C   LIG d   1      -2.000  82.053 117.904  0.00  0.00     0.109 C 
ATOM     16  O   LIG d   1      -3.455  81.700 116.017  0.00  0.00    -0.276 OA
ATOM     17  H   LIG d   1      -4.052  81.158 119.072  0.00  0.00     0.149 HD
ENDBRANCH   6  13
BRANCH   5  18
ATOM     18  N   LIG d   1      -6.853  82.737 118.332  0.00  0.00     0.381 N 
ATOM     19  H   LIG d   1      -7.626  83.070 118.873  0.00  0.00    -0.090 HD
ATOM     20  H   LIG d   1      -7.029  82.949 117.366  0.00  0.00    -0.090 HD
ATOM     21  H   LIG d   1      -6.014  83.184 118.630  0.00  0.00    -0.090 HD
ENDBRANCH   5  18
BRANCH   3  22
ATOM     22  C   LIG d   1      -9.198  78.562 118.240  0.00  0.00     0.382 C 
ATOM     23  O   LIG d   1      -9.254  77.325 118.041  0.00  0.00    -0.241 OA
ATOM     24  O   LIG d   1     -10.222  79.172 118.603  0.00  0.00    -0.241 OA
ENDBRANCH   3  22
TORSDOF 7
ENDMDL
MODEL 6
REMARK VINA RESULT:      -4.9      2.145      2.866
REMARK  7 active torsions:
REMARK  status: ('A' for Active; 'I' for Inactive)
REMARK    1  A    between atoms: C_2  and  C_3 
REMARK    2  A    between atoms: C_3  and  O_6 
REMARK    3  A    between atoms: C_3  and  C_4 
REMARK    4  A    between atoms: C_7  and  O_6 
REMARK    5  A    between atoms: C_9  and  C_10 
REMARK    6  A    between atoms: N_15  and  C_14 
REMARK    7  A    between atoms: N_20  and  C_19 
REMARK       I    between atoms: C_22  and  N_20 
ROOT
ATOM      1  C   LIG d   1      -4.646  92.237 118.262  0.00  0.00     0.161 C 
ATOM      2  C   LIG d   1      -5.643  92.162 117.275  0.00  0.00     0.016 C 
ATOM      3  C   LIG d   1      -5.698  91.139 116.301  0.00  0.00     0.038 C 
ATOM      4  C   LIG d   1      -4.841  90.029 116.342  0.00  0.00     0.028 C 
ATOM      5  C   LIG d   1      -3.504  90.321 117.015  0.00  0.00    -0.047 C 
ATOM      6  C   LIG d   1      -3.767  90.975 118.391  0.00  0.00     0.091 C 
ENDROOT
BRANCH   1   7
ATOM      7  O   LIG d   1      -5.241  92.564 119.534  0.00  0.00    -0.368 OA
BRANCH   7   8
ATOM      8  C   LIG d   1      -5.531  93.966 119.759  0.00  0.00     0.119 C 
BRANCH   8   9
ATOM      9  C   LIG d   1      -4.400  94.537 120.636  0.00  0.00     0.028 C 
ATOM     10  C   LIG d   1      -3.680  95.721 119.968  0.00  0.00     0.006 C 
ENDBRANCH   8   9
BRANCH   8  11
ATOM     11  C   LIG d   1      -6.811  94.145 120.581  0.00  0.00     0.028 C 
ATOM     12  C   LIG d   1      -7.977  94.706 119.752  0.00  0.00     0.006 C 
ENDBRANCH   8  11
ENDBRANCH   7   8
ENDBRANCH   1   7
BRANCH   6  13
ATOM     13  N   LIG d   1      -2.512  91.370 119.081  0.00  0.00    -0.311 N 
ATOM     14  C   LIG d   1      -1.861  90.577 119.931  0.00  0.00     0.210 C 
ATOM     15  C   LIG d   1      -0.598  91.187 120.546  0.00  0.00     0.109 C 
ATOM     16  O   LIG d   1      -2.193  89.415 120.208  0.00  0.00    -0.276 OA
ATOM     17  H   LIG d   1      -2.154  92.285 118.889  0.00  0.00     0.149 HD
ENDBRANCH   6  13
BRANCH   5  18
ATOM     18  N   LIG d   1      -2.766  89.048 117.112  0.00  0.00     0.381 N 
ATOM     19  H   LIG d   1      -1.803  89.196 116.883  0.00  0.00    -0.090 HD
ATOM     20  H   LIG d   1      -3.151  88.398 116.449  0.00  0.00    -0.090 HD
ATOM     21  H   LIG d   1      -2.842  88.678 118.034  0.00  0.00    -0.090 HD
ENDBRANCH   5  18
BRANCH   3  22
ATOM     22  C   LIG d   1      -6.594  91.240 115.248  0.00  0.00     0.382 C 
ATOM     23  O   LIG d   1      -7.333  90.268 114.957  0.00  0.00    -0.241 OA
ATOM     24  O   LIG d   1      -6.642  92.275 114.557  0.00  0.00    -0.241 OA
ENDBRANCH   3  22
TORSDOF 7
ENDMDL
MODEL 7
REMARK VINA RESULT:      -4.8      3.060      5.694
REMARK  7 active torsions:
REMARK  status: ('A' for Active; 'I' for Inactive)
REMARK    1  A    between atoms: C_2  and  C_3 
REMARK    2  A    between atoms: C_3  and  O_6 
REMARK    3  A    between atoms: C_3  and  C_4 
REMARK    4  A    between atoms: C_7  and  O_6 
REMARK    5  A    between atoms: C_9  and  C_10 
REMARK    6  A    between atoms: N_15  and  C_14 
REMARK    7  A    between atoms: N_20  and  C_19 
REMARK       I    between atoms: C_22  and  N_20 
ROOT
ATOM      1  C   LIG d   1      -3.144  90.234 119.016  0.00  0.00     0.161 C 
ATOM      2  C   LIG d   1      -4.065  89.799 118.049  0.00  0.00     0.016 C 
ATOM      3  C   LIG d   1      -4.897  90.676 117.315  0.00  0.00     0.038 C 
ATOM      4  C   LIG d   1      -4.755  92.069 117.392  0.00  0.00     0.028 C 
ATOM      5  C   LIG d   1      -4.189  92.548 118.725  0.00  0.00    -0.047 C 
ATOM      6  C   LIG d   1      -2.897  91.757 119.034  0.00  0.00     0.091 C 
ENDROOT
BRANCH   1   7
ATOM      7  O   LIG d   1      -1.898  89.526 118.859  0.00  0.00    -0.368 OA
BRANCH   7   8
ATOM      8  C   LIG d   1      -0.919  90.146 117.989  0.00  0.00     0.119 C 
BRANCH   8   9
ATOM      9  C   LIG d   1      -0.721  89.214 116.777  0.00  0.00     0.028 C 
ATOM     10  C   LIG d   1       0.764  88.938 116.486  0.00  0.00     0.006 C 
ENDBRANCH   8   9
BRANCH   8  11
ATOM     11  C   LIG d   1       0.453  90.229 118.665  0.00  0.00     0.028 C 
ATOM     12  C   LIG d   1       0.427  89.754 120.127  0.00  0.00     0.006 C 
ENDBRANCH   8  11
ENDBRANCH   7   8
ENDBRANCH   1   7
BRANCH   6  13
ATOM     13  N   LIG d   1      -2.324  92.104 120.361  0.00  0.00    -0.311 N 
ATOM     14  C   LIG d   1      -1.357  93.005 120.529  0.00  0.00     0.210 C 
ATOM     15  C   LIG d   1      -0.896  93.197 121.977  0.00  0.00     0.109 C 
ATOM     16  O   LIG d   1      -0.859  93.686 119.620  0.00  0.00    -0.276 OA
ATOM     17  H   LIG d   1      -2.691  91.621 121.157  0.00  0.00     0.149 HD
ENDBRANCH   6  13
BRANCH   5  18
ATOM     18  N   LIG d   1      -3.965  94.002 118.618  0.00  0.00     0.381 N 
ATOM     19  H   LIG d   1      -3.230  94.184 117.963  0.00  0.00    -0.090 HD
ATOM     20  H   LIG d   1      -3.683  94.355 119.515  0.00  0.00    -0.090 HD
ATOM     21  H   LIG d   1      -4.802  94.455 118.323  0.00  0.00    -0.090 HD
ENDBRANCH   5  18
BRANCH   3  22
ATOM     22  C   LIG d   1      -5.911  90.159 116.523  0.00  0.00     0.382 C 
ATOM     23  O   LIG d   1      -5.633  89.390 115.571  0.00  0.00    -0.241 OA
ATOM     24  O   LIG d   1      -7.096  90.488 116.720  0.00  0.00    -0.241 OA
ENDBRANCH   3  22
TORSDOF 7
ENDMDL
MODEL 8
REMARK VINA RESULT:      -4.7     10.477     12.236
REMARK  7 active torsions:
REMARK  status: ('A' for Active; 'I' for Inactive)
REMARK    1  A    between atoms: C_2  and  C_3 
REMARK    2  A    between atoms: C_3  and  O_6 
REMARK    3  A    between atoms: C_3  and  C_4 
REMARK    4  A    between atoms: C_7  and  O_6 
REMARK    5  A    between atoms: C_9  and  C_10 
REMARK    6  A    between atoms: N_15  and  C_14 
REMARK    7  A    between atoms: N_20  and  C_19 
REMARK       I    between atoms: C_22  and  N_20 
ROOT
ATOM      1  C   LIG d   1      -7.199  81.927 118.072  0.00  0.00     0.161 C 
ATOM      2  C   LIG d   1      -5.983  81.586 117.456  0.00  0.00     0.016 C 
ATOM      3  C   LIG d   1      -4.734  81.647 118.115  0.00  0.00     0.038 C 
ATOM      4  C   LIG d   1      -4.631  81.910 119.489  0.00  0.00     0.028 C 
ATOM      5  C   LIG d   1      -5.781  82.752 120.032  0.00  0.00    -0.047 C 
ATOM      6  C   LIG d   1      -7.120  82.109 119.603  0.00  0.00     0.091 C 
ENDROOT
BRANCH   1   7
ATOM      7  O   LIG d   1      -8.207  80.953 117.735  0.00  0.00    -0.368 OA
BRANCH   7   8
ATOM      8  C   LIG d   1      -8.349  79.840 118.651  0.00  0.00     0.119 C 
BRANCH   8   9
ATOM      9  C   LIG d   1      -7.522  78.668 118.087  0.00  0.00     0.028 C 
ATOM     10  C   LIG d   1      -8.337  77.368 117.989  0.00  0.00     0.006 C 
ENDBRANCH   8   9
BRANCH   8  11
ATOM     11  C   LIG d   1      -9.794  79.333 118.692  0.00  0.00     0.028 C 
ATOM     12  C   LIG d   1     -10.515  79.693 120.001  0.00  0.00     0.006 C 
ENDBRANCH   8  11
ENDBRANCH   7   8
ENDBRANCH   1   7
BRANCH   6  13
ATOM     13  N   LIG d   1      -8.296  82.916 120.021  0.00  0.00    -0.311 N 
ATOM     14  C   LIG d   1      -8.932  82.739 121.178  0.00  0.00     0.210 C 
ATOM     15  C   LIG d   1     -10.132  83.664 121.403  0.00  0.00     0.109 C 
ATOM     16  O   LIG d   1      -8.597  81.926 122.052  0.00  0.00    -0.276 OA
ATOM     17  H   LIG d   1      -8.616  83.619 119.385  0.00  0.00     0.149 HD
ENDBRANCH   6  13
BRANCH   5  18
ATOM     18  N   LIG d   1      -5.622  82.833 121.496  0.00  0.00     0.381 N 
ATOM     19  H   LIG d   1      -5.020  82.099 121.812  0.00  0.00    -0.090 HD
ATOM     20  H   LIG d   1      -6.521  82.712 121.928  0.00  0.00    -0.090 HD
ATOM     21  H   LIG d   1      -5.240  83.718 121.749  0.00  0.00    -0.090 HD
ENDBRANCH   5  18
BRANCH   3  22
ATOM     22  C   LIG d   1      -3.565  81.482 117.387  0.00  0.00     0.382 C 
ATOM     23  O   LIG d   1      -2.452  81.624 117.948  0.00  0.00    -0.241 OA
ATOM     24  O   LIG d   1      -3.610  81.237 116.167  0.00  0.00    -0.241 OA
ENDBRANCH   3  22
TORSDOF 7
ENDMDL
MODEL 9
REMARK VINA RESULT:      -4.7      2.677      6.425
REMARK  7 active torsions:
REMARK  status: ('A' for Active; 'I' for Inactive)
REMARK    1  A    between atoms: C_2  and  C_3 
REMARK    2  A    between atoms: C_3  and  O_6 
REMARK    3  A    between atoms: C_3  and  C_4 
REMARK    4  A    between atoms: C_7  and  O_6 
REMARK    5  A    between atoms: C_9  and  C_10 
REMARK    6  A    between atoms: N_15  and  C_14 
REMARK    7  A    between atoms: N_20  and  C_19 
REMARK       I    between atoms: C_22  and  N_20 
ROOT
ATOM      1  C   LIG d   1      -3.784  91.641 117.569  0.00  0.00     0.161 C 
ATOM      2  C   LIG d   1      -3.325  92.748 118.301  0.00  0.00     0.016 C 
ATOM      3  C   LIG d   1      -4.178  93.596 119.045  0.00  0.00     0.038 C 
ATOM      4  C   LIG d   1      -5.537  93.303 119.231  0.00  0.00     0.028 C 
ATOM      5  C   LIG d   1      -6.139  92.479 118.098  0.00  0.00    -0.047 C 
ATOM      6  C   LIG d   1      -5.247  91.241 117.850  0.00  0.00     0.091 C 
ENDROOT
BRANCH   1   7
ATOM      7  O   LIG d   1      -2.907  90.517 117.782  0.00  0.00    -0.368 OA
BRANCH   7   8
ATOM      8  C   LIG d   1      -1.863  90.701 118.770  0.00  0.00     0.119 C 
BRANCH   8   9
ATOM      9  C   LIG d   1      -0.519  90.385 118.087  0.00  0.00     0.028 C 
ATOM     10  C   LIG d   1      -0.681  89.452 116.875  0.00  0.00     0.006 C 
ENDBRANCH   8   9
BRANCH   8  11
ATOM     11  C   LIG d   1      -1.988  89.685 119.909  0.00  0.00     0.028 C 
ATOM     12  C   LIG d   1      -3.001  90.115 120.982  0.00  0.00     0.006 C 
ENDBRANCH   8  11
ENDBRANCH   7   8
ENDBRANCH   1   7
BRANCH   6  13
ATOM     13  N   LIG d   1      -5.719  90.424 116.701  0.00  0.00    -0.311 N 
ATOM     14  C   LIG d   1      -6.280  90.946 115.612  0.00  0.00     0.210 C 
ATOM     15  C   LIG d   1      -6.713  89.925 114.555  0.00  0.00     0.109 C 
ATOM     16  O   LIG d   1      -6.431  92.159 115.406  0.00  0.00    -0.276 OA
ATOM     17  H   LIG d   1      -5.606  89.431 116.770  0.00  0.00     0.149 HD
ENDBRANCH   6  13
BRANCH   5  18
ATOM     18  N   LIG d   1      -7.519  92.129 118.486  0.00  0.00     0.381 N 
ATOM     19  H   LIG d   1      -7.802  91.294 118.013  0.00  0.00    -0.090 HD
ATOM     20  H   LIG d   1      -8.133  92.874 118.208  0.00  0.00    -0.090 HD
ATOM     21  H   LIG d   1      -7.572  91.995 119.472  0.00  0.00    -0.090 HD
ENDBRANCH   5  18
BRANCH   3  22
ATOM     22  C   LIG d   1      -3.679  94.774 119.580  0.00  0.00     0.382 C 
ATOM     23  O   LIG d   1      -4.246  95.305 120.565  0.00  0.00    -0.241 OA
ATOM     24  O   LIG d   1      -2.695  95.336 119.063  0.00  0.00    -0.241 OA
ENDBRANCH   3  22
TORSDOF 7
ENDMDL
