MODEL 1
REMARK VINA RESULT:      -5.7      0.000      0.000
REMARK  7 active torsions:
REMARK  status: ('A' for Active; 'I' for Inactive)
REMARK    1  A    between atoms: C_2  and  C_3 
REMARK    2  A    between atoms: C_3  and  O_6 
REMARK    3  A    between atoms: C_3  and  C_4 
REMARK    4  A    between atoms: C_7  and  O_6 
REMARK    5  A    between atoms: C_9  and  C_10 
REMARK    6  A    between atoms: N_15  and  C_14 
REMARK    7  A    between atoms: N_20  and  C_19 
REMARK       I    between atoms: C_22  and  N_20 
ROOT
ATOM      1  C   LIG d   1      -6.559  93.426 117.847  0.00  0.00     0.161 C 
ATOM      2  C   LIG d   1      -7.178  92.410 117.099  0.00  0.00     0.016 C 
ATOM      3  C   LIG d   1      -6.480  91.305 116.560  0.00  0.00     0.038 C 
ATOM      4  C   LIG d   1      -5.132  91.060 116.864  0.00  0.00     0.028 C 
ATOM      5  C   LIG d   1      -4.347  92.324 117.197  0.00  0.00    -0.047 C 
ATOM      6  C   LIG d   1      -5.111  93.117 118.282  0.00  0.00     0.091 C 
ENDROOT
BRANCH   1   7
ATOM      7  O   LIG d   1      -7.369  93.750 118.995  0.00  0.00    -0.368 OA
BRANCH   7   8
ATOM      8  C   LIG d   1      -8.702  94.243 118.715  0.00  0.00     0.119 C 
BRANCH   8   9
ATOM      9  C   LIG d   1      -8.591  95.760 118.467  0.00  0.00     0.028 C 
ATOM     10  C   LIG d   1      -7.640  96.449 119.459  0.00  0.00     0.006 C 
ENDBRANCH   8   9
BRANCH   8  11
ATOM     11  C   LIG d   1      -9.617  94.098 119.935  0.00  0.00     0.028 C 
ATOM     12  C   LIG d   1      -8.912  93.442 121.133  0.00  0.00     0.006 C 
ENDBRANCH   8  11
ENDBRANCH   7   8
ENDBRANCH   1   7
BRANCH   6  13
ATOM     13  N   LIG d   1      -4.454  94.410 118.606  0.00  0.00    -0.311 N 
ATOM     14  C   LIG d   1      -3.576  94.558 119.597  0.00  0.00     0.210 C 
ATOM     15  C   LIG d   1      -3.033  95.980 119.773  0.00  0.00     0.109 C 
ATOM     16  O   LIG d   1      -3.171  93.641 120.326  0.00  0.00    -0.276 OA
ATOM     17  H   LIG d   1      -4.701  95.201 118.044  0.00  0.00     0.149 HD
ENDBRANCH   6  13
BRANCH   5  18
ATOM     18  N   LIG d   1      -2.998  91.910 117.627  0.00  0.00     0.381 N 
ATOM     19  H   LIG d   1      -2.796  90.996 117.274  0.00  0.00    -0.090 HD
ATOM     20  H   LIG d   1      -2.973  91.873 118.631  0.00  0.00    -0.090 HD
ATOM     21  H   LIG d   1      -2.320  92.560 117.294  0.00  0.00    -0.090 HD
ENDBRANCH   5  18
BRANCH   3  22
ATOM     22  C   LIG d   1      -7.121  90.452 115.675  0.00  0.00     0.382 C 
ATOM     23  O   LIG d   1      -8.219  89.932 115.990  0.00  0.00    -0.241 OA
ATOM     24  O   LIG d   1      -6.595  90.161 114.584  0.00  0.00    -0.241 OA
ENDBRANCH   3  22
TORSDOF 7
ENDMDL
MODEL 2
REMARK VINA RESULT:      -5.3      2.195      4.684
REMARK  7 active torsions:
REMARK  status: ('A' for Active; 'I' for Inactive)
REMARK    1  A    between atoms: C_2  and  C_3 
REMARK    2  A    between atoms: C_3  and  O_6 
REMARK    3  A    between atoms: C_3  and  C_4 
REMARK    4  A    between atoms: C_7  and  O_6 
REMARK    5  A    between atoms: C_9  and  C_10 
REMARK    6  A    between atoms: N_15  and  C_14 
REMARK    7  A    between atoms: N_20  and  C_19 
REMARK       I    between atoms: C_22  and  N_20 
ROOT
ATOM      1  C   LIG d   1      -5.046  92.674 118.110  0.00  0.00     0.161 C 
ATOM      2  C   LIG d   1      -5.378  91.695 117.158  0.00  0.00     0.016 C 
ATOM      3  C   LIG d   1      -6.615  91.662 116.475  0.00  0.00     0.038 C 
ATOM      4  C   LIG d   1      -7.553  92.700 116.589  0.00  0.00     0.028 C 
ATOM      5  C   LIG d   1      -7.475  93.444 117.917  0.00  0.00    -0.047 C 
ATOM      6  C   LIG d   1      -6.011  93.876 118.165  0.00  0.00     0.091 C 
ENDROOT
BRANCH   1   7
ATOM      7  O   LIG d   1      -3.694  93.126 117.896  0.00  0.00    -0.368 OA
BRANCH   7   8
ATOM      8  C   LIG d   1      -2.652  92.144 118.115  0.00  0.00     0.119 C 
BRANCH   8   9
ATOM      9  C   LIG d   1      -2.493  91.968 119.637  0.00  0.00     0.028 C 
ATOM     10  C   LIG d   1      -2.079  90.539 120.023  0.00  0.00     0.006 C 
ENDBRANCH   8   9
BRANCH   8  11
ATOM     11  C   LIG d   1      -1.294  92.654 117.622  0.00  0.00     0.028 C 
ATOM     12  C   LIG d   1      -1.260  94.180 117.443  0.00  0.00     0.006 C 
ENDBRANCH   8  11
ENDBRANCH   7   8
ENDBRANCH   1   7
BRANCH   6  13
ATOM     13  N   LIG d   1      -5.831  94.537 119.484  0.00  0.00    -0.311 N 
ATOM     14  C   LIG d   1      -5.923  95.854 119.663  0.00  0.00     0.210 C 
ATOM     15  C   LIG d   1      -5.683  96.330 121.099  0.00  0.00     0.109 C 
ATOM     16  O   LIG d   1      -6.212  96.670 118.774  0.00  0.00    -0.276 OA
ATOM     17  H   LIG d   1      -5.625  93.947 120.266  0.00  0.00     0.149 HD
ENDBRANCH   6  13
BRANCH   5  18
ATOM     18  N   LIG d   1      -8.410  94.583 117.846  0.00  0.00     0.381 N 
ATOM     19  H   LIG d   1      -8.948  94.633 118.688  0.00  0.00    -0.090 HD
ATOM     20  H   LIG d   1      -9.040  94.438 117.077  0.00  0.00    -0.090 HD
ATOM     21  H   LIG d   1      -7.904  95.431 117.715  0.00  0.00    -0.090 HD
ENDBRANCH   5  18
BRANCH   3  22
ATOM     22  C   LIG d   1      -6.942  90.562 115.698  0.00  0.00     0.382 C 
ATOM     23  O   LIG d   1      -6.076  90.039 114.956  0.00  0.00    -0.241 OA
ATOM     24  O   LIG d   1      -8.104  90.112 115.696  0.00  0.00    -0.241 OA
ENDBRANCH   3  22
TORSDOF 7
ENDMDL
MODEL 3
REMARK VINA RESULT:      -5.2     15.132     17.653
REMARK  7 active torsions:
REMARK  status: ('A' for Active; 'I' for Inactive)
REMARK    1  A    between atoms: C_2  and  C_3 
REMARK    2  A    between atoms: C_3  and  O_6 
REMARK    3  A    between atoms: C_3  and  C_4 
REMARK    4  A    between atoms: C_7  and  O_6 
REMARK    5  A    between atoms: C_9  and  C_10 
REMARK    6  A    between atoms: N_15  and  C_14 
REMARK    7  A    between atoms: N_20  and  C_19 
REMARK       I    between atoms: C_22  and  N_20 
ROOT
ATOM      1  C   LIG d   1      -3.380  76.607 116.818  0.00  0.00     0.161 C 
ATOM      2  C   LIG d   1      -3.355  77.804 116.082  0.00  0.00     0.016 C 
ATOM      3  C   LIG d   1      -2.197  78.299 115.440  0.00  0.00     0.038 C 
ATOM      4  C   LIG d   1      -1.015  77.549 115.362  0.00  0.00     0.028 C 
ATOM      5  C   LIG d   1      -0.843  76.568 116.517  0.00  0.00    -0.047 C 
ATOM      6  C   LIG d   1      -2.128  75.720 116.651  0.00  0.00     0.091 C 
ENDROOT
BRANCH   1   7
ATOM      7  O   LIG d   1      -4.570  75.860 116.496  0.00  0.00    -0.368 OA
BRANCH   7   8
ATOM      8  C   LIG d   1      -5.432  76.439 115.485  0.00  0.00     0.119 C 
BRANCH   8   9
ATOM      9  C   LIG d   1      -6.860  76.480 116.062  0.00  0.00     0.028 C 
ATOM     10  C   LIG d   1      -7.017  77.541 117.165  0.00  0.00     0.006 C 
ENDBRANCH   8   9
BRANCH   8  11
ATOM     11  C   LIG d   1      -5.520  75.540 114.248  0.00  0.00     0.028 C 
ATOM     12  C   LIG d   1      -4.991  74.120 114.504  0.00  0.00     0.006 C 
ENDBRANCH   8  11
ENDBRANCH   7   8
ENDBRANCH   1   7
BRANCH   6  13
ATOM     13  N   LIG d   1      -2.077  74.792 117.810  0.00  0.00    -0.311 N 
ATOM     14  C   LIG d   1      -1.667  73.528 117.720  0.00  0.00     0.210 C 
ATOM     15  C   LIG d   1      -1.712  72.739 119.032  0.00  0.00     0.109 C 
ATOM     16  O   LIG d   1      -1.241  72.995 116.685  0.00  0.00    -0.276 OA
ATOM     17  H   LIG d   1      -2.376  75.151 118.696  0.00  0.00     0.149 HD
ENDBRANCH   6  13
BRANCH   5  18
ATOM     18  N   LIG d   1       0.358  75.757 116.238  0.00  0.00     0.381 N 
ATOM     19  H   LIG d   1       0.242  75.268 115.373  0.00  0.00    -0.090 HD
ATOM     20  H   LIG d   1       0.470  75.079 116.971  0.00  0.00    -0.090 HD
ATOM     21  H   LIG d   1       1.162  76.343 116.191  0.00  0.00    -0.090 HD
ENDBRANCH   5  18
BRANCH   3  22
ATOM     22  C   LIG d   1      -2.204  79.576 114.900  0.00  0.00     0.382 C 
ATOM     23  O   LIG d   1      -1.122  80.180 114.706  0.00  0.00    -0.241 OA
ATOM     24  O   LIG d   1      -3.280  80.149 114.645  0.00  0.00    -0.241 OA
ENDBRANCH   3  22
TORSDOF 7
ENDMDL
MODEL 4
REMARK VINA RESULT:      -4.9     12.648     15.101
REMARK  7 active torsions:
REMARK  status: ('A' for Active; 'I' for Inactive)
REMARK    1  A    between atoms: C_2  and  C_3 
REMARK    2  A    between atoms: C_3  and  O_6 
REMARK    3  A    between atoms: C_3  and  C_4 
REMARK    4  A    between atoms: C_7  and  O_6 
REMARK    5  A    between atoms: C_9  and  C_10 
REMARK    6  A    between atoms: N_15  and  C_14 
REMARK    7  A    between atoms: N_20  and  C_19 
REMARK       I    between atoms: C_22  and  N_20 
ROOT
ATOM      1  C   LIG d   1      -7.601  78.992 118.245  0.00  0.00     0.161 C 
ATOM      2  C   LIG d   1      -6.619  78.559 117.339  0.00  0.00     0.016 C 
ATOM      3  C   LIG d   1      -6.556  77.241 116.830  0.00  0.00     0.038 C 
ATOM      4  C   LIG d   1      -7.567  76.301 117.079  0.00  0.00     0.028 C 
ATOM      5  C   LIG d   1      -8.307  76.540 118.391  0.00  0.00    -0.047 C 
ATOM      6  C   LIG d   1      -8.777  78.012 118.441  0.00  0.00     0.091 C 
ENDROOT
BRANCH   1   7
ATOM      7  O   LIG d   1      -8.091  80.289 117.852  0.00  0.00    -0.368 OA
BRANCH   7   8
ATOM      8  C   LIG d   1      -7.833  81.374 118.777  0.00  0.00     0.119 C 
BRANCH   8   9
ATOM      9  C   LIG d   1      -8.997  82.377 118.651  0.00  0.00     0.028 C 
ATOM     10  C   LIG d   1     -10.298  81.708 118.177  0.00  0.00     0.006 C 
ENDBRANCH   8   9
BRANCH   8  11
ATOM     11  C   LIG d   1      -6.578  82.158 118.381  0.00  0.00     0.028 C 
ATOM     12  C   LIG d   1      -5.486  82.118 119.462  0.00  0.00     0.006 C 
ENDBRANCH   8  11
ENDBRANCH   7   8
ENDBRANCH   1   7
BRANCH   6  13
ATOM     13  N   LIG d   1      -9.436  78.353 119.729  0.00  0.00    -0.311 N 
ATOM     14  C   LIG d   1     -10.726  78.127 119.974  0.00  0.00     0.210 C 
ATOM     15  C   LIG d   1     -11.208  78.573 121.358  0.00  0.00     0.109 C 
ATOM     16  O   LIG d   1     -11.509  77.572 119.189  0.00  0.00    -0.276 OA
ATOM     17  H   LIG d   1      -8.867  78.779 120.434  0.00  0.00     0.149 HD
ENDBRANCH   6  13
BRANCH   5  18
ATOM     18  N   LIG d   1      -9.420  75.575 118.457  0.00  0.00     0.381 N 
ATOM     19  H   LIG d   1     -10.145  75.933 119.047  0.00  0.00    -0.090 HD
ATOM     20  H   LIG d   1      -9.083  74.717 118.858  0.00  0.00    -0.090 HD
ATOM     21  H   LIG d   1      -9.779  75.405 117.544  0.00  0.00    -0.090 HD
ENDBRANCH   5  18
BRANCH   3  22
ATOM     22  C   LIG d   1      -5.451  76.840 116.096  0.00  0.00     0.382 C 
ATOM     23  O   LIG d   1      -5.242  75.620 115.892  0.00  0.00    -0.241 OA
ATOM     24  O   LIG d   1      -4.635  77.681 115.671  0.00  0.00    -0.241 OA
ENDBRANCH   3  22
TORSDOF 7
ENDMDL
MODEL 5
REMARK VINA RESULT:      -4.9     19.445     21.578
REMARK  7 active torsions:
REMARK  status: ('A' for Active; 'I' for Inactive)
REMARK    1  A    between atoms: C_2  and  C_3 
REMARK    2  A    between atoms: C_3  and  O_6 
REMARK    3  A    between atoms: C_3  and  C_4 
REMARK    4  A    between atoms: C_7  and  O_6 
REMARK    5  A    between atoms: C_9  and  C_10 
REMARK    6  A    between atoms: N_15  and  C_14 
REMARK    7  A    between atoms: N_20  and  C_19 
REMARK       I    between atoms: C_22  and  N_20 
ROOT
ATOM      1  C   LIG d   1     -25.392  85.738 114.303  0.00  0.00     0.161 C 
ATOM      2  C   LIG d   1     -24.333  86.634 114.082  0.00  0.00     0.016 C 
ATOM      3  C   LIG d   1     -23.081  86.244 113.555  0.00  0.00     0.038 C 
ATOM      4  C   LIG d   1     -22.852  84.948 113.069  0.00  0.00     0.028 C 
ATOM      5  C   LIG d   1     -23.723  83.889 113.736  0.00  0.00    -0.047 C 
ATOM      6  C   LIG d   1     -25.199  84.342 113.675  0.00  0.00     0.091 C 
ENDROOT
BRANCH   1   7
ATOM      7  O   LIG d   1     -26.630  86.323 113.852  0.00  0.00    -0.368 OA
BRANCH   7   8
ATOM      8  C   LIG d   1     -26.793  86.444 112.418  0.00  0.00     0.119 C 
BRANCH   8   9
ATOM      9  C   LIG d   1     -27.054  87.930 112.105  0.00  0.00     0.028 C 
ATOM     10  C   LIG d   1     -27.318  88.759 113.373  0.00  0.00     0.006 C 
ENDBRANCH   8   9
BRANCH   8  11
ATOM     11  C   LIG d   1     -28.042  85.702 111.935  0.00  0.00     0.028 C 
ATOM     12  C   LIG d   1     -29.010  85.357 113.078  0.00  0.00     0.006 C 
ENDBRANCH   8  11
ENDBRANCH   7   8
ENDBRANCH   1   7
BRANCH   6  13
ATOM     13  N   LIG d   1     -26.110  83.402 114.380  0.00  0.00    -0.311 N 
ATOM     14  C   LIG d   1     -26.780  82.430 113.764  0.00  0.00     0.210 C 
ATOM     15  C   LIG d   1     -27.679  81.587 114.674  0.00  0.00     0.109 C 
ATOM     16  O   LIG d   1     -26.690  82.165 112.556  0.00  0.00    -0.276 OA
ATOM     17  H   LIG d   1     -26.218  83.526 115.368  0.00  0.00     0.149 HD
ENDBRANCH   6  13
BRANCH   5  18
ATOM     18  N   LIG d   1     -23.481  82.611 113.040  0.00  0.00     0.381 N 
ATOM     19  H   LIG d   1     -22.572  82.620 112.622  0.00  0.00    -0.090 HD
ATOM     20  H   LIG d   1     -24.163  82.504 112.311  0.00  0.00    -0.090 HD
ATOM     21  H   LIG d   1     -23.551  81.854 113.684  0.00  0.00    -0.090 HD
ENDBRANCH   5  18
BRANCH   3  22
ATOM     22  C   LIG d   1     -22.027  87.146 113.548  0.00  0.00     0.382 C 
ATOM     23  O   LIG d   1     -22.070  88.166 114.277  0.00  0.00    -0.241 OA
ATOM     24  O   LIG d   1     -21.055  86.975 112.789  0.00  0.00    -0.241 OA
ENDBRANCH   3  22
TORSDOF 7
ENDMDL
MODEL 6
REMARK VINA RESULT:      -4.9     14.975     16.386
REMARK  7 active torsions:
REMARK  status: ('A' for Active; 'I' for Inactive)
REMARK    1  A    between atoms: C_2  and  C_3 
REMARK    2  A    between atoms: C_3  and  O_6 
REMARK    3  A    between atoms: C_3  and  C_4 
REMARK    4  A    between atoms: C_7  and  O_6 
REMARK    5  A    between atoms: C_9  and  C_10 
REMARK    6  A    between atoms: N_15  and  C_14 
REMARK    7  A    between atoms: N_20  and  C_19 
REMARK       I    between atoms: C_22  and  N_20 
ROOT
ATOM      1  C   LIG d   1      -7.280  77.085 117.307  0.00  0.00     0.161 C 
ATOM      2  C   LIG d   1      -7.041  76.509 116.048  0.00  0.00     0.016 C 
ATOM      3  C   LIG d   1      -5.752  76.385 115.481  0.00  0.00     0.038 C 
ATOM      4  C   LIG d   1      -4.591  76.694 116.205  0.00  0.00     0.028 C 
ATOM      5  C   LIG d   1      -4.813  77.748 117.285  0.00  0.00    -0.047 C 
ATOM      6  C   LIG d   1      -6.016  77.326 118.158  0.00  0.00     0.091 C 
ENDROOT
BRANCH   1   7
ATOM      7  O   LIG d   1      -8.231  76.285 118.037  0.00  0.00    -0.368 OA
BRANCH   7   8
ATOM      8  C   LIG d   1      -9.593  76.779 118.063  0.00  0.00     0.119 C 
BRANCH   8   9
ATOM      9  C   LIG d   1      -9.862  77.322 119.480  0.00  0.00     0.028 C 
ATOM     10  C   LIG d   1     -10.009  78.853 119.503  0.00  0.00     0.006 C 
ENDBRANCH   8   9
BRANCH   8  11
ATOM     11  C   LIG d   1     -10.601  75.643 117.866  0.00  0.00     0.028 C 
ATOM     12  C   LIG d   1      -9.928  74.277 117.662  0.00  0.00     0.006 C 
ENDBRANCH   8  11
ENDBRANCH   7   8
ENDBRANCH   1   7
BRANCH   6  13
ATOM     13  N   LIG d   1      -6.354  78.343 119.187  0.00  0.00    -0.311 N 
ATOM     14  C   LIG d   1      -6.354  78.092 120.495  0.00  0.00     0.210 C 
ATOM     15  C   LIG d   1      -6.752  79.276 121.381  0.00  0.00     0.109 C 
ATOM     16  O   LIG d   1      -6.031  77.009 121.007  0.00  0.00    -0.276 OA
ATOM     17  H   LIG d   1      -6.598  79.258 118.861  0.00  0.00     0.149 HD
ENDBRANCH   6  13
BRANCH   5  18
ATOM     18  N   LIG d   1      -3.558  77.873 118.050  0.00  0.00     0.381 N 
ATOM     19  H   LIG d   1      -3.466  78.805 118.401  0.00  0.00    -0.090 HD
ATOM     20  H   LIG d   1      -2.783  77.689 117.437  0.00  0.00    -0.090 HD
ATOM     21  H   LIG d   1      -3.554  77.224 118.806  0.00  0.00    -0.090 HD
ENDBRANCH   5  18
BRANCH   3  22
ATOM     22  C   LIG d   1      -5.618  75.985 114.160  0.00  0.00     0.382 C 
ATOM     23  O   LIG d   1      -6.042  76.720 113.236  0.00  0.00    -0.241 OA
ATOM     24  O   LIG d   1      -5.117  74.879 113.883  0.00  0.00    -0.241 OA
ENDBRANCH   3  22
TORSDOF 7
ENDMDL
MODEL 7
REMARK VINA RESULT:      -4.7     13.552     16.331
REMARK  7 active torsions:
REMARK  status: ('A' for Active; 'I' for Inactive)
REMARK    1  A    between atoms: C_2  and  C_3 
REMARK    2  A    between atoms: C_3  and  O_6 
REMARK    3  A    between atoms: C_3  and  C_4 
REMARK    4  A    between atoms: C_7  and  O_6 
REMARK    5  A    between atoms: C_9  and  C_10 
REMARK    6  A    between atoms: N_15  and  C_14 
REMARK    7  A    between atoms: N_20  and  C_19 
REMARK       I    between atoms: C_22  and  N_20 
ROOT
ATOM      1  C   LIG d   1      -7.136  77.395 117.541  0.00  0.00     0.161 C 
ATOM      2  C   LIG d   1      -7.893  76.224 117.376  0.00  0.00     0.016 C 
ATOM      3  C   LIG d   1      -9.234  76.096 117.807  0.00  0.00     0.038 C 
ATOM      4  C   LIG d   1      -9.961  77.190 118.299  0.00  0.00     0.028 C 
ATOM      5  C   LIG d   1      -9.086  78.256 118.950  0.00  0.00    -0.047 C 
ATOM      6  C   LIG d   1      -7.947  78.634 117.976  0.00  0.00     0.091 C 
ENDROOT
BRANCH   1   7
ATOM      7  O   LIG d   1      -6.401  77.676 116.333  0.00  0.00    -0.368 OA
BRANCH   7   8
ATOM      8  C   LIG d   1      -4.999  77.313 116.342  0.00  0.00     0.119 C 
BRANCH   8   9
ATOM      9  C   LIG d   1      -4.886  75.890 115.761  0.00  0.00     0.028 C 
ATOM     10  C   LIG d   1      -5.388  75.807 114.310  0.00  0.00     0.006 C 
ENDBRANCH   8   9
BRANCH   8  11
ATOM     11  C   LIG d   1      -4.458  77.212 117.771  0.00  0.00     0.028 C 
ATOM     12  C   LIG d   1      -3.548  75.990 117.979  0.00  0.00     0.006 C 
ENDBRANCH   8  11
ENDBRANCH   7   8
ENDBRANCH   1   7
BRANCH   6  13
ATOM     13  N   LIG d   1      -6.996  79.610 118.567  0.00  0.00    -0.311 N 
ATOM     14  C   LIG d   1      -7.021  80.914 118.297  0.00  0.00     0.210 C 
ATOM     15  C   LIG d   1      -5.938  81.740 118.998  0.00  0.00     0.109 C 
ATOM     16  O   LIG d   1      -7.857  81.470 117.569  0.00  0.00    -0.276 OA
ATOM     17  H   LIG d   1      -6.303  79.250 119.194  0.00  0.00     0.149 HD
ENDBRANCH   6  13
BRANCH   5  18
ATOM     18  N   LIG d   1      -9.955  79.397 119.294  0.00  0.00     0.381 N 
ATOM     19  H   LIG d   1      -9.532  80.250 118.987  0.00  0.00    -0.090 HD
ATOM     20  H   LIG d   1     -10.059  79.438 120.293  0.00  0.00    -0.090 HD
ATOM     21  H   LIG d   1     -10.848  79.288 118.864  0.00  0.00    -0.090 HD
ENDBRANCH   5  18
BRANCH   3  22
ATOM     22  C   LIG d   1      -9.848  74.854 117.783  0.00  0.00     0.382 C 
ATOM     23  O   LIG d   1      -9.155  73.813 117.676  0.00  0.00    -0.241 OA
ATOM     24  O   LIG d   1     -11.090  74.762 117.823  0.00  0.00    -0.241 OA
ENDBRANCH   3  22
TORSDOF 7
ENDMDL
MODEL 8
REMARK VINA RESULT:      -4.7     28.482     31.256
REMARK  7 active torsions:
REMARK  status: ('A' for Active; 'I' for Inactive)
REMARK    1  A    between atoms: C_2  and  C_3 
REMARK    2  A    between atoms: C_3  and  O_6 
REMARK    3  A    between atoms: C_3  and  C_4 
REMARK    4  A    between atoms: C_7  and  O_6 
REMARK    5  A    between atoms: C_9  and  C_10 
REMARK    6  A    between atoms: N_15  and  C_14 
REMARK    7  A    between atoms: N_20  and  C_19 
REMARK       I    between atoms: C_22  and  N_20 
ROOT
ATOM      1  C   LIG d   1     -16.371  63.494 116.734  0.00  0.00     0.161 C 
ATOM      2  C   LIG d   1     -17.281  63.114 115.733  0.00  0.00     0.016 C 
ATOM      3  C   LIG d   1     -17.937  64.037 114.886  0.00  0.00     0.038 C 
ATOM      4  C   LIG d   1     -17.610  65.402 114.884  0.00  0.00     0.028 C 
ATOM      5  C   LIG d   1     -17.068  65.898 116.220  0.00  0.00    -0.047 C 
ATOM      6  C   LIG d   1     -15.919  64.968 116.672  0.00  0.00     0.091 C 
ENDROOT
BRANCH   1   7
ATOM      7  O   LIG d   1     -15.227  62.617 116.712  0.00  0.00    -0.368 OA
BRANCH   7   8
ATOM      8  C   LIG d   1     -15.191  61.591 117.734  0.00  0.00     0.119 C 
BRANCH   8   9
ATOM      9  C   LIG d   1     -15.887  60.342 117.160  0.00  0.00     0.028 C 
ATOM     10  C   LIG d   1     -15.587  59.075 117.978  0.00  0.00     0.006 C 
ENDBRANCH   8   9
BRANCH   8  11
ATOM     11  C   LIG d   1     -16.021  61.992 118.956  0.00  0.00     0.028 C 
ATOM     12  C   LIG d   1     -15.154  62.400 120.158  0.00  0.00     0.006 C 
ENDBRANCH   8  11
ENDBRANCH   7   8
ENDBRANCH   1   7
BRANCH   6  13
ATOM     13  N   LIG d   1     -15.388  65.332 118.011  0.00  0.00    -0.311 N 
ATOM     14  C   LIG d   1     -14.296  66.073 118.190  0.00  0.00     0.210 C 
ATOM     15  C   LIG d   1     -13.911  66.314 119.653  0.00  0.00     0.109 C 
ATOM     16  O   LIG d   1     -13.628  66.581 117.276  0.00  0.00    -0.276 OA
ATOM     17  H   LIG d   1     -15.887  64.988 118.808  0.00  0.00     0.149 HD
ENDBRANCH   6  13
BRANCH   5  18
ATOM     18  N   LIG d   1     -16.641  67.297 116.036  0.00  0.00     0.381 N 
ATOM     19  H   LIG d   1     -17.121  67.886 116.687  0.00  0.00    -0.090 HD
ATOM     20  H   LIG d   1     -16.883  67.592 115.106  0.00  0.00    -0.090 HD
ATOM     21  H   LIG d   1     -15.657  67.374 116.171  0.00  0.00    -0.090 HD
ENDBRANCH   5  18
BRANCH   3  22
ATOM     22  C   LIG d   1     -18.960  63.603 114.058  0.00  0.00     0.382 C 
ATOM     23  O   LIG d   1     -19.214  64.224 112.997  0.00  0.00    -0.241 OA
ATOM     24  O   LIG d   1     -19.661  62.625 114.379  0.00  0.00    -0.241 OA
ENDBRANCH   3  22
TORSDOF 7
ENDMDL
MODEL 9
REMARK VINA RESULT:      -4.6     28.058     30.806
REMARK  7 active torsions:
REMARK  status: ('A' for Active; 'I' for Inactive)
REMARK    1  A    between atoms: C_2  and  C_3 
REMARK    2  A    between atoms: C_3  and  O_6 
REMARK    3  A    between atoms: C_3  and  C_4 
REMARK    4  A    between atoms: C_7  and  O_6 
REMARK    5  A    between atoms: C_9  and  C_10 
REMARK    6  A    between atoms: N_15  and  C_14 
REMARK    7  A    between atoms: N_20  and  C_19 
REMARK       I    between atoms: C_22  and  N_20 
ROOT
ATOM      1  C   LIG d   1     -15.776  65.101 116.215  0.00  0.00     0.161 C 
ATOM      2  C   LIG d   1     -15.070  65.435 117.382  0.00  0.00     0.016 C 
ATOM      3  C   LIG d   1     -15.605  66.246 118.410  0.00  0.00     0.038 C 
ATOM      4  C   LIG d   1     -16.947  66.655 118.409  0.00  0.00     0.028 C 
ATOM      5  C   LIG d   1     -17.546  66.764 117.011  0.00  0.00    -0.047 C 
ATOM      6  C   LIG d   1     -17.280  65.446 116.247  0.00  0.00     0.091 C 
ENDROOT
BRANCH   1   7
ATOM      7  O   LIG d   1     -15.590  63.703 115.914  0.00  0.00    -0.368 OA
BRANCH   7   8
ATOM      8  C   LIG d   1     -16.206  62.766 116.831  0.00  0.00     0.119 C 
BRANCH   8   9
ATOM      9  C   LIG d   1     -15.118  61.768 117.274  0.00  0.00     0.028 C 
ATOM     10  C   LIG d   1     -15.690  60.372 117.574  0.00  0.00     0.006 C 
ENDBRANCH   8   9
BRANCH   8  11
ATOM     11  C   LIG d   1     -17.272  61.919 116.130  0.00  0.00     0.028 C 
ATOM     12  C   LIG d   1     -17.139  61.943 114.599  0.00  0.00     0.006 C 
ENDBRANCH   8  11
ENDBRANCH   7   8
ENDBRANCH   1   7
BRANCH   6  13
ATOM     13  N   LIG d   1     -17.760  65.499 114.842  0.00  0.00    -0.311 N 
ATOM     14  C   LIG d   1     -18.944  65.029 114.453  0.00  0.00     0.210 C 
ATOM     15  C   LIG d   1     -19.234  65.165 112.955  0.00  0.00     0.109 C 
ATOM     16  O   LIG d   1     -19.796  64.543 115.212  0.00  0.00    -0.276 OA
ATOM     17  H   LIG d   1     -17.145  65.906 114.165  0.00  0.00     0.149 HD
ENDBRANCH   6  13
BRANCH   5  18
ATOM     18  N   LIG d   1     -18.982  67.064 117.163  0.00  0.00     0.381 N 
ATOM     19  H   LIG d   1     -19.369  66.502 117.895  0.00  0.00    -0.090 HD
ATOM     20  H   LIG d   1     -19.454  66.836 116.307  0.00  0.00    -0.090 HD
ATOM     21  H   LIG d   1     -19.108  68.030 117.374  0.00  0.00    -0.090 HD
ENDBRANCH   5  18
BRANCH   3  22
ATOM     22  C   LIG d   1     -14.782  66.688 119.435  0.00  0.00     0.382 C 
ATOM     23  O   LIG d   1     -15.272  66.969 120.555  0.00  0.00    -0.241 OA
ATOM     24  O   LIG d   1     -13.563  66.852 119.240  0.00  0.00    -0.241 OA
ENDBRANCH   3  22
TORSDOF 7
ENDMDL
