MODEL 1
REMARK VINA RESULT:      -6.8      0.000      0.000
REMARK  7 active torsions:
REMARK  status: ('A' for Active; 'I' for Inactive)
REMARK    1  A    between atoms: C_2  and  C_3 
REMARK    2  A    between atoms: C_3  and  O_6 
REMARK    3  A    between atoms: C_3  and  C_4 
REMARK    4  A    between atoms: C_7  and  O_6 
REMARK    5  A    between atoms: C_9  and  C_10 
REMARK    6  A    between atoms: N_15  and  C_14 
REMARK    7  A    between atoms: N_20  and  C_19 
REMARK       I    between atoms: C_22  and  N_20 
ROOT
ATOM      1  C   LIG d   1       0.249  82.482 111.289  0.00  0.00     0.161 C 
ATOM      2  C   LIG d   1      -0.874  82.306 112.115  0.00  0.00     0.016 C 
ATOM      3  C   LIG d   1      -1.394  81.037 112.460  0.00  0.00     0.038 C 
ATOM      4  C   LIG d   1      -0.733  79.848 112.122  0.00  0.00     0.028 C 
ATOM      5  C   LIG d   1       0.122  79.966 110.865  0.00  0.00    -0.047 C 
ATOM      6  C   LIG d   1       1.050  81.195 111.002  0.00  0.00     0.091 C 
ENDROOT
BRANCH   1   7
ATOM      7  O   LIG d   1       1.111  83.495 111.845  0.00  0.00    -0.368 OA
BRANCH   7   8
ATOM      8  C   LIG d   1       1.190  84.740 111.108  0.00  0.00     0.119 C 
BRANCH   8   9
ATOM      9  C   LIG d   1       0.250  84.619 109.893  0.00  0.00     0.028 C 
ATOM     10  C   LIG d   1      -0.745  85.788 109.802  0.00  0.00     0.006 C 
ENDBRANCH   8   9
BRANCH   8  11
ATOM     11  C   LIG d   1       2.588  84.952 110.520  0.00  0.00     0.028 C 
ATOM     12  C   LIG d   1       3.709  84.691 111.539  0.00  0.00     0.006 C 
ENDBRANCH   8  11
ENDBRANCH   7   8
ENDBRANCH   1   7
BRANCH   6  13
ATOM     13  N   LIG d   1       1.861  81.432 109.780  0.00  0.00    -0.311 N 
ATOM     14  C   LIG d   1       3.193  81.416 109.769  0.00  0.00     0.210 C 
ATOM     15  C   LIG d   1       3.832  81.705 108.407  0.00  0.00     0.109 C 
ATOM     16  O   LIG d   1       3.905  81.158 110.751  0.00  0.00    -0.276 OA
ATOM     17  H   LIG d   1       1.363  81.619 108.931  0.00  0.00     0.149 HD
ENDBRANCH   6  13
BRANCH   5  18
ATOM     18  N   LIG d   1       0.861  78.699 110.708  0.00  0.00     0.381 N 
ATOM     19  H   LIG d   1       0.322  78.057 110.161  0.00  0.00    -0.090 HD
ATOM     20  H   LIG d   1       1.009  78.293 111.615  0.00  0.00    -0.090 HD
ATOM     21  H   LIG d   1       1.738  78.867 110.265  0.00  0.00    -0.090 HD
ENDBRANCH   5  18
BRANCH   3  22
ATOM     22  C   LIG d   1      -2.612  80.950 113.116  0.00  0.00     0.382 C 
ATOM     23  O   LIG d   1      -2.748  80.164 114.085  0.00  0.00    -0.241 OA
ATOM     24  O   LIG d   1      -3.590  81.615 112.725  0.00  0.00    -0.241 OA
ENDBRANCH   3  22
TORSDOF 7
ENDMDL
MODEL 2
REMARK VINA RESULT:      -6.6      0.535      1.776
REMARK  7 active torsions:
REMARK  status: ('A' for Active; 'I' for Inactive)
REMARK    1  A    between atoms: C_2  and  C_3 
REMARK    2  A    between atoms: C_3  and  O_6 
REMARK    3  A    between atoms: C_3  and  C_4 
REMARK    4  A    between atoms: C_7  and  O_6 
REMARK    5  A    between atoms: C_9  and  C_10 
REMARK    6  A    between atoms: N_15  and  C_14 
REMARK    7  A    between atoms: N_20  and  C_19 
REMARK       I    between atoms: C_22  and  N_20 
ROOT
ATOM      1  C   LIG d   1       0.186  82.560 111.330  0.00  0.00     0.161 C 
ATOM      2  C   LIG d   1      -0.944  82.313 112.127  0.00  0.00     0.016 C 
ATOM      3  C   LIG d   1      -1.405  81.014 112.442  0.00  0.00     0.038 C 
ATOM      4  C   LIG d   1      -0.673  79.866 112.104  0.00  0.00     0.028 C 
ATOM      5  C   LIG d   1       0.202  80.047 110.869  0.00  0.00    -0.047 C 
ATOM      6  C   LIG d   1       1.060  81.321 111.045  0.00  0.00     0.091 C 
ENDROOT
BRANCH   1   7
ATOM      7  O   LIG d   1       0.981  83.608 111.920  0.00  0.00    -0.368 OA
BRANCH   7   8
ATOM      8  C   LIG d   1       1.191  84.786 111.102  0.00  0.00     0.119 C 
BRANCH   8   9
ATOM      9  C   LIG d   1       2.360  85.576 111.722  0.00  0.00     0.028 C 
ATOM     10  C   LIG d   1       3.699  85.291 111.021  0.00  0.00     0.006 C 
ENDBRANCH   8   9
BRANCH   8  11
ATOM     11  C   LIG d   1      -0.014  85.729 111.163  0.00  0.00     0.028 C 
ATOM     12  C   LIG d   1      -0.780  85.803 109.833  0.00  0.00     0.006 C 
ENDBRANCH   8  11
ENDBRANCH   7   8
ENDBRANCH   1   7
BRANCH   6  13
ATOM     13  N   LIG d   1       1.885  81.619 109.845  0.00  0.00    -0.311 N 
ATOM     14  C   LIG d   1       3.208  81.767 109.883  0.00  0.00     0.210 C 
ATOM     15  C   LIG d   1       3.861  82.091 108.536  0.00  0.00     0.109 C 
ATOM     16  O   LIG d   1       3.906  81.630 110.899  0.00  0.00    -0.276 OA
ATOM     17  H   LIG d   1       1.403  81.716 108.972  0.00  0.00     0.149 HD
ENDBRANCH   6  13
BRANCH   5  18
ATOM     18  N   LIG d   1       1.010  78.823 110.712  0.00  0.00     0.381 N 
ATOM     19  H   LIG d   1       0.819  78.403 109.824  0.00  0.00    -0.090 HD
ATOM     20  H   LIG d   1       0.755  78.170 111.431  0.00  0.00    -0.090 HD
ATOM     21  H   LIG d   1       1.979  79.043 110.781  0.00  0.00    -0.090 HD
ENDBRANCH   5  18
BRANCH   3  22
ATOM     22  C   LIG d   1      -2.631  80.853 113.070  0.00  0.00     0.382 C 
ATOM     23  O   LIG d   1      -2.786  79.942 113.918  0.00  0.00    -0.241 OA
ATOM     24  O   LIG d   1      -3.596  81.579 112.765  0.00  0.00    -0.241 OA
ENDBRANCH   3  22
TORSDOF 7
ENDMDL
MODEL 3
REMARK VINA RESULT:      -6.6      1.845      5.000
REMARK  7 active torsions:
REMARK  status: ('A' for Active; 'I' for Inactive)
REMARK    1  A    between atoms: C_2  and  C_3 
REMARK    2  A    between atoms: C_3  and  O_6 
REMARK    3  A    between atoms: C_3  and  C_4 
REMARK    4  A    between atoms: C_7  and  O_6 
REMARK    5  A    between atoms: C_9  and  C_10 
REMARK    6  A    between atoms: N_15  and  C_14 
REMARK    7  A    between atoms: N_20  and  C_19 
REMARK       I    between atoms: C_22  and  N_20 
ROOT
ATOM      1  C   LIG d   1       1.302  82.543 111.201  0.00  0.00     0.161 C 
ATOM      2  C   LIG d   1       2.041  82.753 110.025  0.00  0.00     0.016 C 
ATOM      3  C   LIG d   1       1.943  81.923 108.885  0.00  0.00     0.038 C 
ATOM      4  C   LIG d   1       0.980  80.908 108.788  0.00  0.00     0.028 C 
ATOM      5  C   LIG d   1       0.560  80.340 110.140  0.00  0.00    -0.047 C 
ATOM      6  C   LIG d   1       0.165  81.507 111.073  0.00  0.00     0.091 C 
ENDROOT
BRANCH   1   7
ATOM      7  O   LIG d   1       0.783  83.799 111.683  0.00  0.00    -0.368 OA
BRANCH   7   8
ATOM      8  C   LIG d   1       1.368  84.993 111.108  0.00  0.00     0.119 C 
BRANCH   8   9
ATOM      9  C   LIG d   1       2.326  85.590 112.156  0.00  0.00     0.028 C 
ATOM     10  C   LIG d   1       3.753  85.771 111.612  0.00  0.00     0.006 C 
ENDBRANCH   8   9
BRANCH   8  11
ATOM     11  C   LIG d   1       0.309  86.072 110.865  0.00  0.00     0.028 C 
ATOM     12  C   LIG d   1      -0.701  85.680 109.775  0.00  0.00     0.006 C 
ENDBRANCH   8  11
ENDBRANCH   7   8
ENDBRANCH   1   7
BRANCH   6  13
ATOM     13  N   LIG d   1      -0.178  81.046 112.444  0.00  0.00    -0.311 N 
ATOM     14  C   LIG d   1      -1.356  81.277 113.022  0.00  0.00     0.210 C 
ATOM     15  C   LIG d   1      -1.495  80.732 114.446  0.00  0.00     0.109 C 
ATOM     16  O   LIG d   1      -2.309  81.855 112.478  0.00  0.00    -0.276 OA
ATOM     17  H   LIG d   1       0.527  80.542 112.945  0.00  0.00     0.149 HD
ENDBRANCH   6  13
BRANCH   5  18
ATOM     18  N   LIG d   1      -0.544  79.392 109.901  0.00  0.00     0.381 N 
ATOM     19  H   LIG d   1      -1.273  79.546 110.569  0.00  0.00    -0.090 HD
ATOM     20  H   LIG d   1      -0.200  78.455 110.021  0.00  0.00    -0.090 HD
ATOM     21  H   LIG d   1      -0.900  79.507 108.978  0.00  0.00    -0.090 HD
ENDBRANCH   5  18
BRANCH   3  22
ATOM     22  C   LIG d   1       2.842  82.080 107.841  0.00  0.00     0.382 C 
ATOM     23  O   LIG d   1       2.458  82.568 106.751  0.00  0.00    -0.241 OA
ATOM     24  O   LIG d   1       4.021  81.698 107.960  0.00  0.00    -0.241 OA
ENDBRANCH   3  22
TORSDOF 7
ENDMDL
MODEL 4
REMARK VINA RESULT:      -6.2      2.374      4.645
REMARK  7 active torsions:
REMARK  status: ('A' for Active; 'I' for Inactive)
REMARK    1  A    between atoms: C_2  and  C_3 
REMARK    2  A    between atoms: C_3  and  O_6 
REMARK    3  A    between atoms: C_3  and  C_4 
REMARK    4  A    between atoms: C_7  and  O_6 
REMARK    5  A    between atoms: C_9  and  C_10 
REMARK    6  A    between atoms: N_15  and  C_14 
REMARK    7  A    between atoms: N_20  and  C_19 
REMARK       I    between atoms: C_22  and  N_20 
ROOT
ATOM      1  C   LIG d   1       0.170  82.456 111.157  0.00  0.00     0.161 C 
ATOM      2  C   LIG d   1      -0.268  83.715 111.599  0.00  0.00     0.016 C 
ATOM      3  C   LIG d   1      -0.185  84.888 110.814  0.00  0.00     0.038 C 
ATOM      4  C   LIG d   1       0.206  84.852 109.467  0.00  0.00     0.028 C 
ATOM      5  C   LIG d   1       1.133  83.688 109.136  0.00  0.00    -0.047 C 
ATOM      6  C   LIG d   1       0.496  82.377 109.650  0.00  0.00     0.091 C 
ENDROOT
BRANCH   1   7
ATOM      7  O   LIG d   1      -0.797  81.449 111.513  0.00  0.00    -0.368 OA
BRANCH   7   8
ATOM      8  C   LIG d   1      -0.395  80.516 112.547  0.00  0.00     0.119 C 
BRANCH   8   9
ATOM      9  C   LIG d   1      -1.385  80.668 113.718  0.00  0.00     0.028 C 
ATOM     10  C   LIG d   1      -2.746  81.226 113.268  0.00  0.00     0.006 C 
ENDBRANCH   8   9
BRANCH   8  11
ATOM     11  C   LIG d   1       0.975  80.881 113.124  0.00  0.00     0.028 C 
ATOM     12  C   LIG d   1       0.979  80.939 114.660  0.00  0.00     0.006 C 
ENDBRANCH   8  11
ENDBRANCH   7   8
ENDBRANCH   1   7
BRANCH   6  13
ATOM     13  N   LIG d   1       1.377  81.198 109.442  0.00  0.00    -0.311 N 
ATOM     14  C   LIG d   1       0.930  80.010 109.039  0.00  0.00     0.210 C 
ATOM     15  C   LIG d   1       2.004  78.926 108.907  0.00  0.00     0.109 C 
ATOM     16  O   LIG d   1      -0.249  79.760 108.748  0.00  0.00    -0.276 OA
ATOM     17  H   LIG d   1       2.354  81.321 109.625  0.00  0.00     0.149 HD
ENDBRANCH   6  13
BRANCH   5  18
ATOM     18  N   LIG d   1       1.349  83.691 107.676  0.00  0.00     0.381 N 
ATOM     19  H   LIG d   1       1.943  82.928 107.420  0.00  0.00    -0.090 HD
ATOM     20  H   LIG d   1       1.808  84.547 107.418  0.00  0.00    -0.090 HD
ATOM     21  H   LIG d   1       0.477  83.617 107.202  0.00  0.00    -0.090 HD
ENDBRANCH   5  18
BRANCH   3  22
ATOM     22  C   LIG d   1      -0.457  86.120 111.388  0.00  0.00     0.382 C 
ATOM     23  O   LIG d   1       0.144  86.472 112.432  0.00  0.00    -0.241 OA
ATOM     24  O   LIG d   1      -1.328  86.866 110.901  0.00  0.00    -0.241 OA
ENDBRANCH   3  22
TORSDOF 7
ENDMDL
MODEL 5
REMARK VINA RESULT:      -6.2      2.846      3.957
REMARK  7 active torsions:
REMARK  status: ('A' for Active; 'I' for Inactive)
REMARK    1  A    between atoms: C_2  and  C_3 
REMARK    2  A    between atoms: C_3  and  O_6 
REMARK    3  A    between atoms: C_3  and  C_4 
REMARK    4  A    between atoms: C_7  and  O_6 
REMARK    5  A    between atoms: C_9  and  C_10 
REMARK    6  A    between atoms: N_15  and  C_14 
REMARK    7  A    between atoms: N_20  and  C_19 
REMARK       I    between atoms: C_22  and  N_20 
ROOT
ATOM      1  C   LIG d   1       2.509  84.546 110.322  0.00  0.00     0.161 C 
ATOM      2  C   LIG d   1       1.509  85.470 110.670  0.00  0.00     0.016 C 
ATOM      3  C   LIG d   1       0.183  85.097 110.991  0.00  0.00     0.038 C 
ATOM      4  C   LIG d   1      -0.195  83.754 111.134  0.00  0.00     0.028 C 
ATOM      5  C   LIG d   1       0.649  82.794 110.302  0.00  0.00    -0.047 C 
ATOM      6  C   LIG d   1       2.144  83.070 110.581  0.00  0.00     0.091 C 
ENDROOT
BRANCH   1   7
ATOM      7  O   LIG d   1       3.740  84.884 110.993  0.00  0.00    -0.368 OA
BRANCH   7   8
ATOM      8  C   LIG d   1       3.606  85.510 112.293  0.00  0.00     0.119 C 
BRANCH   8   9
ATOM      9  C   LIG d   1       4.497  86.768 112.294  0.00  0.00     0.028 C 
ATOM     10  C   LIG d   1       3.992  87.844 113.270  0.00  0.00     0.006 C 
ENDBRANCH   8   9
BRANCH   8  11
ATOM     11  C   LIG d   1       4.166  84.616 113.403  0.00  0.00     0.028 C 
ATOM     12  C   LIG d   1       3.207  84.476 114.596  0.00  0.00     0.006 C 
ENDBRANCH   8  11
ENDBRANCH   7   8
ENDBRANCH   1   7
BRANCH   6  13
ATOM     13  N   LIG d   1       3.041  82.231 109.744  0.00  0.00    -0.311 N 
ATOM     14  C   LIG d   1       3.541  81.064 110.147  0.00  0.00     0.210 C 
ATOM     15  C   LIG d   1       4.460  80.371 109.136  0.00  0.00     0.109 C 
ATOM     16  O   LIG d   1       3.285  80.522 111.232  0.00  0.00    -0.276 OA
ATOM     17  H   LIG d   1       3.276  82.581 108.836  0.00  0.00     0.149 HD
ENDBRANCH   6  13
BRANCH   5  18
ATOM     18  N   LIG d   1       0.239  81.421 110.651  0.00  0.00     0.381 N 
ATOM     19  H   LIG d   1      -0.549  81.450 111.268  0.00  0.00    -0.090 HD
ATOM     20  H   LIG d   1       0.997  80.967 111.129  0.00  0.00    -0.090 HD
ATOM     21  H   LIG d   1       0.005  80.915 109.826  0.00  0.00    -0.090 HD
ENDBRANCH   5  18
BRANCH   3  22
ATOM     22  C   LIG d   1      -0.790  86.074 111.133  0.00  0.00     0.382 C 
ATOM     23  O   LIG d   1      -1.137  86.451 112.279  0.00  0.00    -0.241 OA
ATOM     24  O   LIG d   1      -1.357  86.552 110.132  0.00  0.00    -0.241 OA
ENDBRANCH   3  22
TORSDOF 7
ENDMDL
MODEL 6
REMARK VINA RESULT:      -6.1      2.613      3.997
REMARK  7 active torsions:
REMARK  status: ('A' for Active; 'I' for Inactive)
REMARK    1  A    between atoms: C_2  and  C_3 
REMARK    2  A    between atoms: C_3  and  O_6 
REMARK    3  A    between atoms: C_3  and  C_4 
REMARK    4  A    between atoms: C_7  and  O_6 
REMARK    5  A    between atoms: C_9  and  C_10 
REMARK    6  A    between atoms: N_15  and  C_14 
REMARK    7  A    between atoms: N_20  and  C_19 
REMARK       I    between atoms: C_22  and  N_20 
ROOT
ATOM      1  C   LIG d   1       1.028  83.452 109.339  0.00  0.00     0.161 C 
ATOM      2  C   LIG d   1       0.673  84.699 109.881  0.00  0.00     0.016 C 
ATOM      3  C   LIG d   1      -0.123  84.846 111.039  0.00  0.00     0.038 C 
ATOM      4  C   LIG d   1      -0.496  83.747 111.827  0.00  0.00     0.028 C 
ATOM      5  C   LIG d   1      -0.588  82.443 111.042  0.00  0.00    -0.047 C 
ATOM      6  C   LIG d   1       0.723  82.243 110.247  0.00  0.00     0.091 C 
ENDROOT
BRANCH   1   7
ATOM      7  O   LIG d   1       2.420  83.460 108.965  0.00  0.00    -0.368 OA
BRANCH   7   8
ATOM      8  C   LIG d   1       3.366  83.171 110.023  0.00  0.00     0.119 C 
BRANCH   8   9
ATOM      9  C   LIG d   1       3.970  84.511 110.484  0.00  0.00     0.028 C 
ATOM     10  C   LIG d   1       3.937  84.676 112.012  0.00  0.00     0.006 C 
ENDBRANCH   8   9
BRANCH   8  11
ATOM     11  C   LIG d   1       4.550  82.350 109.503  0.00  0.00     0.028 C 
ATOM     12  C   LIG d   1       4.260  81.677 108.152  0.00  0.00     0.006 C 
ENDBRANCH   8  11
ENDBRANCH   7   8
ENDBRANCH   1   7
BRANCH   6  13
ATOM     13  N   LIG d   1       0.684  81.032 109.385  0.00  0.00    -0.311 N 
ATOM     14  C   LIG d   1       1.414  79.943 109.618  0.00  0.00     0.210 C 
ATOM     15  C   LIG d   1       1.239  78.816 108.595  0.00  0.00     0.109 C 
ATOM     16  O   LIG d   1       2.167  79.791 110.592  0.00  0.00    -0.276 OA
ATOM     17  H   LIG d   1       0.077  81.058 108.590  0.00  0.00     0.149 HD
ENDBRANCH   6  13
BRANCH   5  18
ATOM     18  N   LIG d   1      -0.849  81.358 112.007  0.00  0.00     0.381 N 
ATOM     19  H   LIG d   1      -0.302  80.555 111.771  0.00  0.00    -0.090 HD
ATOM     20  H   LIG d   1      -1.820  81.105 111.956  0.00  0.00    -0.090 HD
ATOM     21  H   LIG d   1      -0.626  81.662 112.930  0.00  0.00    -0.090 HD
ENDBRANCH   5  18
BRANCH   3  22
ATOM     22  C   LIG d   1      -0.588  86.102 111.399  0.00  0.00     0.382 C 
ATOM     23  O   LIG d   1      -1.305  86.756 110.604  0.00  0.00    -0.241 OA
ATOM     24  O   LIG d   1      -0.263  86.607 112.490  0.00  0.00    -0.241 OA
ENDBRANCH   3  22
TORSDOF 7
ENDMDL
MODEL 7
REMARK VINA RESULT:      -6.0      3.049      5.863
REMARK  7 active torsions:
REMARK  status: ('A' for Active; 'I' for Inactive)
REMARK    1  A    between atoms: C_2  and  C_3 
REMARK    2  A    between atoms: C_3  and  O_6 
REMARK    3  A    between atoms: C_3  and  C_4 
REMARK    4  A    between atoms: C_7  and  O_6 
REMARK    5  A    between atoms: C_9  and  C_10 
REMARK    6  A    between atoms: N_15  and  C_14 
REMARK    7  A    between atoms: N_20  and  C_19 
REMARK       I    between atoms: C_22  and  N_20 
ROOT
ATOM      1  C   LIG d   1       2.441  84.929 111.652  0.00  0.00     0.161 C 
ATOM      2  C   LIG d   1       3.173  86.124 111.749  0.00  0.00     0.016 C 
ATOM      3  C   LIG d   1       3.926  86.485 112.889  0.00  0.00     0.038 C 
ATOM      4  C   LIG d   1       4.122  85.600 113.960  0.00  0.00     0.028 C 
ATOM      5  C   LIG d   1       2.991  84.589 114.124  0.00  0.00    -0.047 C 
ATOM      6  C   LIG d   1       2.732  83.901 112.764  0.00  0.00     0.091 C 
ENDROOT
BRANCH   1   7
ATOM      7  O   LIG d   1       2.645  84.335 110.354  0.00  0.00    -0.368 OA
BRANCH   7   8
ATOM      8  C   LIG d   1       1.608  84.577 109.372  0.00  0.00     0.119 C 
BRANCH   8   9
ATOM      9  C   LIG d   1       0.254  84.519 110.105  0.00  0.00     0.028 C 
ATOM     10  C   LIG d   1      -0.653  85.712 109.759  0.00  0.00     0.006 C 
ENDBRANCH   8   9
BRANCH   8  11
ATOM     11  C   LIG d   1       1.554  83.455 108.331  0.00  0.00     0.028 C 
ATOM     12  C   LIG d   1       2.763  82.511 108.409  0.00  0.00     0.006 C 
ENDBRANCH   8  11
ENDBRANCH   7   8
ENDBRANCH   1   7
BRANCH   6  13
ATOM     13  N   LIG d   1       1.585  82.957 112.816  0.00  0.00    -0.311 N 
ATOM     14  C   LIG d   1       1.612  81.739 112.278  0.00  0.00     0.210 C 
ATOM     15  C   LIG d   1       0.316  80.937 112.427  0.00  0.00     0.109 C 
ATOM     16  O   LIG d   1       2.598  81.235 111.719  0.00  0.00    -0.276 OA
ATOM     17  H   LIG d   1       0.755  83.274 113.278  0.00  0.00     0.149 HD
ENDBRANCH   6  13
BRANCH   5  18
ATOM     18  N   LIG d   1       3.388  83.644 115.185  0.00  0.00     0.381 N 
ATOM     19  H   LIG d   1       4.174  83.105 114.881  0.00  0.00    -0.090 HD
ATOM     20  H   LIG d   1       2.625  83.016 115.363  0.00  0.00    -0.090 HD
ATOM     21  H   LIG d   1       3.619  84.142 116.016  0.00  0.00    -0.090 HD
ENDBRANCH   5  18
BRANCH   3  22
ATOM     22  C   LIG d   1       4.461  87.761 112.985  0.00  0.00     0.382 C 
ATOM     23  O   LIG d   1       3.706  88.744 113.181  0.00  0.00    -0.241 OA
ATOM     24  O   LIG d   1       5.683  87.947 112.832  0.00  0.00    -0.241 OA
ENDBRANCH   3  22
TORSDOF 7
ENDMDL
MODEL 8
REMARK VINA RESULT:      -5.7      3.509      6.358
REMARK  7 active torsions:
REMARK  status: ('A' for Active; 'I' for Inactive)
REMARK    1  A    between atoms: C_2  and  C_3 
REMARK    2  A    between atoms: C_3  and  O_6 
REMARK    3  A    between atoms: C_3  and  C_4 
REMARK    4  A    between atoms: C_7  and  O_6 
REMARK    5  A    between atoms: C_9  and  C_10 
REMARK    6  A    between atoms: N_15  and  C_14 
REMARK    7  A    between atoms: N_20  and  C_19 
REMARK       I    between atoms: C_22  and  N_20 
ROOT
ATOM      1  C   LIG d   1       3.361  84.166 111.868  0.00  0.00     0.161 C 
ATOM      2  C   LIG d   1       4.381  84.146 112.834  0.00  0.00     0.016 C 
ATOM      3  C   LIG d   1       4.395  84.989 113.969  0.00  0.00     0.038 C 
ATOM      4  C   LIG d   1       3.306  85.809 114.296  0.00  0.00     0.028 C 
ATOM      5  C   LIG d   1       2.481  86.233 113.086  0.00  0.00    -0.047 C 
ATOM      6  C   LIG d   1       2.109  84.976 112.267  0.00  0.00     0.091 C 
ENDROOT
BRANCH   1   7
ATOM      7  O   LIG d   1       2.994  82.817 111.517  0.00  0.00    -0.368 OA
BRANCH   7   8
ATOM      8  C   LIG d   1       3.793  82.187 110.486  0.00  0.00     0.119 C 
BRANCH   8   9
ATOM      9  C   LIG d   1       3.535  82.947 109.171  0.00  0.00     0.028 C 
ATOM     10  C   LIG d   1       2.109  82.728 108.637  0.00  0.00     0.006 C 
ENDBRANCH   8   9
BRANCH   8  11
ATOM     11  C   LIG d   1       3.331  80.751 110.222  0.00  0.00     0.028 C 
ATOM     12  C   LIG d   1       4.404  79.898 109.526  0.00  0.00     0.006 C 
ENDBRANCH   8  11
ENDBRANCH   7   8
ENDBRANCH   1   7
BRANCH   6  13
ATOM     13  N   LIG d   1       1.373  85.309 111.019  0.00  0.00    -0.311 N 
ATOM     14  C   LIG d   1       0.044  85.343 110.939  0.00  0.00     0.210 C 
ATOM     15  C   LIG d   1      -0.511  85.689 109.554  0.00  0.00     0.109 C 
ATOM     16  O   LIG d   1      -0.727  85.150 111.891  0.00  0.00    -0.276 OA
ATOM     17  H   LIG d   1       1.922  85.509 110.206  0.00  0.00     0.149 HD
ENDBRANCH   6  13
BRANCH   5  18
ATOM     18  N   LIG d   1       1.303  86.968 113.584  0.00  0.00     0.381 N 
ATOM     19  H   LIG d   1       0.718  87.230 112.816  0.00  0.00    -0.090 HD
ATOM     20  H   LIG d   1       1.613  87.805 114.045  0.00  0.00    -0.090 HD
ATOM     21  H   LIG d   1       0.791  86.399 114.222  0.00  0.00    -0.090 HD
ENDBRANCH   5  18
BRANCH   3  22
ATOM     22  C   LIG d   1       5.526  85.045 114.769  0.00  0.00     0.382 C 
ATOM     23  O   LIG d   1       6.238  84.023 114.922  0.00  0.00    -0.241 OA
ATOM     24  O   LIG d   1       5.820  86.093 115.375  0.00  0.00    -0.241 OA
ENDBRANCH   3  22
TORSDOF 7
ENDMDL
MODEL 9
REMARK VINA RESULT:      -5.6      3.496      5.830
REMARK  7 active torsions:
REMARK  status: ('A' for Active; 'I' for Inactive)
REMARK    1  A    between atoms: C_2  and  C_3 
REMARK    2  A    between atoms: C_3  and  O_6 
REMARK    3  A    between atoms: C_3  and  C_4 
REMARK    4  A    between atoms: C_7  and  O_6 
REMARK    5  A    between atoms: C_9  and  C_10 
REMARK    6  A    between atoms: N_15  and  C_14 
REMARK    7  A    between atoms: N_20  and  C_19 
REMARK       I    between atoms: C_22  and  N_20 
ROOT
ATOM      1  C   LIG d   1       2.408  85.483 111.288  0.00  0.00     0.161 C 
ATOM      2  C   LIG d   1       2.451  86.781 111.824  0.00  0.00     0.016 C 
ATOM      3  C   LIG d   1       3.424  87.206 112.757  0.00  0.00     0.038 C 
ATOM      4  C   LIG d   1       4.519  86.401 113.105  0.00  0.00     0.028 C 
ATOM      5  C   LIG d   1       4.237  84.907 112.977  0.00  0.00    -0.047 C 
ATOM      6  C   LIG d   1       3.659  84.625 111.572  0.00  0.00     0.091 C 
ENDROOT
BRANCH   1   7
ATOM      7  O   LIG d   1       2.155  85.548 109.871  0.00  0.00    -0.368 OA
BRANCH   7   8
ATOM      8  C   LIG d   1       0.880  85.024 109.426  0.00  0.00     0.119 C 
BRANCH   8   9
ATOM      9  C   LIG d   1       0.004  84.814 110.677  0.00  0.00     0.028 C 
ATOM     10  C   LIG d   1      -0.407  83.344 110.864  0.00  0.00     0.006 C 
ENDBRANCH   8   9
BRANCH   8  11
ATOM     11  C   LIG d   1       1.035  83.635 108.801  0.00  0.00     0.028 C 
ATOM     12  C   LIG d   1       1.430  83.689 107.317  0.00  0.00     0.006 C 
ENDBRANCH   8  11
ENDBRANCH   7   8
ENDBRANCH   1   7
BRANCH   6  13
ATOM     13  N   LIG d   1       3.276  83.200 111.392  0.00  0.00    -0.311 N 
ATOM     14  C   LIG d   1       3.729  82.439 110.397  0.00  0.00     0.210 C 
ATOM     15  C   LIG d   1       3.194  81.004 110.385  0.00  0.00     0.109 C 
ATOM     16  O   LIG d   1       4.548  82.808 109.541  0.00  0.00    -0.276 OA
ATOM     17  H   LIG d   1       2.640  82.811 112.059  0.00  0.00     0.149 HD
ENDBRANCH   6  13
BRANCH   5  18
ATOM     18  N   LIG d   1       5.500  84.191 113.237  0.00  0.00     0.381 N 
ATOM     19  H   LIG d   1       5.930  84.552 114.065  0.00  0.00    -0.090 HD
ATOM     20  H   LIG d   1       6.126  84.345 112.465  0.00  0.00    -0.090 HD
ATOM     21  H   LIG d   1       5.325  83.217 113.342  0.00  0.00    -0.090 HD
ENDBRANCH   5  18
BRANCH   3  22
ATOM     22  C   LIG d   1       3.286  88.436 113.383  0.00  0.00     0.382 C 
ATOM     23  O   LIG d   1       2.179  88.770 113.870  0.00  0.00    -0.241 OA
ATOM     24  O   LIG d   1       4.242  89.233 113.427  0.00  0.00    -0.241 OA
ENDBRANCH   3  22
TORSDOF 7
ENDMDL
