MODEL 1
REMARK VINA RESULT:      -6.5      0.000      0.000
REMARK  7 active torsions:
REMARK  status: ('A' for Active; 'I' for Inactive)
REMARK    1  A    between atoms: C_2  and  C_3 
REMARK    2  A    between atoms: C_3  and  O_6 
REMARK    3  A    between atoms: C_3  and  C_4 
REMARK    4  A    between atoms: C_7  and  O_6 
REMARK    5  A    between atoms: C_9  and  C_10 
REMARK    6  A    between atoms: N_15  and  C_14 
REMARK    7  A    between atoms: N_20  and  C_19 
REMARK       I    between atoms: C_22  and  N_20 
ROOT
ATOM      1  C   LIG d   1       1.228  81.171 111.828  0.00  0.00     0.161 C 
ATOM      2  C   LIG d   1       2.410  81.668 111.253  0.00  0.00     0.016 C 
ATOM      3  C   LIG d   1       2.684  81.614 109.867  0.00  0.00     0.038 C 
ATOM      4  C   LIG d   1       1.722  81.192 108.937  0.00  0.00     0.028 C 
ATOM      5  C   LIG d   1       0.707  80.213 109.517  0.00  0.00    -0.047 C 
ATOM      6  C   LIG d   1       0.120  80.810 110.817  0.00  0.00     0.091 C 
ENDROOT
BRANCH   1   7
ATOM      7  O   LIG d   1       0.729  82.107 112.804  0.00  0.00    -0.368 OA
BRANCH   7   8
ATOM      8  C   LIG d   1       1.081  83.496 112.594  0.00  0.00     0.119 C 
BRANCH   8   9
ATOM      9  C   LIG d   1       1.376  84.114 113.974  0.00  0.00     0.028 C 
ATOM     10  C   LIG d   1       1.147  85.634 113.998  0.00  0.00     0.006 C 
ENDBRANCH   8   9
BRANCH   8  11
ATOM     11  C   LIG d   1      -0.104  84.293 112.038  0.00  0.00     0.028 C 
ATOM     12  C   LIG d   1       0.007  84.549 110.527  0.00  0.00     0.006 C 
ENDBRANCH   8  11
ENDBRANCH   7   8
ENDBRANCH   1   7
BRANCH   6  13
ATOM     13  N   LIG d   1      -0.820  79.878 111.494  0.00  0.00    -0.311 N 
ATOM     14  C   LIG d   1      -1.926  80.279 112.118  0.00  0.00     0.210 C 
ATOM     15  C   LIG d   1      -2.744  79.158 112.767  0.00  0.00     0.109 C 
ATOM     16  O   LIG d   1      -2.324  81.452 112.168  0.00  0.00    -0.276 OA
ATOM     17  H   LIG d   1      -0.590  78.904 111.474  0.00  0.00     0.149 HD
ENDBRANCH   6  13
BRANCH   5  18
ATOM     18  N   LIG d   1      -0.314  79.965 108.482  0.00  0.00     0.381 N 
ATOM     19  H   LIG d   1      -0.940  79.248 108.789  0.00  0.00    -0.090 HD
ATOM     20  H   LIG d   1       0.142  79.648 107.645  0.00  0.00    -0.090 HD
ATOM     21  H   LIG d   1      -0.821  80.802 108.296  0.00  0.00    -0.090 HD
ENDBRANCH   5  18
BRANCH   3  22
ATOM     22  C   LIG d   1       3.948  81.946 109.403  0.00  0.00     0.382 C 
ATOM     23  O   LIG d   1       4.554  81.171 108.624  0.00  0.00    -0.241 OA
ATOM     24  O   LIG d   1       4.507  82.991 109.788  0.00  0.00    -0.241 OA
ENDBRANCH   3  22
TORSDOF 7
ENDMDL
MODEL 2
REMARK VINA RESULT:      -6.3      1.694      4.881
REMARK  7 active torsions:
REMARK  status: ('A' for Active; 'I' for Inactive)
REMARK    1  A    between atoms: C_2  and  C_3 
REMARK    2  A    between atoms: C_3  and  O_6 
REMARK    3  A    between atoms: C_3  and  C_4 
REMARK    4  A    between atoms: C_7  and  O_6 
REMARK    5  A    between atoms: C_9  and  C_10 
REMARK    6  A    between atoms: N_15  and  C_14 
REMARK    7  A    between atoms: N_20  and  C_19 
REMARK       I    between atoms: C_22  and  N_20 
ROOT
ATOM      1  C   LIG d   1       0.469  82.303 111.180  0.00  0.00     0.161 C 
ATOM      2  C   LIG d   1      -0.671  81.984 111.937  0.00  0.00     0.016 C 
ATOM      3  C   LIG d   1      -1.342  80.743 111.848  0.00  0.00     0.038 C 
ATOM      4  C   LIG d   1      -0.826  79.673 111.103  0.00  0.00     0.028 C 
ATOM      5  C   LIG d   1       0.044  80.115 109.930  0.00  0.00    -0.047 C 
ATOM      6  C   LIG d   1       1.111  81.108 110.443  0.00  0.00     0.091 C 
ENDROOT
BRANCH   1   7
ATOM      7  O   LIG d   1       1.443  82.958 112.015  0.00  0.00    -0.368 OA
BRANCH   7   8
ATOM      8  C   LIG d   1       1.469  84.405 111.949  0.00  0.00     0.119 C 
BRANCH   8   9
ATOM      9  C   LIG d   1       1.007  84.813 110.537  0.00  0.00     0.028 C 
ATOM     10  C   LIG d   1      -0.059  85.921 110.565  0.00  0.00     0.006 C 
ENDBRANCH   8   9
BRANCH   8  11
ATOM     11  C   LIG d   1       2.897  84.944 112.080  0.00  0.00     0.028 C 
ATOM     12  C   LIG d   1       3.604  85.092 110.723  0.00  0.00     0.006 C 
ENDBRANCH   8  11
ENDBRANCH   7   8
ENDBRANCH   1   7
BRANCH   6  13
ATOM     13  N   LIG d   1       1.951  81.655 109.346  0.00  0.00    -0.311 N 
ATOM     14  C   LIG d   1       3.283  81.638 109.364  0.00  0.00     0.210 C 
ATOM     15  C   LIG d   1       3.954  82.272 108.142  0.00  0.00     0.109 C 
ATOM     16  O   LIG d   1       3.971  81.131 110.262  0.00  0.00    -0.276 OA
ATOM     17  H   LIG d   1       1.474  82.058 108.564  0.00  0.00     0.149 HD
ENDBRANCH   6  13
BRANCH   5  18
ATOM     18  N   LIG d   1       0.626  78.902 109.325  0.00  0.00     0.381 N 
ATOM     19  H   LIG d   1      -0.092  78.223 109.169  0.00  0.00    -0.090 HD
ATOM     20  H   LIG d   1       1.297  78.511 109.962  0.00  0.00    -0.090 HD
ATOM     21  H   LIG d   1       1.070  79.131 108.463  0.00  0.00    -0.090 HD
ENDBRANCH   5  18
BRANCH   3  22
ATOM     22  C   LIG d   1      -2.565  80.576 112.480  0.00  0.00     0.382 C 
ATOM     23  O   LIG d   1      -2.939  79.431 112.829  0.00  0.00    -0.241 OA
ATOM     24  O   LIG d   1      -3.317  81.551 112.666  0.00  0.00    -0.241 OA
ENDBRANCH   3  22
TORSDOF 7
ENDMDL
MODEL 3
REMARK VINA RESULT:      -6.1      2.588      4.375
REMARK  7 active torsions:
REMARK  status: ('A' for Active; 'I' for Inactive)
REMARK    1  A    between atoms: C_2  and  C_3 
REMARK    2  A    between atoms: C_3  and  O_6 
REMARK    3  A    between atoms: C_3  and  C_4 
REMARK    4  A    between atoms: C_7  and  O_6 
REMARK    5  A    between atoms: C_9  and  C_10 
REMARK    6  A    between atoms: N_15  and  C_14 
REMARK    7  A    between atoms: N_20  and  C_19 
REMARK       I    between atoms: C_22  and  N_20 
ROOT
ATOM      1  C   LIG d   1       3.026  83.000 110.680  0.00  0.00     0.161 C 
ATOM      2  C   LIG d   1       2.656  82.107 109.660  0.00  0.00     0.016 C 
ATOM      3  C   LIG d   1       1.736  81.050 109.848  0.00  0.00     0.038 C 
ATOM      4  C   LIG d   1       1.005  80.905 111.036  0.00  0.00     0.028 C 
ATOM      5  C   LIG d   1       1.717  81.475 112.258  0.00  0.00    -0.047 C 
ATOM      6  C   LIG d   1       2.156  82.925 111.952  0.00  0.00     0.091 C 
ENDROOT
BRANCH   1   7
ATOM      7  O   LIG d   1       3.049  84.346 110.167  0.00  0.00    -0.368 OA
BRANCH   7   8
ATOM      8  C   LIG d   1       1.895  85.166 110.475  0.00  0.00     0.119 C 
BRANCH   8   9
ATOM      9  C   LIG d   1       1.070  85.309 109.182  0.00  0.00     0.028 C 
ATOM     10  C   LIG d   1      -0.397  85.677 109.460  0.00  0.00     0.006 C 
ENDBRANCH   8   9
BRANCH   8  11
ATOM     11  C   LIG d   1       2.309  86.591 110.852  0.00  0.00     0.028 C 
ATOM     12  C   LIG d   1       3.672  86.649 111.559  0.00  0.00     0.006 C 
ENDBRANCH   8  11
ENDBRANCH   7   8
ENDBRANCH   1   7
BRANCH   6  13
ATOM     13  N   LIG d   1       2.933  83.529 113.065  0.00  0.00    -0.311 N 
ATOM     14  C   LIG d   1       2.381  84.254 114.037  0.00  0.00     0.210 C 
ATOM     15  C   LIG d   1       3.366  84.801 115.075  0.00  0.00     0.109 C 
ATOM     16  O   LIG d   1       1.166  84.470 114.154  0.00  0.00    -0.276 OA
ATOM     17  H   LIG d   1       3.923  83.378 113.065  0.00  0.00     0.149 HD
ENDBRANCH   6  13
BRANCH   5  18
ATOM     18  N   LIG d   1       0.787  81.382 113.400  0.00  0.00     0.381 N 
ATOM     19  H   LIG d   1       0.472  80.438 113.504  0.00  0.00    -0.090 HD
ATOM     20  H   LIG d   1      -0.013  81.962 113.216  0.00  0.00    -0.090 HD
ATOM     21  H   LIG d   1       1.240  81.682 114.234  0.00  0.00    -0.090 HD
ENDBRANCH   5  18
BRANCH   3  22
ATOM     22  C   LIG d   1       1.570  80.099 108.852  0.00  0.00     0.382 C 
ATOM     23  O   LIG d   1       0.498  80.054 108.202  0.00  0.00    -0.241 OA
ATOM     24  O   LIG d   1       2.461  79.259 108.626  0.00  0.00    -0.241 OA
ENDBRANCH   3  22
TORSDOF 7
ENDMDL
MODEL 4
REMARK VINA RESULT:      -6.0      2.828      5.806
REMARK  7 active torsions:
REMARK  status: ('A' for Active; 'I' for Inactive)
REMARK    1  A    between atoms: C_2  and  C_3 
REMARK    2  A    between atoms: C_3  and  O_6 
REMARK    3  A    between atoms: C_3  and  C_4 
REMARK    4  A    between atoms: C_7  and  O_6 
REMARK    5  A    between atoms: C_9  and  C_10 
REMARK    6  A    between atoms: N_15  and  C_14 
REMARK    7  A    between atoms: N_20  and  C_19 
REMARK       I    between atoms: C_22  and  N_20 
ROOT
ATOM      1  C   LIG d   1       2.468  83.089 111.545  0.00  0.00     0.161 C 
ATOM      2  C   LIG d   1       1.675  81.930 111.505  0.00  0.00     0.016 C 
ATOM      3  C   LIG d   1       0.307  81.911 111.861  0.00  0.00     0.038 C 
ATOM      4  C   LIG d   1      -0.403  83.088 112.139  0.00  0.00     0.028 C 
ATOM      5  C   LIG d   1       0.474  84.211 112.682  0.00  0.00    -0.047 C 
ATOM      6  C   LIG d   1       1.684  84.404 111.739  0.00  0.00     0.091 C 
ENDROOT
BRANCH   1   7
ATOM      7  O   LIG d   1       3.285  83.164 110.360  0.00  0.00    -0.368 OA
BRANCH   7   8
ATOM      8  C   LIG d   1       3.002  82.186 109.328  0.00  0.00     0.119 C 
BRANCH   8   9
ATOM      9  C   LIG d   1       4.337  81.518 108.945  0.00  0.00     0.028 C 
ATOM     10  C   LIG d   1       4.273  79.984 109.038  0.00  0.00     0.006 C 
ENDBRANCH   8   9
BRANCH   8  11
ATOM     11  C   LIG d   1       2.502  82.858 108.046  0.00  0.00     0.028 C 
ATOM     12  C   LIG d   1       1.400  83.897 108.308  0.00  0.00     0.006 C 
ENDBRANCH   8  11
ENDBRANCH   7   8
ENDBRANCH   1   7
BRANCH   6  13
ATOM     13  N   LIG d   1       2.637  85.427 112.241  0.00  0.00    -0.311 N 
ATOM     14  C   LIG d   1       2.877  86.577 111.613  0.00  0.00     0.210 C 
ATOM     15  C   LIG d   1       3.910  87.481 112.291  0.00  0.00     0.109 C 
ATOM     16  O   LIG d   1       2.307  86.948 110.576  0.00  0.00    -0.276 OA
ATOM     17  H   LIG d   1       3.120  85.221 113.094  0.00  0.00     0.149 HD
ENDBRANCH   6  13
BRANCH   5  18
ATOM     18  N   LIG d   1      -0.367  85.418 112.797  0.00  0.00     0.381 N 
ATOM     19  H   LIG d   1       0.124  86.126 113.306  0.00  0.00    -0.090 HD
ATOM     20  H   LIG d   1      -1.201  85.185 113.306  0.00  0.00    -0.090 HD
ATOM     21  H   LIG d   1      -0.606  85.755 111.890  0.00  0.00    -0.090 HD
ENDBRANCH   5  18
BRANCH   3  22
ATOM     22  C   LIG d   1      -0.354  80.698 111.981  0.00  0.00     0.382 C 
ATOM     23  O   LIG d   1      -0.839  80.146 110.965  0.00  0.00    -0.241 OA
ATOM     24  O   LIG d   1      -0.511  80.172 113.099  0.00  0.00    -0.241 OA
ENDBRANCH   3  22
TORSDOF 7
ENDMDL
MODEL 5
REMARK VINA RESULT:      -5.8      2.768      5.190
REMARK  7 active torsions:
REMARK  status: ('A' for Active; 'I' for Inactive)
REMARK    1  A    between atoms: C_2  and  C_3 
REMARK    2  A    between atoms: C_3  and  O_6 
REMARK    3  A    between atoms: C_3  and  C_4 
REMARK    4  A    between atoms: C_7  and  O_6 
REMARK    5  A    between atoms: C_9  and  C_10 
REMARK    6  A    between atoms: N_15  and  C_14 
REMARK    7  A    between atoms: N_20  and  C_19 
REMARK       I    between atoms: C_22  and  N_20 
ROOT
ATOM      1  C   LIG d   1       0.896  82.260 111.489  0.00  0.00     0.161 C 
ATOM      2  C   LIG d   1       0.548  83.149 110.459  0.00  0.00     0.016 C 
ATOM      3  C   LIG d   1       0.430  84.546 110.642  0.00  0.00     0.038 C 
ATOM      4  C   LIG d   1       0.802  85.170 111.843  0.00  0.00     0.028 C 
ATOM      5  C   LIG d   1       0.675  84.263 113.062  0.00  0.00    -0.047 C 
ATOM      6  C   LIG d   1       1.413  82.934 112.778  0.00  0.00     0.091 C 
ENDROOT
BRANCH   1   7
ATOM      7  O   LIG d   1       1.857  81.302 111.005  0.00  0.00    -0.368 OA
BRANCH   7   8
ATOM      8  C   LIG d   1       2.166  81.368 109.591  0.00  0.00     0.119 C 
BRANCH   8   9
ATOM      9  C   LIG d   1       1.802  80.004 108.973  0.00  0.00     0.028 C 
ATOM     10  C   LIG d   1       0.308  79.899 108.623  0.00  0.00     0.006 C 
ENDBRANCH   8   9
BRANCH   8  11
ATOM     11  C   LIG d   1       3.671  81.531 109.356  0.00  0.00     0.028 C 
ATOM     12  C   LIG d   1       4.227  82.838 109.942  0.00  0.00     0.006 C 
ENDBRANCH   8  11
ENDBRANCH   7   8
ENDBRANCH   1   7
BRANCH   6  13
ATOM     13  N   LIG d   1       1.266  81.956 113.887  0.00  0.00    -0.311 N 
ATOM     14  C   LIG d   1       2.168  81.807 114.856  0.00  0.00     0.210 C 
ATOM     15  C   LIG d   1       1.831  80.728 115.891  0.00  0.00     0.109 C 
ATOM     16  O   LIG d   1       3.198  82.487 114.975  0.00  0.00    -0.276 OA
ATOM     17  H   LIG d   1       0.445  81.384 113.885  0.00  0.00     0.149 HD
ENDBRANCH   6  13
BRANCH   5  18
ATOM     18  N   LIG d   1       1.223  84.993 114.220  0.00  0.00     0.381 N 
ATOM     19  H   LIG d   1       1.375  84.359 114.979  0.00  0.00    -0.090 HD
ATOM     20  H   LIG d   1       0.556  85.683 114.515  0.00  0.00    -0.090 HD
ATOM     21  H   LIG d   1       2.080  85.435 113.970  0.00  0.00    -0.090 HD
ENDBRANCH   5  18
BRANCH   3  22
ATOM     22  C   LIG d   1      -0.102  85.330 109.630  0.00  0.00     0.382 C 
ATOM     23  O   LIG d   1       0.546  85.512 108.571  0.00  0.00    -0.241 OA
ATOM     24  O   LIG d   1      -1.203  85.893 109.780  0.00  0.00    -0.241 OA
ENDBRANCH   3  22
TORSDOF 7
ENDMDL
MODEL 6
REMARK VINA RESULT:      -5.8      3.676      5.540
REMARK  7 active torsions:
REMARK  status: ('A' for Active; 'I' for Inactive)
REMARK    1  A    between atoms: C_2  and  C_3 
REMARK    2  A    between atoms: C_3  and  O_6 
REMARK    3  A    between atoms: C_3  and  C_4 
REMARK    4  A    between atoms: C_7  and  O_6 
REMARK    5  A    between atoms: C_9  and  C_10 
REMARK    6  A    between atoms: N_15  and  C_14 
REMARK    7  A    between atoms: N_20  and  C_19 
REMARK       I    between atoms: C_22  and  N_20 
ROOT
ATOM      1  C   LIG d   1       3.557  84.962 111.938  0.00  0.00     0.161 C 
ATOM      2  C   LIG d   1       3.598  86.148 112.689  0.00  0.00     0.016 C 
ATOM      3  C   LIG d   1       2.788  87.273 112.411  0.00  0.00     0.038 C 
ATOM      4  C   LIG d   1       1.766  87.232 111.451  0.00  0.00     0.028 C 
ATOM      5  C   LIG d   1       2.027  86.229 110.332  0.00  0.00    -0.047 C 
ATOM      6  C   LIG d   1       2.371  84.858 110.957  0.00  0.00     0.091 C 
ENDROOT
BRANCH   1   7
ATOM      7  O   LIG d   1       3.576  83.823 112.823  0.00  0.00    -0.368 OA
BRANCH   7   8
ATOM      8  C   LIG d   1       2.556  83.798 113.851  0.00  0.00     0.119 C 
BRANCH   8   9
ATOM      9  C   LIG d   1       3.226  83.326 115.156  0.00  0.00     0.028 C 
ATOM     10  C   LIG d   1       4.290  84.316 115.661  0.00  0.00     0.006 C 
ENDBRANCH   8   9
BRANCH   8  11
ATOM     11  C   LIG d   1       1.482  82.750 113.545  0.00  0.00     0.028 C 
ATOM     12  C   LIG d   1       2.046  81.508 112.837  0.00  0.00     0.006 C 
ENDBRANCH   8  11
ENDBRANCH   7   8
ENDBRANCH   1   7
BRANCH   6  13
ATOM     13  N   LIG d   1       2.722  83.840 109.932  0.00  0.00    -0.311 N 
ATOM     14  C   LIG d   1       1.846  82.970 109.433  0.00  0.00     0.210 C 
ATOM     15  C   LIG d   1       2.421  81.994 108.402  0.00  0.00     0.109 C 
ATOM     16  O   LIG d   1       0.641  82.935 109.722  0.00  0.00    -0.276 OA
ATOM     17  H   LIG d   1       3.673  83.819 109.618  0.00  0.00     0.149 HD
ENDBRANCH   6  13
BRANCH   5  18
ATOM     18  N   LIG d   1       0.824  86.191 109.479  0.00  0.00     0.381 N 
ATOM     19  H   LIG d   1       1.063  86.453 108.544  0.00  0.00    -0.090 HD
ATOM     20  H   LIG d   1       0.155  86.852 109.831  0.00  0.00    -0.090 HD
ATOM     21  H   LIG d   1       0.431  85.275 109.484  0.00  0.00    -0.090 HD
ENDBRANCH   5  18
BRANCH   3  22
ATOM     22  C   LIG d   1       3.023  88.469 113.072  0.00  0.00     0.382 C 
ATOM     23  O   LIG d   1       2.420  88.723 114.143  0.00  0.00    -0.241 OA
ATOM     24  O   LIG d   1       3.796  89.317 112.588  0.00  0.00    -0.241 OA
ENDBRANCH   3  22
TORSDOF 7
ENDMDL
MODEL 7
REMARK VINA RESULT:      -5.5      3.075      4.881
REMARK  7 active torsions:
REMARK  status: ('A' for Active; 'I' for Inactive)
REMARK    1  A    between atoms: C_2  and  C_3 
REMARK    2  A    between atoms: C_3  and  O_6 
REMARK    3  A    between atoms: C_3  and  C_4 
REMARK    4  A    between atoms: C_7  and  O_6 
REMARK    5  A    between atoms: C_9  and  C_10 
REMARK    6  A    between atoms: N_15  and  C_14 
REMARK    7  A    between atoms: N_20  and  C_19 
REMARK       I    between atoms: C_22  and  N_20 
ROOT
ATOM      1  C   LIG d   1       3.280  84.027 111.598  0.00  0.00     0.161 C 
ATOM      2  C   LIG d   1       2.639  85.240 111.896  0.00  0.00     0.016 C 
ATOM      3  C   LIG d   1       1.596  85.784 111.111  0.00  0.00     0.038 C 
ATOM      4  C   LIG d   1       1.018  85.070 110.050  0.00  0.00     0.028 C 
ATOM      5  C   LIG d   1       1.969  84.068 109.405  0.00  0.00    -0.047 C 
ATOM      6  C   LIG d   1       2.588  83.181 110.509  0.00  0.00     0.091 C 
ENDROOT
BRANCH   1   7
ATOM      7  O   LIG d   1       3.448  83.253 112.802  0.00  0.00    -0.368 OA
BRANCH   7   8
ATOM      8  C   LIG d   1       2.265  83.089 113.623  0.00  0.00     0.119 C 
BRANCH   8   9
ATOM      9  C   LIG d   1       2.638  83.504 115.060  0.00  0.00     0.028 C 
ATOM     10  C   LIG d   1       3.983  84.248 115.125  0.00  0.00     0.006 C 
ENDBRANCH   8   9
BRANCH   8  11
ATOM     11  C   LIG d   1       1.855  81.616 113.720  0.00  0.00     0.028 C 
ATOM     12  C   LIG d   1       2.045  81.036 115.131  0.00  0.00     0.006 C 
ENDBRANCH   8  11
ENDBRANCH   7   8
ENDBRANCH   1   7
BRANCH   6  13
ATOM     13  N   LIG d   1       3.595  82.228 109.972  0.00  0.00    -0.311 N 
ATOM     14  C   LIG d   1       3.302  80.981 109.608  0.00  0.00     0.210 C 
ATOM     15  C   LIG d   1       4.492  80.160 109.100  0.00  0.00     0.109 C 
ATOM     16  O   LIG d   1       2.165  80.486 109.627  0.00  0.00    -0.276 OA
ATOM     17  H   LIG d   1       4.537  82.556 109.893  0.00  0.00     0.149 HD
ENDBRANCH   6  13
BRANCH   5  18
ATOM     18  N   LIG d   1       1.198  83.300 108.409  0.00  0.00     0.381 N 
ATOM     19  H   LIG d   1       0.472  82.785 108.867  0.00  0.00    -0.090 HD
ATOM     20  H   LIG d   1       1.812  82.645 107.957  0.00  0.00    -0.090 HD
ATOM     21  H   LIG d   1       0.803  83.916 107.734  0.00  0.00    -0.090 HD
ENDBRANCH   5  18
BRANCH   3  22
ATOM     22  C   LIG d   1       1.149  87.072 111.359  0.00  0.00     0.382 C 
ATOM     23  O   LIG d   1      -0.074  87.340 111.267  0.00  0.00    -0.241 OA
ATOM     24  O   LIG d   1       1.957  87.980 111.631  0.00  0.00    -0.241 OA
ENDBRANCH   3  22
TORSDOF 7
ENDMDL
MODEL 8
REMARK VINA RESULT:      -5.1      1.922      4.771
REMARK  7 active torsions:
REMARK  status: ('A' for Active; 'I' for Inactive)
REMARK    1  A    between atoms: C_2  and  C_3 
REMARK    2  A    between atoms: C_3  and  O_6 
REMARK    3  A    between atoms: C_3  and  C_4 
REMARK    4  A    between atoms: C_7  and  O_6 
REMARK    5  A    between atoms: C_9  and  C_10 
REMARK    6  A    between atoms: N_15  and  C_14 
REMARK    7  A    between atoms: N_20  and  C_19 
REMARK       I    between atoms: C_22  and  N_20 
ROOT
ATOM      1  C   LIG d   1       0.728  81.251 111.882  0.00  0.00     0.161 C 
ATOM      2  C   LIG d   1      -0.370  80.468 112.277  0.00  0.00     0.016 C 
ATOM      3  C   LIG d   1      -1.029  79.561 111.415  0.00  0.00     0.038 C 
ATOM      4  C   LIG d   1      -0.537  79.264 110.136  0.00  0.00     0.028 C 
ATOM      5  C   LIG d   1       0.268  80.401 109.516  0.00  0.00    -0.047 C 
ATOM      6  C   LIG d   1       1.347  80.858 110.524  0.00  0.00     0.091 C 
ENDROOT
BRANCH   1   7
ATOM      7  O   LIG d   1       1.733  81.238 112.914  0.00  0.00    -0.368 OA
BRANCH   7   8
ATOM      8  C   LIG d   1       2.079  82.525 113.483  0.00  0.00     0.119 C 
BRANCH   8   9
ATOM      9  C   LIG d   1       2.013  82.386 115.017  0.00  0.00     0.028 C 
ATOM     10  C   LIG d   1       2.601  81.054 115.511  0.00  0.00     0.006 C 
ENDBRANCH   8   9
BRANCH   8  11
ATOM     11  C   LIG d   1       1.037  83.590 113.127  0.00  0.00     0.028 C 
ATOM     12  C   LIG d   1       1.644  84.798 112.397  0.00  0.00     0.006 C 
ENDBRANCH   8  11
ENDBRANCH   7   8
ENDBRANCH   1   7
BRANCH   6  13
ATOM     13  N   LIG d   1       2.126  82.024 110.031  0.00  0.00    -0.311 N 
ATOM     14  C   LIG d   1       3.442  82.149 110.194  0.00  0.00     0.210 C 
ATOM     15  C   LIG d   1       4.044  83.438 109.627  0.00  0.00     0.109 C 
ATOM     16  O   LIG d   1       4.172  81.299 110.726  0.00  0.00    -0.276 OA
ATOM     17  H   LIG d   1       1.617  82.746 109.560  0.00  0.00     0.149 HD
ENDBRANCH   6  13
BRANCH   5  18
ATOM     18  N   LIG d   1       0.835  79.906 108.248  0.00  0.00     0.381 N 
ATOM     19  H   LIG d   1       1.831  79.846 108.322  0.00  0.00    -0.090 HD
ATOM     20  H   LIG d   1       0.612  80.558 107.516  0.00  0.00    -0.090 HD
ATOM     21  H   LIG d   1       0.456  79.011 108.031  0.00  0.00    -0.090 HD
ENDBRANCH   5  18
BRANCH   3  22
ATOM     22  C   LIG d   1      -2.218  78.972 111.818  0.00  0.00     0.382 C 
ATOM     23  O   LIG d   1      -2.525  77.830 111.398  0.00  0.00    -0.241 OA
ATOM     24  O   LIG d   1      -3.008  79.585 112.560  0.00  0.00    -0.241 OA
ENDBRANCH   3  22
TORSDOF 7
ENDMDL
MODEL 9
REMARK VINA RESULT:      -5.1      3.566      6.165
REMARK  7 active torsions:
REMARK  status: ('A' for Active; 'I' for Inactive)
REMARK    1  A    between atoms: C_2  and  C_3 
REMARK    2  A    between atoms: C_3  and  O_6 
REMARK    3  A    between atoms: C_3  and  C_4 
REMARK    4  A    between atoms: C_7  and  O_6 
REMARK    5  A    between atoms: C_9  and  C_10 
REMARK    6  A    between atoms: N_15  and  C_14 
REMARK    7  A    between atoms: N_20  and  C_19 
REMARK       I    between atoms: C_22  and  N_20 
ROOT
ATOM      1  C   LIG d   1       1.717  84.032 112.317  0.00  0.00     0.161 C 
ATOM      2  C   LIG d   1       0.599  84.498 111.606  0.00  0.00     0.016 C 
ATOM      3  C   LIG d   1       0.435  85.844 111.207  0.00  0.00     0.038 C 
ATOM      4  C   LIG d   1       1.457  86.793 111.363  0.00  0.00     0.028 C 
ATOM      5  C   LIG d   1       2.396  86.487 112.524  0.00  0.00    -0.047 C 
ATOM      6  C   LIG d   1       2.893  85.029 112.397  0.00  0.00     0.091 C 
ENDROOT
BRANCH   1   7
ATOM      7  O   LIG d   1       2.161  82.778 111.763  0.00  0.00    -0.368 OA
BRANCH   7   8
ATOM      8  C   LIG d   1       1.796  82.526 110.383  0.00  0.00     0.119 C 
BRANCH   8   9
ATOM      9  C   LIG d   1       1.695  80.999 110.203  0.00  0.00     0.028 C 
ATOM     10  C   LIG d   1       0.969  80.608 108.905  0.00  0.00     0.006 C 
ENDBRANCH   8   9
BRANCH   8  11
ATOM     11  C   LIG d   1       2.902  82.974 109.423  0.00  0.00     0.028 C 
ATOM     12  C   LIG d   1       4.268  82.353 109.756  0.00  0.00     0.006 C 
ENDBRANCH   8  11
ENDBRANCH   7   8
ENDBRANCH   1   7
BRANCH   6  13
ATOM     13  N   LIG d   1       3.751  84.621 113.540  0.00  0.00    -0.311 N 
ATOM     14  C   LIG d   1       3.369  84.714 114.813  0.00  0.00     0.210 C 
ATOM     15  C   LIG d   1       4.414  84.257 115.836  0.00  0.00     0.109 C 
ATOM     16  O   LIG d   1       2.253  85.101 115.191  0.00  0.00    -0.276 OA
ATOM     17  H   LIG d   1       4.661  84.266 113.323  0.00  0.00     0.149 HD
ENDBRANCH   6  13
BRANCH   5  18
ATOM     18  N   LIG d   1       3.490  87.476 112.485  0.00  0.00     0.381 N 
ATOM     19  H   LIG d   1       3.194  88.325 112.924  0.00  0.00    -0.090 HD
ATOM     20  H   LIG d   1       3.712  87.677 111.526  0.00  0.00    -0.090 HD
ATOM     21  H   LIG d   1       4.293  87.115 112.951  0.00  0.00    -0.090 HD
ENDBRANCH   5  18
BRANCH   3  22
ATOM     22  C   LIG d   1      -0.778  86.263 110.682  0.00  0.00     0.382 C 
ATOM     23  O   LIG d   1      -1.160  85.834 109.567  0.00  0.00    -0.241 OA
ATOM     24  O   LIG d   1      -1.475  87.098 111.290  0.00  0.00    -0.241 OA
ENDBRANCH   3  22
TORSDOF 7
ENDMDL
