MODEL 1
REMARK VINA RESULT:      -6.1      0.000      0.000
REMARK  7 active torsions:
REMARK  status: ('A' for Active; 'I' for Inactive)
REMARK    1  A    between atoms: C_2  and  C_3 
REMARK    2  A    between atoms: C_3  and  O_6 
REMARK    3  A    between atoms: C_3  and  C_4 
REMARK    4  A    between atoms: C_7  and  O_6 
REMARK    5  A    between atoms: C_9  and  C_10 
REMARK    6  A    between atoms: N_15  and  C_14 
REMARK    7  A    between atoms: N_20  and  C_19 
REMARK       I    between atoms: C_22  and  N_20 
ROOT
ATOM      1  C   LIG d   1      -6.246  75.124 116.660  0.00  0.00     0.161 C 
ATOM      2  C   LIG d   1      -5.036  74.508 116.303  0.00  0.00     0.016 C 
ATOM      3  C   LIG d   1      -3.775  74.930 116.786  0.00  0.00     0.038 C 
ATOM      4  C   LIG d   1      -3.653  75.909 117.783  0.00  0.00     0.028 C 
ATOM      5  C   LIG d   1      -4.809  76.903 117.800  0.00  0.00    -0.047 C 
ATOM      6  C   LIG d   1      -6.143  76.122 117.833  0.00  0.00     0.091 C 
ENDROOT
BRANCH   1   7
ATOM      7  O   LIG d   1      -7.241  74.121 116.943  0.00  0.00    -0.368 OA
BRANCH   7   8
ATOM      8  C   LIG d   1      -6.744  72.847 117.422  0.00  0.00     0.119 C 
BRANCH   8   9
ATOM      9  C   LIG d   1      -7.288  71.754 116.481  0.00  0.00     0.028 C 
ATOM     10  C   LIG d   1      -8.364  70.885 117.153  0.00  0.00     0.006 C 
ENDBRANCH   8   9
BRANCH   8  11
ATOM     11  C   LIG d   1      -7.310  72.511 118.804  0.00  0.00     0.028 C 
ATOM     12  C   LIG d   1      -7.575  73.760 119.659  0.00  0.00     0.006 C 
ENDBRANCH   8  11
ENDBRANCH   7   8
ENDBRANCH   1   7
BRANCH   6  13
ATOM     13  N   LIG d   1      -7.326  77.018 117.767  0.00  0.00    -0.311 N 
ATOM     14  C   LIG d   1      -7.959  77.478 118.845  0.00  0.00     0.210 C 
ATOM     15  C   LIG d   1      -9.168  78.372 118.553  0.00  0.00     0.109 C 
ATOM     16  O   LIG d   1      -7.615  77.256 120.015  0.00  0.00    -0.276 OA
ATOM     17  H   LIG d   1      -7.654  77.274 116.856  0.00  0.00     0.149 HD
ENDBRANCH   6  13
BRANCH   5  18
ATOM     18  N   LIG d   1      -4.624  77.781 118.971  0.00  0.00     0.381 N 
ATOM     19  H   LIG d   1      -4.118  78.601 118.704  0.00  0.00    -0.090 HD
ATOM     20  H   LIG d   1      -4.086  77.290 119.664  0.00  0.00    -0.090 HD
ATOM     21  H   LIG d   1      -5.510  78.037 119.349  0.00  0.00    -0.090 HD
ENDBRANCH   5  18
BRANCH   3  22
ATOM     22  C   LIG d   1      -2.617  74.398 116.240  0.00  0.00     0.382 C 
ATOM     23  O   LIG d   1      -1.816  73.761 116.966  0.00  0.00    -0.241 OA
ATOM     24  O   LIG d   1      -2.341  74.583 115.039  0.00  0.00    -0.241 OA
ENDBRANCH   3  22
TORSDOF 7
ENDMDL
MODEL 2
REMARK VINA RESULT:      -5.8      3.333      4.919
REMARK  7 active torsions:
REMARK  status: ('A' for Active; 'I' for Inactive)
REMARK    1  A    between atoms: C_2  and  C_3 
REMARK    2  A    between atoms: C_3  and  O_6 
REMARK    3  A    between atoms: C_3  and  C_4 
REMARK    4  A    between atoms: C_7  and  O_6 
REMARK    5  A    between atoms: C_9  and  C_10 
REMARK    6  A    between atoms: N_15  and  C_14 
REMARK    7  A    between atoms: N_20  and  C_19 
REMARK       I    between atoms: C_22  and  N_20 
ROOT
ATOM      1  C   LIG d   1      -2.989  75.031 115.787  0.00  0.00     0.161 C 
ATOM      2  C   LIG d   1      -2.394  74.418 116.902  0.00  0.00     0.016 C 
ATOM      3  C   LIG d   1      -1.132  74.796 117.416  0.00  0.00     0.038 C 
ATOM      4  C   LIG d   1      -0.443  75.921 116.939  0.00  0.00     0.028 C 
ATOM      5  C   LIG d   1      -0.768  76.259 115.488  0.00  0.00    -0.047 C 
ATOM      6  C   LIG d   1      -2.303  76.333 115.322  0.00  0.00     0.091 C 
ENDROOT
BRANCH   1   7
ATOM      7  O   LIG d   1      -4.387  75.267 116.047  0.00  0.00    -0.368 OA
BRANCH   7   8
ATOM      8  C   LIG d   1      -5.322  74.500 115.249  0.00  0.00     0.119 C 
BRANCH   8   9
ATOM      9  C   LIG d   1      -6.504  75.426 114.904  0.00  0.00     0.028 C 
ATOM     10  C   LIG d   1      -6.372  76.050 113.504  0.00  0.00     0.006 C 
ENDBRANCH   8   9
BRANCH   8  11
ATOM     11  C   LIG d   1      -5.930  73.349 116.055  0.00  0.00     0.028 C 
ATOM     12  C   LIG d   1      -7.192  73.765 116.828  0.00  0.00     0.006 C 
ENDBRANCH   8  11
ENDBRANCH   7   8
ENDBRANCH   1   7
BRANCH   6  13
ATOM     13  N   LIG d   1      -2.710  76.577 113.913  0.00  0.00    -0.311 N 
ATOM     14  C   LIG d   1      -2.881  77.794 113.400  0.00  0.00     0.210 C 
ATOM     15  C   LIG d   1      -3.321  77.821 111.933  0.00  0.00     0.109 C 
ATOM     16  O   LIG d   1      -2.679  78.854 114.011  0.00  0.00    -0.276 OA
ATOM     17  H   LIG d   1      -2.865  75.773 113.337  0.00  0.00     0.149 HD
ENDBRANCH   6  13
BRANCH   5  18
ATOM     18  N   LIG d   1      -0.090  77.529 115.164  0.00  0.00     0.381 N 
ATOM     19  H   LIG d   1      -0.545  77.967 114.388  0.00  0.00    -0.090 HD
ATOM     20  H   LIG d   1       0.860  77.332 114.902  0.00  0.00    -0.090 HD
ATOM     21  H   LIG d   1      -0.106  78.135 115.954  0.00  0.00    -0.090 HD
ENDBRANCH   5  18
BRANCH   3  22
ATOM     22  C   LIG d   1      -0.528  74.019 118.394  0.00  0.00     0.382 C 
ATOM     23  O   LIG d   1       0.380  74.507 119.109  0.00  0.00    -0.241 OA
ATOM     24  O   LIG d   1      -0.849  72.825 118.540  0.00  0.00    -0.241 OA
ENDBRANCH   3  22
TORSDOF 7
ENDMDL
MODEL 3
REMARK VINA RESULT:      -5.7     15.363     18.292
REMARK  7 active torsions:
REMARK  status: ('A' for Active; 'I' for Inactive)
REMARK    1  A    between atoms: C_2  and  C_3 
REMARK    2  A    between atoms: C_3  and  O_6 
REMARK    3  A    between atoms: C_3  and  C_4 
REMARK    4  A    between atoms: C_7  and  O_6 
REMARK    5  A    between atoms: C_9  and  C_10 
REMARK    6  A    between atoms: N_15  and  C_14 
REMARK    7  A    between atoms: N_20  and  C_19 
REMARK       I    between atoms: C_22  and  N_20 
ROOT
ATOM      1  C   LIG d   1      -6.232  92.849 117.581  0.00  0.00     0.161 C 
ATOM      2  C   LIG d   1      -6.558  91.633 116.958  0.00  0.00     0.016 C 
ATOM      3  C   LIG d   1      -5.592  90.752 116.419  0.00  0.00     0.038 C 
ATOM      4  C   LIG d   1      -4.217  90.957 116.602  0.00  0.00     0.028 C 
ATOM      5  C   LIG d   1      -3.842  92.424 116.783  0.00  0.00    -0.047 C 
ATOM      6  C   LIG d   1      -4.732  93.037 117.889  0.00  0.00     0.091 C 
ENDROOT
BRANCH   1   7
ATOM      7  O   LIG d   1      -7.014  93.007 118.781  0.00  0.00    -0.368 OA
BRANCH   7   8
ATOM      8  C   LIG d   1      -8.340  93.565 118.610  0.00  0.00     0.119 C 
BRANCH   8   9
ATOM      9  C   LIG d   1      -8.173  94.999 118.071  0.00  0.00     0.028 C 
ATOM     10  C   LIG d   1      -7.635  95.968 119.137  0.00  0.00     0.006 C 
ENDBRANCH   8   9
BRANCH   8  11
ATOM     11  C   LIG d   1      -9.058  93.718 119.954  0.00  0.00     0.028 C 
ATOM     12  C   LIG d   1      -8.359  92.960 121.093  0.00  0.00     0.006 C 
ENDBRANCH   8  11
ENDBRANCH   7   8
ENDBRANCH   1   7
BRANCH   6  13
ATOM     13  N   LIG d   1      -4.489  94.492 118.071  0.00  0.00    -0.311 N 
ATOM     14  C   LIG d   1      -3.635  94.986 118.966  0.00  0.00     0.210 C 
ATOM     15  C   LIG d   1      -3.551  96.515 119.003  0.00  0.00     0.109 C 
ATOM     16  O   LIG d   1      -2.917  94.302 119.710  0.00  0.00    -0.276 OA
ATOM     17  H   LIG d   1      -5.008  95.118 117.486  0.00  0.00     0.149 HD
ENDBRANCH   6  13
BRANCH   5  18
ATOM     18  N   LIG d   1      -2.403  92.481 117.101  0.00  0.00     0.381 N 
ATOM     19  H   LIG d   1      -2.186  91.807 117.807  0.00  0.00    -0.090 HD
ATOM     20  H   LIG d   1      -2.185  93.395 117.459  0.00  0.00    -0.090 HD
ATOM     21  H   LIG d   1      -1.865  92.300 116.282  0.00  0.00    -0.090 HD
ENDBRANCH   5  18
BRANCH   3  22
ATOM     22  C   LIG d   1      -6.000  89.671 115.652  0.00  0.00     0.382 C 
ATOM     23  O   LIG d   1      -7.223  89.463 115.461  0.00  0.00    -0.241 OA
ATOM     24  O   LIG d   1      -5.163  88.875 115.186  0.00  0.00    -0.241 OA
ENDBRANCH   3  22
TORSDOF 7
ENDMDL
MODEL 4
REMARK VINA RESULT:      -5.7     15.061     17.580
REMARK  7 active torsions:
REMARK  status: ('A' for Active; 'I' for Inactive)
REMARK    1  A    between atoms: C_2  and  C_3 
REMARK    2  A    between atoms: C_3  and  O_6 
REMARK    3  A    between atoms: C_3  and  C_4 
REMARK    4  A    between atoms: C_7  and  O_6 
REMARK    5  A    between atoms: C_9  and  C_10 
REMARK    6  A    between atoms: N_15  and  C_14 
REMARK    7  A    between atoms: N_20  and  C_19 
REMARK       I    between atoms: C_22  and  N_20 
ROOT
ATOM      1  C   LIG d   1      -5.072  92.535 116.571  0.00  0.00     0.161 C 
ATOM      2  C   LIG d   1      -6.227  91.908 116.075  0.00  0.00     0.016 C 
ATOM      3  C   LIG d   1      -6.281  90.538 115.729  0.00  0.00     0.038 C 
ATOM      4  C   LIG d   1      -5.220  89.662 116.002  0.00  0.00     0.028 C 
ATOM      5  C   LIG d   1      -3.860  90.350 116.034  0.00  0.00    -0.047 C 
ATOM      6  C   LIG d   1      -3.937  91.571 116.979  0.00  0.00     0.091 C 
ENDROOT
BRANCH   1   7
ATOM      7  O   LIG d   1      -5.418  93.396 117.673  0.00  0.00    -0.368 OA
BRANCH   7   8
ATOM      8  C   LIG d   1      -6.535  92.966 118.491  0.00  0.00     0.119 C 
BRANCH   8   9
ATOM      9  C   LIG d   1      -7.411  94.204 118.765  0.00  0.00     0.028 C 
ATOM     10  C   LIG d   1      -6.971  95.428 117.944  0.00  0.00     0.006 C 
ENDBRANCH   8   9
BRANCH   8  11
ATOM     11  C   LIG d   1      -6.066  92.488 119.868  0.00  0.00     0.028 C 
ATOM     12  C   LIG d   1      -4.708  93.081 120.274  0.00  0.00     0.006 C 
ENDBRANCH   8  11
ENDBRANCH   7   8
ENDBRANCH   1   7
BRANCH   6  13
ATOM     13  N   LIG d   1      -2.672  92.351 117.003  0.00  0.00    -0.311 N 
ATOM     14  C   LIG d   1      -1.693  92.131 117.879  0.00  0.00     0.210 C 
ATOM     15  C   LIG d   1      -0.483  93.061 117.742  0.00  0.00     0.109 C 
ATOM     16  O   LIG d   1      -1.697  91.234 118.735  0.00  0.00    -0.276 OA
ATOM     17  H   LIG d   1      -2.572  93.078 116.323  0.00  0.00     0.149 HD
ENDBRANCH   6  13
BRANCH   5  18
ATOM     18  N   LIG d   1      -2.864  89.350 116.463  0.00  0.00     0.381 N 
ATOM     19  H   LIG d   1      -3.313  88.469 116.616  0.00  0.00    -0.090 HD
ATOM     20  H   LIG d   1      -2.454  89.650 117.330  0.00  0.00    -0.090 HD
ATOM     21  H   LIG d   1      -2.156  89.254 115.769  0.00  0.00    -0.090 HD
ENDBRANCH   5  18
BRANCH   3  22
ATOM     22  C   LIG d   1      -7.393  90.040 115.068  0.00  0.00     0.382 C 
ATOM     23  O   LIG d   1      -7.814  90.609 114.032  0.00  0.00    -0.241 OA
ATOM     24  O   LIG d   1      -8.008  89.054 115.519  0.00  0.00    -0.241 OA
ENDBRANCH   3  22
TORSDOF 7
ENDMDL
MODEL 5
REMARK VINA RESULT:      -5.6     14.657     17.644
REMARK  7 active torsions:
REMARK  status: ('A' for Active; 'I' for Inactive)
REMARK    1  A    between atoms: C_2  and  C_3 
REMARK    2  A    between atoms: C_3  and  O_6 
REMARK    3  A    between atoms: C_3  and  C_4 
REMARK    4  A    between atoms: C_7  and  O_6 
REMARK    5  A    between atoms: C_9  and  C_10 
REMARK    6  A    between atoms: N_15  and  C_14 
REMARK    7  A    between atoms: N_20  and  C_19 
REMARK       I    between atoms: C_22  and  N_20 
ROOT
ATOM      1  C   LIG d   1      -3.549  91.710 117.162  0.00  0.00     0.161 C 
ATOM      2  C   LIG d   1      -4.683  92.475 116.842  0.00  0.00     0.016 C 
ATOM      3  C   LIG d   1      -5.711  92.022 115.984  0.00  0.00     0.038 C 
ATOM      4  C   LIG d   1      -5.748  90.704 115.503  0.00  0.00     0.028 C 
ATOM      5  C   LIG d   1      -4.370  90.061 115.391  0.00  0.00    -0.047 C 
ATOM      6  C   LIG d   1      -3.627  90.229 116.736  0.00  0.00     0.091 C 
ENDROOT
BRANCH   1   7
ATOM      7  O   LIG d   1      -3.273  91.812 118.573  0.00  0.00    -0.368 OA
BRANCH   7   8
ATOM      8  C   LIG d   1      -2.117  92.605 118.940  0.00  0.00     0.119 C 
BRANCH   8   9
ATOM      9  C   LIG d   1      -2.614  93.768 119.820  0.00  0.00     0.028 C 
ATOM     10  C   LIG d   1      -3.165  94.939 118.988  0.00  0.00     0.006 C 
ENDBRANCH   8   9
BRANCH   8  11
ATOM     11  C   LIG d   1      -1.482  93.266 117.714  0.00  0.00     0.028 C 
ATOM     12  C   LIG d   1      -0.038  92.802 117.467  0.00  0.00     0.006 C 
ENDBRANCH   8  11
ENDBRANCH   7   8
ENDBRANCH   1   7
BRANCH   6  13
ATOM     13  N   LIG d   1      -2.238  89.702 116.686  0.00  0.00    -0.311 N 
ATOM     14  C   LIG d   1      -1.852  88.592 117.313  0.00  0.00     0.210 C 
ATOM     15  C   LIG d   1      -0.371  88.237 117.147  0.00  0.00     0.109 C 
ATOM     16  O   LIG d   1      -2.603  87.851 117.964  0.00  0.00    -0.276 OA
ATOM     17  H   LIG d   1      -1.570  90.225 116.154  0.00  0.00     0.149 HD
ENDBRANCH   6  13
BRANCH   5  18
ATOM     18  N   LIG d   1      -4.566  88.650 115.011  0.00  0.00     0.381 N 
ATOM     19  H   LIG d   1      -4.956  88.597 114.091  0.00  0.00    -0.090 HD
ATOM     20  H   LIG d   1      -5.215  88.228 115.653  0.00  0.00    -0.090 HD
ATOM     21  H   LIG d   1      -3.696  88.165 115.040  0.00  0.00    -0.090 HD
ENDBRANCH   5  18
BRANCH   3  22
ATOM     22  C   LIG d   1      -6.696  92.903 115.565  0.00  0.00     0.382 C 
ATOM     23  O   LIG d   1      -7.234  93.680 116.391  0.00  0.00    -0.241 OA
ATOM     24  O   LIG d   1      -7.084  92.901 114.382  0.00  0.00    -0.241 OA
ENDBRANCH   3  22
TORSDOF 7
ENDMDL
MODEL 6
REMARK VINA RESULT:      -5.6      2.983      6.065
REMARK  7 active torsions:
REMARK  status: ('A' for Active; 'I' for Inactive)
REMARK    1  A    between atoms: C_2  and  C_3 
REMARK    2  A    between atoms: C_3  and  O_6 
REMARK    3  A    between atoms: C_3  and  C_4 
REMARK    4  A    between atoms: C_7  and  O_6 
REMARK    5  A    between atoms: C_9  and  C_10 
REMARK    6  A    between atoms: N_15  and  C_14 
REMARK    7  A    between atoms: N_20  and  C_19 
REMARK       I    between atoms: C_22  and  N_20 
ROOT
ATOM      1  C   LIG d   1      -3.544  75.291 116.283  0.00  0.00     0.161 C 
ATOM      2  C   LIG d   1      -4.388  74.296 116.805  0.00  0.00     0.016 C 
ATOM      3  C   LIG d   1      -5.603  73.908 116.196  0.00  0.00     0.038 C 
ATOM      4  C   LIG d   1      -5.986  74.387 114.934  0.00  0.00     0.028 C 
ATOM      5  C   LIG d   1      -5.417  75.764 114.610  0.00  0.00    -0.047 C 
ATOM      6  C   LIG d   1      -3.890  75.745 114.849  0.00  0.00     0.091 C 
ENDROOT
BRANCH   1   7
ATOM      7  O   LIG d   1      -2.172  74.855 116.353  0.00  0.00    -0.368 OA
BRANCH   7   8
ATOM      8  C   LIG d   1      -1.524  74.994 117.641  0.00  0.00     0.119 C 
BRANCH   8   9
ATOM      9  C   LIG d   1      -0.540  76.176 117.538  0.00  0.00     0.028 C 
ATOM     10  C   LIG d   1      -0.022  76.385 116.105  0.00  0.00     0.006 C 
ENDBRANCH   8   9
BRANCH   8  11
ATOM     11  C   LIG d   1      -0.659  73.773 117.964  0.00  0.00     0.028 C 
ATOM     12  C   LIG d   1       0.014  73.868 119.343  0.00  0.00     0.006 C 
ENDBRANCH   8  11
ENDBRANCH   7   8
ENDBRANCH   1   7
BRANCH   6  13
ATOM     13  N   LIG d   1      -3.267  77.077 114.636  0.00  0.00    -0.311 N 
ATOM     14  C   LIG d   1      -2.700  77.446 113.489  0.00  0.00     0.210 C 
ATOM     15  C   LIG d   1      -2.098  78.855 113.489  0.00  0.00     0.109 C 
ATOM     16  O   LIG d   1      -2.666  76.753 112.461  0.00  0.00    -0.276 OA
ATOM     17  H   LIG d   1      -3.277  77.714 115.408  0.00  0.00     0.149 HD
ENDBRANCH   6  13
BRANCH   5  18
ATOM     18  N   LIG d   1      -5.781  76.079 113.216  0.00  0.00     0.381 N 
ATOM     19  H   LIG d   1      -4.956  76.295 112.691  0.00  0.00    -0.090 HD
ATOM     20  H   LIG d   1      -6.378  76.887 113.210  0.00  0.00    -0.090 HD
ATOM     21  H   LIG d   1      -6.253  75.305 112.803  0.00  0.00    -0.090 HD
ENDBRANCH   5  18
BRANCH   3  22
ATOM     22  C   LIG d   1      -6.470  73.062 116.870  0.00  0.00     0.382 C 
ATOM     23  O   LIG d   1      -7.075  73.468 117.892  0.00  0.00    -0.241 OA
ATOM     24  O   LIG d   1      -6.621  71.883 116.496  0.00  0.00    -0.241 OA
ENDBRANCH   3  22
TORSDOF 7
ENDMDL
MODEL 7
REMARK VINA RESULT:      -5.6      2.695      5.110
REMARK  7 active torsions:
REMARK  status: ('A' for Active; 'I' for Inactive)
REMARK    1  A    between atoms: C_2  and  C_3 
REMARK    2  A    between atoms: C_3  and  O_6 
REMARK    3  A    between atoms: C_3  and  C_4 
REMARK    4  A    between atoms: C_7  and  O_6 
REMARK    5  A    between atoms: C_9  and  C_10 
REMARK    6  A    between atoms: N_15  and  C_14 
REMARK    7  A    between atoms: N_20  and  C_19 
REMARK       I    between atoms: C_22  and  N_20 
ROOT
ATOM      1  C   LIG d   1      -3.072  74.498 116.125  0.00  0.00     0.161 C 
ATOM      2  C   LIG d   1      -2.252  75.314 115.327  0.00  0.00     0.016 C 
ATOM      3  C   LIG d   1      -2.752  76.185 114.333  0.00  0.00     0.038 C 
ATOM      4  C   LIG d   1      -4.127  76.414 114.170  0.00  0.00     0.028 C 
ATOM      5  C   LIG d   1      -4.992  75.237 114.609  0.00  0.00    -0.047 C 
ATOM      6  C   LIG d   1      -4.580  74.816 116.038  0.00  0.00     0.091 C 
ENDROOT
BRANCH   1   7
ATOM      7  O   LIG d   1      -2.628  74.549 117.495  0.00  0.00    -0.368 OA
BRANCH   7   8
ATOM      8  C   LIG d   1      -1.229  74.868 117.700  0.00  0.00     0.119 C 
BRANCH   8   9
ATOM      9  C   LIG d   1      -0.564  73.636 118.344  0.00  0.00     0.028 C 
ATOM     10  C   LIG d   1       0.289  74.005 119.570  0.00  0.00     0.006 C 
ENDBRANCH   8   9
BRANCH   8  11
ATOM     11  C   LIG d   1      -1.059  76.000 118.717  0.00  0.00     0.028 C 
ATOM     12  C   LIG d   1      -2.268  76.948 118.762  0.00  0.00     0.006 C 
ENDBRANCH   8  11
ENDBRANCH   7   8
ENDBRANCH   1   7
BRANCH   6  13
ATOM     13  N   LIG d   1      -5.320  73.618 116.511  0.00  0.00    -0.311 N 
ATOM     14  C   LIG d   1      -6.463  73.683 117.191  0.00  0.00     0.210 C 
ATOM     15  C   LIG d   1      -7.050  72.329 117.602  0.00  0.00     0.109 C 
ATOM     16  O   LIG d   1      -7.063  74.733 117.466  0.00  0.00    -0.276 OA
ATOM     17  H   LIG d   1      -4.920  72.723 116.304  0.00  0.00     0.149 HD
ENDBRANCH   6  13
BRANCH   5  18
ATOM     18  N   LIG d   1      -6.402  75.662 114.515  0.00  0.00     0.381 N 
ATOM     19  H   LIG d   1      -6.546  76.173 113.667  0.00  0.00    -0.090 HD
ATOM     20  H   LIG d   1      -6.611  76.268 115.288  0.00  0.00    -0.090 HD
ATOM     21  H   LIG d   1      -7.000  74.865 114.537  0.00  0.00    -0.090 HD
ENDBRANCH   5  18
BRANCH   3  22
ATOM     22  C   LIG d   1      -1.873  76.810 113.461  0.00  0.00     0.382 C 
ATOM     23  O   LIG d   1      -1.026  77.624 113.901  0.00  0.00    -0.241 OA
ATOM     24  O   LIG d   1      -1.945  76.602 112.235  0.00  0.00    -0.241 OA
ENDBRANCH   3  22
TORSDOF 7
ENDMDL
MODEL 8
REMARK VINA RESULT:      -5.4     15.177     17.791
REMARK  7 active torsions:
REMARK  status: ('A' for Active; 'I' for Inactive)
REMARK    1  A    between atoms: C_2  and  C_3 
REMARK    2  A    between atoms: C_3  and  O_6 
REMARK    3  A    between atoms: C_3  and  C_4 
REMARK    4  A    between atoms: C_7  and  O_6 
REMARK    5  A    between atoms: C_9  and  C_10 
REMARK    6  A    between atoms: N_15  and  C_14 
REMARK    7  A    between atoms: N_20  and  C_19 
REMARK       I    between atoms: C_22  and  N_20 
ROOT
ATOM      1  C   LIG d   1      -4.400  91.690 117.302  0.00  0.00     0.161 C 
ATOM      2  C   LIG d   1      -4.978  91.015 116.214  0.00  0.00     0.016 C 
ATOM      3  C   LIG d   1      -6.064  91.529 115.468  0.00  0.00     0.038 C 
ATOM      4  C   LIG d   1      -6.550  92.830 115.667  0.00  0.00     0.028 C 
ATOM      5  C   LIG d   1      -6.330  93.349 117.083  0.00  0.00    -0.047 C 
ATOM      6  C   LIG d   1      -4.844  93.159 117.463  0.00  0.00     0.091 C 
ENDROOT
BRANCH   1   7
ATOM      7  O   LIG d   1      -2.963  91.607 117.220  0.00  0.00    -0.368 OA
BRANCH   7   8
ATOM      8  C   LIG d   1      -2.309  90.832 118.254  0.00  0.00     0.119 C 
BRANCH   8   9
ATOM      9  C   LIG d   1      -1.258  91.742 118.920  0.00  0.00     0.028 C 
ATOM     10  C   LIG d   1      -0.660  92.764 117.938  0.00  0.00     0.006 C 
ENDBRANCH   8   9
BRANCH   8  11
ATOM     11  C   LIG d   1      -1.516  89.665 117.659  0.00  0.00     0.028 C 
ATOM     12  C   LIG d   1      -2.394  88.441 117.357  0.00  0.00     0.006 C 
ENDBRANCH   8  11
ENDBRANCH   7   8
ENDBRANCH   1   7
BRANCH   6  13
ATOM     13  N   LIG d   1      -4.560  93.564 118.864  0.00  0.00    -0.311 N 
ATOM     14  C   LIG d   1      -3.726  94.550 119.188  0.00  0.00     0.210 C 
ATOM     15  C   LIG d   1      -3.561  94.791 120.691  0.00  0.00     0.109 C 
ATOM     16  O   LIG d   1      -3.131  95.270 118.371  0.00  0.00    -0.276 OA
ATOM     17  H   LIG d   1      -5.024  93.053 119.589  0.00  0.00     0.149 HD
ENDBRANCH   6  13
BRANCH   5  18
ATOM     18  N   LIG d   1      -6.758  94.761 117.112  0.00  0.00     0.381 N 
ATOM     19  H   LIG d   1      -7.322  94.960 116.310  0.00  0.00    -0.090 HD
ATOM     20  H   LIG d   1      -5.944  95.348 117.079  0.00  0.00    -0.090 HD
ATOM     21  H   LIG d   1      -7.275  94.943 117.944  0.00  0.00    -0.090 HD
ENDBRANCH   5  18
BRANCH   3  22
ATOM     22  C   LIG d   1      -6.701  90.722 114.538  0.00  0.00     0.382 C 
ATOM     23  O   LIG d   1      -6.472  89.489 114.515  0.00  0.00    -0.241 OA
ATOM     24  O   LIG d   1      -7.469  91.219 113.692  0.00  0.00    -0.241 OA
ENDBRANCH   3  22
TORSDOF 7
ENDMDL
MODEL 9
REMARK VINA RESULT:      -5.4     15.271     17.902
REMARK  7 active torsions:
REMARK  status: ('A' for Active; 'I' for Inactive)
REMARK    1  A    between atoms: C_2  and  C_3 
REMARK    2  A    between atoms: C_3  and  O_6 
REMARK    3  A    between atoms: C_3  and  C_4 
REMARK    4  A    between atoms: C_7  and  O_6 
REMARK    5  A    between atoms: C_9  and  C_10 
REMARK    6  A    between atoms: N_15  and  C_14 
REMARK    7  A    between atoms: N_20  and  C_19 
REMARK       I    between atoms: C_22  and  N_20 
ROOT
ATOM      1  C   LIG d   1      -3.892  91.998 117.570  0.00  0.00     0.161 C 
ATOM      2  C   LIG d   1      -4.093  91.001 116.602  0.00  0.00     0.016 C 
ATOM      3  C   LIG d   1      -5.363  90.674 116.073  0.00  0.00     0.038 C 
ATOM      4  C   LIG d   1      -6.506  91.431 116.370  0.00  0.00     0.028 C 
ATOM      5  C   LIG d   1      -6.439  92.124 117.726  0.00  0.00    -0.047 C 
ATOM      6  C   LIG d   1      -5.111  92.909 117.823  0.00  0.00     0.091 C 
ENDROOT
BRANCH   1   7
ATOM      7  O   LIG d   1      -2.738  92.790 117.224  0.00  0.00    -0.368 OA
BRANCH   7   8
ATOM      8  C   LIG d   1      -1.462  92.302 117.707  0.00  0.00     0.119 C 
BRANCH   8   9
ATOM      9  C   LIG d   1      -1.419  92.546 119.228  0.00  0.00     0.028 C 
ATOM     10  C   LIG d   1      -1.319  91.237 120.030  0.00  0.00     0.006 C 
ENDBRANCH   8   9
BRANCH   8  11
ATOM     11  C   LIG d   1      -0.300  93.117 117.132  0.00  0.00     0.028 C 
ATOM     12  C   LIG d   1       1.074  92.521 117.478  0.00  0.00     0.006 C 
ENDBRANCH   8  11
ENDBRANCH   7   8
ENDBRANCH   1   7
BRANCH   6  13
ATOM     13  N   LIG d   1      -4.927  93.549 119.152  0.00  0.00    -0.311 N 
ATOM     14  C   LIG d   1      -5.251  94.815 119.408  0.00  0.00     0.210 C 
ATOM     15  C   LIG d   1      -4.960  95.281 120.838  0.00  0.00     0.109 C 
ATOM     16  O   LIG d   1      -5.781  95.588 118.595  0.00  0.00    -0.276 OA
ATOM     17  H   LIG d   1      -4.531  92.985 119.879  0.00  0.00     0.149 HD
ENDBRANCH   6  13
BRANCH   5  18
ATOM     18  N   LIG d   1      -7.630  92.986 117.846  0.00  0.00     0.381 N 
ATOM     19  H   LIG d   1      -7.375  93.863 118.255  0.00  0.00    -0.090 HD
ATOM     20  H   LIG d   1      -8.296  92.538 118.451  0.00  0.00    -0.090 HD
ATOM     21  H   LIG d   1      -8.035  93.135 116.948  0.00  0.00    -0.090 HD
ENDBRANCH   5  18
BRANCH   3  22
ATOM     22  C   LIG d   1      -5.505  89.554 115.269  0.00  0.00     0.382 C 
ATOM     23  O   LIG d   1      -6.519  89.430 114.540  0.00  0.00    -0.241 OA
ATOM     24  O   LIG d   1      -4.654  88.645 115.296  0.00  0.00    -0.241 OA
ENDBRANCH   3  22
TORSDOF 7
ENDMDL
