MODEL 1
REMARK VINA RESULT:      -6.7      0.000      0.000
REMARK  7 active torsions:
REMARK  status: ('A' for Active; 'I' for Inactive)
REMARK    1  A    between atoms: C_2  and  C_3 
REMARK    2  A    between atoms: C_3  and  O_6 
REMARK    3  A    between atoms: C_3  and  C_4 
REMARK    4  A    between atoms: C_7  and  O_6 
REMARK    5  A    between atoms: C_9  and  C_10 
REMARK    6  A    between atoms: N_15  and  C_14 
REMARK    7  A    between atoms: N_20  and  C_19 
REMARK       I    between atoms: C_22  and  N_20 
ROOT
ATOM      1  C   LIG d   1       1.107  81.639 111.883  0.00  0.00     0.161 C 
ATOM      2  C   LIG d   1       2.194  82.202 111.193  0.00  0.00     0.016 C 
ATOM      3  C   LIG d   1       2.360  82.108 109.792  0.00  0.00     0.038 C 
ATOM      4  C   LIG d   1       1.365  81.570 108.962  0.00  0.00     0.028 C 
ATOM      5  C   LIG d   1       0.485  80.539 109.662  0.00  0.00    -0.047 C 
ATOM      6  C   LIG d   1      -0.044  81.144 110.982  0.00  0.00     0.091 C 
ENDROOT
BRANCH   1   7
ATOM      7  O   LIG d   1       0.612  82.574 112.861  0.00  0.00    -0.368 OA
BRANCH   7   8
ATOM      8  C   LIG d   1       0.904  83.971 112.613  0.00  0.00     0.119 C 
BRANCH   8   9
ATOM      9  C   LIG d   1       1.280  84.612 113.963  0.00  0.00     0.028 C 
ATOM     10  C   LIG d   1       0.867  86.092 114.045  0.00  0.00     0.006 C 
ENDBRANCH   8   9
BRANCH   8  11
ATOM     11  C   LIG d   1      -0.341  84.725 112.138  0.00  0.00     0.028 C 
ATOM     12  C   LIG d   1      -0.396  84.881 110.610  0.00  0.00     0.006 C 
ENDBRANCH   8  11
ENDBRANCH   7   8
ENDBRANCH   1   7
BRANCH   6  13
ATOM     13  N   LIG d   1      -0.846  80.172 111.770  0.00  0.00    -0.311 N 
ATOM     14  C   LIG d   1      -1.967  80.496 112.412  0.00  0.00     0.210 C 
ATOM     15  C   LIG d   1      -2.627  79.347 113.181  0.00  0.00     0.109 C 
ATOM     16  O   LIG d   1      -2.495  81.618 112.390  0.00  0.00    -0.276 OA
ATOM     17  H   LIG d   1      -0.506  79.231 111.815  0.00  0.00     0.149 HD
ENDBRANCH   6  13
BRANCH   5  18
ATOM     18  N   LIG d   1      -0.591  80.164 108.726  0.00  0.00     0.381 N 
ATOM     19  H   LIG d   1      -0.632  79.168 108.638  0.00  0.00    -0.090 HD
ATOM     20  H   LIG d   1      -0.386  80.552 107.822  0.00  0.00    -0.090 HD
ATOM     21  H   LIG d   1      -1.465  80.512 109.054  0.00  0.00    -0.090 HD
ENDBRANCH   5  18
BRANCH   3  22
ATOM     22  C   LIG d   1       3.550  82.520 109.212  0.00  0.00     0.382 C 
ATOM     23  O   LIG d   1       3.734  82.364 107.981  0.00  0.00    -0.241 OA
ATOM     24  O   LIG d   1       4.460  83.004 109.912  0.00  0.00    -0.241 OA
ENDBRANCH   3  22
TORSDOF 7
ENDMDL
MODEL 2
REMARK VINA RESULT:      -6.5      1.772      4.914
REMARK  7 active torsions:
REMARK  status: ('A' for Active; 'I' for Inactive)
REMARK    1  A    between atoms: C_2  and  C_3 
REMARK    2  A    between atoms: C_3  and  O_6 
REMARK    3  A    between atoms: C_3  and  C_4 
REMARK    4  A    between atoms: C_7  and  O_6 
REMARK    5  A    between atoms: C_9  and  C_10 
REMARK    6  A    between atoms: N_15  and  C_14 
REMARK    7  A    between atoms: N_20  and  C_19 
REMARK       I    between atoms: C_22  and  N_20 
ROOT
ATOM      1  C   LIG d   1       0.313  82.912 111.422  0.00  0.00     0.161 C 
ATOM      2  C   LIG d   1      -0.833  82.558 112.153  0.00  0.00     0.016 C 
ATOM      3  C   LIG d   1      -1.407  81.266 112.122  0.00  0.00     0.038 C 
ATOM      4  C   LIG d   1      -0.783  80.192 111.471  0.00  0.00     0.028 C 
ATOM      5  C   LIG d   1       0.103  80.623 110.307  0.00  0.00    -0.047 C 
ATOM      6  C   LIG d   1       1.072  81.725 110.794  0.00  0.00     0.091 C 
ENDROOT
BRANCH   1   7
ATOM      7  O   LIG d   1       1.199  83.691 112.250  0.00  0.00    -0.368 OA
BRANCH   7   8
ATOM      8  C   LIG d   1       1.131  85.128 112.079  0.00  0.00     0.119 C 
BRANCH   8   9
ATOM      9  C   LIG d   1       0.698  85.402 110.625  0.00  0.00     0.028 C 
ATOM     10  C   LIG d   1      -0.488  86.377 110.540  0.00  0.00     0.006 C 
ENDBRANCH   8   9
BRANCH   8  11
ATOM     11  C   LIG d   1       2.514  85.772 112.218  0.00  0.00     0.028 C 
ATOM     12  C   LIG d   1       3.508  85.286 111.150  0.00  0.00     0.006 C 
ENDBRANCH   8  11
ENDBRANCH   7   8
ENDBRANCH   1   7
BRANCH   6  13
ATOM     13  N   LIG d   1       1.918  82.262 109.696  0.00  0.00    -0.311 N 
ATOM     14  C   LIG d   1       3.139  81.806 109.421  0.00  0.00     0.210 C 
ATOM     15  C   LIG d   1       3.847  82.513 108.261  0.00  0.00     0.109 C 
ATOM     16  O   LIG d   1       3.690  80.863 110.008  0.00  0.00    -0.276 OA
ATOM     17  H   LIG d   1       1.536  83.008 109.149  0.00  0.00     0.149 HD
ENDBRANCH   6  13
BRANCH   5  18
ATOM     18  N   LIG d   1       0.799  79.421 109.807  0.00  0.00     0.381 N 
ATOM     19  H   LIG d   1       1.642  79.278 110.326  0.00  0.00    -0.090 HD
ATOM     20  H   LIG d   1       1.042  79.563 108.843  0.00  0.00    -0.090 HD
ATOM     21  H   LIG d   1       0.207  78.624 109.894  0.00  0.00    -0.090 HD
ENDBRANCH   5  18
BRANCH   3  22
ATOM     22  C   LIG d   1      -2.642  81.049 112.715  0.00  0.00     0.382 C 
ATOM     23  O   LIG d   1      -2.908  79.930 113.217  0.00  0.00    -0.241 OA
ATOM     24  O   LIG d   1      -3.509  81.943 112.715  0.00  0.00    -0.241 OA
ENDBRANCH   3  22
TORSDOF 7
ENDMDL
MODEL 3
REMARK VINA RESULT:      -6.2      2.777      5.899
REMARK  7 active torsions:
REMARK  status: ('A' for Active; 'I' for Inactive)
REMARK    1  A    between atoms: C_2  and  C_3 
REMARK    2  A    between atoms: C_3  and  O_6 
REMARK    3  A    between atoms: C_3  and  C_4 
REMARK    4  A    between atoms: C_7  and  O_6 
REMARK    5  A    between atoms: C_9  and  C_10 
REMARK    6  A    between atoms: N_15  and  C_14 
REMARK    7  A    between atoms: N_20  and  C_19 
REMARK       I    between atoms: C_22  and  N_20 
ROOT
ATOM      1  C   LIG d   1       1.949  83.038 111.950  0.00  0.00     0.161 C 
ATOM      2  C   LIG d   1       0.878  82.130 111.930  0.00  0.00     0.016 C 
ATOM      3  C   LIG d   1      -0.463  82.503 112.177  0.00  0.00     0.038 C 
ATOM      4  C   LIG d   1      -0.847  83.845 112.314  0.00  0.00     0.028 C 
ATOM      5  C   LIG d   1       0.267  84.742 112.843  0.00  0.00    -0.047 C 
ATOM      6  C   LIG d   1       1.536  84.525 111.987  0.00  0.00     0.091 C 
ENDROOT
BRANCH   1   7
ATOM      7  O   LIG d   1       2.822  82.789 110.830  0.00  0.00    -0.368 OA
BRANCH   7   8
ATOM      8  C   LIG d   1       2.226  82.116 109.694  0.00  0.00     0.119 C 
BRANCH   8   9
ATOM      9  C   LIG d   1       3.156  80.950 109.306  0.00  0.00     0.028 C 
ATOM     10  C   LIG d   1       4.292  81.394 108.368  0.00  0.00     0.006 C 
ENDBRANCH   8   9
BRANCH   8  11
ATOM     11  C   LIG d   1       2.183  83.028 108.465  0.00  0.00     0.028 C 
ATOM     12  C   LIG d   1       1.116  84.129 108.576  0.00  0.00     0.006 C 
ENDBRANCH   8  11
ENDBRANCH   7   8
ENDBRANCH   1   7
BRANCH   6  13
ATOM     13  N   LIG d   1       2.699  85.302 112.489  0.00  0.00    -0.311 N 
ATOM     14  C   LIG d   1       2.968  86.549 112.105  0.00  0.00     0.210 C 
ATOM     15  C   LIG d   1       4.227  87.160 112.729  0.00  0.00     0.109 C 
ATOM     16  O   LIG d   1       2.267  87.217 111.331  0.00  0.00    -0.276 OA
ATOM     17  H   LIG d   1       3.303  84.847 113.145  0.00  0.00     0.149 HD
ENDBRANCH   6  13
BRANCH   5  18
ATOM     18  N   LIG d   1      -0.224  86.132 112.805  0.00  0.00     0.381 N 
ATOM     19  H   LIG d   1      -0.007  86.592 113.667  0.00  0.00    -0.090 HD
ATOM     20  H   LIG d   1      -1.223  86.121 112.697  0.00  0.00    -0.090 HD
ATOM     21  H   LIG d   1       0.194  86.622 112.045  0.00  0.00    -0.090 HD
ENDBRANCH   5  18
BRANCH   3  22
ATOM     22  C   LIG d   1      -1.432  81.522 112.330  0.00  0.00     0.382 C 
ATOM     23  O   LIG d   1      -1.118  80.311 112.238  0.00  0.00    -0.241 OA
ATOM     24  O   LIG d   1      -2.623  81.835 112.516  0.00  0.00    -0.241 OA
ENDBRANCH   3  22
TORSDOF 7
ENDMDL
MODEL 4
REMARK VINA RESULT:      -6.0      2.784      4.002
REMARK  7 active torsions:
REMARK  status: ('A' for Active; 'I' for Inactive)
REMARK    1  A    between atoms: C_2  and  C_3 
REMARK    2  A    between atoms: C_3  and  O_6 
REMARK    3  A    between atoms: C_3  and  C_4 
REMARK    4  A    between atoms: C_7  and  O_6 
REMARK    5  A    between atoms: C_9  and  C_10 
REMARK    6  A    between atoms: N_15  and  C_14 
REMARK    7  A    between atoms: N_20  and  C_19 
REMARK       I    between atoms: C_22  and  N_20 
ROOT
ATOM      1  C   LIG d   1       2.808  84.569 111.156  0.00  0.00     0.161 C 
ATOM      2  C   LIG d   1       3.621  83.872 110.247  0.00  0.00     0.016 C 
ATOM      3  C   LIG d   1       3.141  82.844 109.403  0.00  0.00     0.038 C 
ATOM      4  C   LIG d   1       1.774  82.546 109.302  0.00  0.00     0.028 C 
ATOM      5  C   LIG d   1       0.987  82.877 110.565  0.00  0.00    -0.047 C 
ATOM      6  C   LIG d   1       1.293  84.334 110.980  0.00  0.00     0.091 C 
ENDROOT
BRANCH   1   7
ATOM      7  O   LIG d   1       3.107  85.978 111.097  0.00  0.00    -0.368 OA
BRANCH   7   8
ATOM      8  C   LIG d   1       3.511  86.596 112.344  0.00  0.00     0.119 C 
BRANCH   8   9
ATOM      9  C   LIG d   1       4.836  87.338 112.085  0.00  0.00     0.028 C 
ATOM     10  C   LIG d   1       5.092  88.457 113.108  0.00  0.00     0.006 C 
ENDBRANCH   8   9
BRANCH   8  11
ATOM     11  C   LIG d   1       3.837  85.544 113.408  0.00  0.00     0.028 C 
ATOM     12  C   LIG d   1       3.043  85.746 114.709  0.00  0.00     0.006 C 
ENDBRANCH   8  11
ENDBRANCH   7   8
ENDBRANCH   1   7
BRANCH   6  13
ATOM     13  N   LIG d   1       0.629  84.712 112.255  0.00  0.00    -0.311 N 
ATOM     14  C   LIG d   1      -0.151  85.784 112.385  0.00  0.00     0.210 C 
ATOM     15  C   LIG d   1      -0.721  86.002 113.790  0.00  0.00     0.109 C 
ATOM     16  O   LIG d   1      -0.451  86.557 111.462  0.00  0.00    -0.276 OA
ATOM     17  H   LIG d   1       0.793  84.122 113.047  0.00  0.00     0.149 HD
ENDBRANCH   6  13
BRANCH   5  18
ATOM     18  N   LIG d   1      -0.441  82.647 110.274  0.00  0.00     0.381 N 
ATOM     19  H   LIG d   1      -0.998  83.322 110.757  0.00  0.00    -0.090 HD
ATOM     20  H   LIG d   1      -0.696  81.733 110.603  0.00  0.00    -0.090 HD
ATOM     21  H   LIG d   1      -0.603  82.712 109.293  0.00  0.00    -0.090 HD
ENDBRANCH   5  18
BRANCH   3  22
ATOM     22  C   LIG d   1       4.038  82.076 108.677  0.00  0.00     0.382 C 
ATOM     23  O   LIG d   1       5.012  82.622 108.104  0.00  0.00    -0.241 OA
ATOM     24  O   LIG d   1       3.862  80.849 108.552  0.00  0.00    -0.241 OA
ENDBRANCH   3  22
TORSDOF 7
ENDMDL
MODEL 5
REMARK VINA RESULT:      -5.0      2.857      4.265
REMARK  7 active torsions:
REMARK  status: ('A' for Active; 'I' for Inactive)
REMARK    1  A    between atoms: C_2  and  C_3 
REMARK    2  A    between atoms: C_3  and  O_6 
REMARK    3  A    between atoms: C_3  and  C_4 
REMARK    4  A    between atoms: C_7  and  O_6 
REMARK    5  A    between atoms: C_9  and  C_10 
REMARK    6  A    between atoms: N_15  and  C_14 
REMARK    7  A    between atoms: N_20  and  C_19 
REMARK       I    between atoms: C_22  and  N_20 
ROOT
ATOM      1  C   LIG d   1       2.865  84.477 112.407  0.00  0.00     0.161 C 
ATOM      2  C   LIG d   1       3.325  84.074 111.142  0.00  0.00     0.016 C 
ATOM      3  C   LIG d   1       2.787  82.976 110.433  0.00  0.00     0.038 C 
ATOM      4  C   LIG d   1       1.643  82.295 110.876  0.00  0.00     0.028 C 
ATOM      5  C   LIG d   1       1.456  82.345 112.388  0.00  0.00    -0.047 C 
ATOM      6  C   LIG d   1       1.545  83.816 112.856  0.00  0.00     0.091 C 
ENDROOT
BRANCH   1   7
ATOM      7  O   LIG d   1       2.745  85.913 112.448  0.00  0.00    -0.368 OA
BRANCH   7   8
ATOM      8  C   LIG d   1       3.741  86.614 113.231  0.00  0.00     0.119 C 
BRANCH   8   9
ATOM      9  C   LIG d   1       3.001  87.634 114.118  0.00  0.00     0.028 C 
ATOM     10  C   LIG d   1       2.987  87.222 115.600  0.00  0.00     0.006 C 
ENDBRANCH   8   9
BRANCH   8  11
ATOM     11  C   LIG d   1       4.666  87.448 112.340  0.00  0.00     0.028 C 
ATOM     12  C   LIG d   1       5.419  88.539 113.118  0.00  0.00     0.006 C 
ENDBRANCH   8  11
ENDBRANCH   7   8
ENDBRANCH   1   7
BRANCH   6  13
ATOM     13  N   LIG d   1       1.456  83.947 114.334  0.00  0.00    -0.311 N 
ATOM     14  C   LIG d   1       2.392  83.496 115.167  0.00  0.00     0.210 C 
ATOM     15  C   LIG d   1       2.095  83.716 116.654  0.00  0.00     0.109 C 
ATOM     16  O   LIG d   1       3.456  82.964 114.815  0.00  0.00    -0.276 OA
ATOM     17  H   LIG d   1       0.641  84.394 114.704  0.00  0.00     0.149 HD
ENDBRANCH   6  13
BRANCH   5  18
ATOM     18  N   LIG d   1       0.158  81.717 112.698  0.00  0.00     0.381 N 
ATOM     19  H   LIG d   1      -0.530  82.019 112.038  0.00  0.00    -0.090 HD
ATOM     20  H   LIG d   1      -0.134  82.009 113.614  0.00  0.00    -0.090 HD
ATOM     21  H   LIG d   1       0.244  80.725 112.670  0.00  0.00    -0.090 HD
ENDBRANCH   5  18
BRANCH   3  22
ATOM     22  C   LIG d   1       3.420  82.523 109.285  0.00  0.00     0.382 C 
ATOM     23  O   LIG d   1       2.876  81.643 108.575  0.00  0.00    -0.241 OA
ATOM     24  O   LIG d   1       4.547  82.951 108.974  0.00  0.00    -0.241 OA
ENDBRANCH   3  22
TORSDOF 7
ENDMDL
MODEL 6
REMARK VINA RESULT:      -4.8      5.543      8.079
REMARK  7 active torsions:
REMARK  status: ('A' for Active; 'I' for Inactive)
REMARK    1  A    between atoms: C_2  and  C_3 
REMARK    2  A    between atoms: C_3  and  O_6 
REMARK    3  A    between atoms: C_3  and  C_4 
REMARK    4  A    between atoms: C_7  and  O_6 
REMARK    5  A    between atoms: C_9  and  C_10 
REMARK    6  A    between atoms: N_15  and  C_14 
REMARK    7  A    between atoms: N_20  and  C_19 
REMARK       I    between atoms: C_22  and  N_20 
ROOT
ATOM      1  C   LIG d   1       2.941  87.476 114.758  0.00  0.00     0.161 C 
ATOM      2  C   LIG d   1       2.394  86.853 113.623  0.00  0.00     0.016 C 
ATOM      3  C   LIG d   1       3.046  86.810 112.369  0.00  0.00     0.038 C 
ATOM      4  C   LIG d   1       4.365  87.258 112.204  0.00  0.00     0.028 C 
ATOM      5  C   LIG d   1       4.764  88.347 113.193  0.00  0.00    -0.047 C 
ATOM      6  C   LIG d   1       4.426  87.872 114.625  0.00  0.00     0.091 C 
ENDROOT
BRANCH   1   7
ATOM      7  O   LIG d   1       2.747  86.639 115.915  0.00  0.00    -0.368 OA
BRANCH   7   8
ATOM      8  C   LIG d   1       3.484  85.392 115.930  0.00  0.00     0.119 C 
BRANCH   8   9
ATOM      9  C   LIG d   1       2.457  84.249 116.052  0.00  0.00     0.028 C 
ATOM     10  C   LIG d   1       2.406  83.369 114.793  0.00  0.00     0.006 C 
ENDBRANCH   8   9
BRANCH   8  11
ATOM     11  C   LIG d   1       4.365  85.280 117.178  0.00  0.00     0.028 C 
ATOM     12  C   LIG d   1       5.858  85.144 116.843  0.00  0.00     0.006 C 
ENDBRANCH   8  11
ENDBRANCH   7   8
ENDBRANCH   1   7
BRANCH   6  13
ATOM     13  N   LIG d   1       4.707  88.913 115.648  0.00  0.00    -0.311 N 
ATOM     14  C   LIG d   1       4.247  90.161 115.570  0.00  0.00     0.210 C 
ATOM     15  C   LIG d   1       4.671  91.079 116.721  0.00  0.00     0.109 C 
ATOM     16  O   LIG d   1       3.502  90.585 114.675  0.00  0.00    -0.276 OA
ATOM     17  H   LIG d   1       5.278  88.646 116.426  0.00  0.00     0.149 HD
ENDBRANCH   6  13
BRANCH   5  18
ATOM     18  N   LIG d   1       6.200  88.622 112.999  0.00  0.00     0.381 N 
ATOM     19  H   LIG d   1       6.406  88.672 112.021  0.00  0.00    -0.090 HD
ATOM     20  H   LIG d   1       6.732  87.868 113.395  0.00  0.00    -0.090 HD
ATOM     21  H   LIG d   1       6.446  89.480 113.441  0.00  0.00    -0.090 HD
ENDBRANCH   5  18
BRANCH   3  22
ATOM     22  C   LIG d   1       2.362  86.349 111.255  0.00  0.00     0.382 C 
ATOM     23  O   LIG d   1       2.649  85.233 110.759  0.00  0.00    -0.241 OA
ATOM     24  O   LIG d   1       1.491  87.055 110.712  0.00  0.00    -0.241 OA
ENDBRANCH   3  22
TORSDOF 7
ENDMDL
MODEL 7
REMARK VINA RESULT:      -4.7     28.941     30.970
REMARK  7 active torsions:
REMARK  status: ('A' for Active; 'I' for Inactive)
REMARK    1  A    between atoms: C_2  and  C_3 
REMARK    2  A    between atoms: C_3  and  O_6 
REMARK    3  A    between atoms: C_3  and  C_4 
REMARK    4  A    between atoms: C_7  and  O_6 
REMARK    5  A    between atoms: C_9  and  C_10 
REMARK    6  A    between atoms: N_15  and  C_14 
REMARK    7  A    between atoms: N_20  and  C_19 
REMARK       I    between atoms: C_22  and  N_20 
ROOT
ATOM      1  C   LIG d   1     -13.961  54.076 112.313  0.00  0.00     0.161 C 
ATOM      2  C   LIG d   1     -13.679  54.148 110.939  0.00  0.00     0.016 C 
ATOM      3  C   LIG d   1     -14.303  55.066 110.064  0.00  0.00     0.038 C 
ATOM      4  C   LIG d   1     -15.147  56.083 110.535  0.00  0.00     0.028 C 
ATOM      5  C   LIG d   1     -15.850  55.730 111.841  0.00  0.00    -0.047 C 
ATOM      6  C   LIG d   1     -14.796  55.250 112.865  0.00  0.00     0.091 C 
ENDROOT
BRANCH   1   7
ATOM      7  O   LIG d   1     -12.733  53.940 113.057  0.00  0.00    -0.368 OA
BRANCH   7   8
ATOM      8  C   LIG d   1     -11.598  54.686 112.555  0.00  0.00     0.119 C 
BRANCH   8   9
ATOM      9  C   LIG d   1     -10.369  53.759 112.621  0.00  0.00     0.028 C 
ATOM     10  C   LIG d   1      -9.433  54.108 113.790  0.00  0.00     0.006 C 
ENDBRANCH   8   9
BRANCH   8  11
ATOM     11  C   LIG d   1     -11.262  55.871 113.465  0.00  0.00     0.028 C 
ATOM     12  C   LIG d   1     -11.730  57.217 112.890  0.00  0.00     0.006 C 
ENDBRANCH   8  11
ENDBRANCH   7   8
ENDBRANCH   1   7
BRANCH   6  13
ATOM     13  N   LIG d   1     -15.408  54.805 114.144  0.00  0.00    -0.311 N 
ATOM     14  C   LIG d   1     -14.980  55.204 115.340  0.00  0.00     0.210 C 
ATOM     15  C   LIG d   1     -15.740  54.609 116.530  0.00  0.00     0.109 C 
ATOM     16  O   LIG d   1     -14.065  56.019 115.528  0.00  0.00    -0.276 OA
ATOM     17  H   LIG d   1     -16.178  54.167 114.083  0.00  0.00     0.149 HD
ENDBRANCH   6  13
BRANCH   5  18
ATOM     18  N   LIG d   1     -16.587  56.927 112.289  0.00  0.00     0.381 N 
ATOM     19  H   LIG d   1     -16.728  56.888 113.278  0.00  0.00    -0.090 HD
ATOM     20  H   LIG d   1     -17.487  56.940 111.842  0.00  0.00    -0.090 HD
ATOM     21  H   LIG d   1     -16.078  57.750 112.051  0.00  0.00    -0.090 HD
ENDBRANCH   5  18
BRANCH   3  22
ATOM     22  C   LIG d   1     -14.116  54.947 108.695  0.00  0.00     0.382 C 
ATOM     23  O   LIG d   1     -12.974  54.700 108.238  0.00  0.00    -0.241 OA
ATOM     24  O   LIG d   1     -15.065  55.128 107.910  0.00  0.00    -0.241 OA
ENDBRANCH   3  22
TORSDOF 7
ENDMDL
MODEL 8
REMARK VINA RESULT:      -4.6     12.214     14.308
REMARK  7 active torsions:
REMARK  status: ('A' for Active; 'I' for Inactive)
REMARK    1  A    between atoms: C_2  and  C_3 
REMARK    2  A    between atoms: C_3  and  O_6 
REMARK    3  A    between atoms: C_3  and  C_4 
REMARK    4  A    between atoms: C_7  and  O_6 
REMARK    5  A    between atoms: C_9  and  C_10 
REMARK    6  A    between atoms: N_15  and  C_14 
REMARK    7  A    between atoms: N_20  and  C_19 
REMARK       I    between atoms: C_22  and  N_20 
ROOT
ATOM      1  C   LIG d   1      13.554  78.391 111.699  0.00  0.00     0.161 C 
ATOM      2  C   LIG d   1      13.379  77.817 110.429  0.00  0.00     0.016 C 
ATOM      3  C   LIG d   1      14.454  77.407 109.607  0.00  0.00     0.038 C 
ATOM      4  C   LIG d   1      15.780  77.405 110.065  0.00  0.00     0.028 C 
ATOM      5  C   LIG d   1      16.048  78.445 111.147  0.00  0.00    -0.047 C 
ATOM      6  C   LIG d   1      14.987  78.295 112.261  0.00  0.00     0.091 C 
ENDROOT
BRANCH   1   7
ATOM      7  O   LIG d   1      12.612  77.819 112.628  0.00  0.00    -0.368 OA
BRANCH   7   8
ATOM      8  C   LIG d   1      11.476  78.648 112.976  0.00  0.00     0.119 C 
BRANCH   8   9
ATOM      9  C   LIG d   1      11.861  80.110 112.677  0.00  0.00     0.028 C 
ATOM     10  C   LIG d   1      10.824  80.820 111.789  0.00  0.00     0.006 C 
ENDBRANCH   8   9
BRANCH   8  11
ATOM     11  C   LIG d   1      11.193  78.603 114.480  0.00  0.00     0.028 C 
ATOM     12  C   LIG d   1      11.539  79.921 115.192  0.00  0.00     0.006 C 
ENDBRANCH   8  11
ENDBRANCH   7   8
ENDBRANCH   1   7
BRANCH   6  13
ATOM     13  N   LIG d   1      15.126  79.329 113.319  0.00  0.00    -0.311 N 
ATOM     14  C   LIG d   1      15.105  79.053 114.622  0.00  0.00     0.210 C 
ATOM     15  C   LIG d   1      15.245  80.270 115.543  0.00  0.00     0.109 C 
ATOM     16  O   LIG d   1      15.017  77.913 115.102  0.00  0.00    -0.276 OA
ATOM     17  H   LIG d   1      15.234  80.278 113.018  0.00  0.00     0.149 HD
ENDBRANCH   6  13
BRANCH   5  18
ATOM     18  N   LIG d   1      17.427  78.241 111.630  0.00  0.00     0.381 N 
ATOM     19  H   LIG d   1      18.007  77.931 110.876  0.00  0.00    -0.090 HD
ATOM     20  H   LIG d   1      17.421  77.526 112.336  0.00  0.00    -0.090 HD
ATOM     21  H   LIG d   1      17.785  79.090 112.008  0.00  0.00    -0.090 HD
ENDBRANCH   5  18
BRANCH   3  22
ATOM     22  C   LIG d   1      14.210  77.030 108.295  0.00  0.00     0.382 C 
ATOM     23  O   LIG d   1      15.110  76.466 107.627  0.00  0.00    -0.241 OA
ATOM     24  O   LIG d   1      13.116  77.286 107.757  0.00  0.00    -0.241 OA
ENDBRANCH   3  22
TORSDOF 7
ENDMDL
MODEL 9
REMARK VINA RESULT:      -4.6     11.173     13.414
REMARK  7 active torsions:
REMARK  status: ('A' for Active; 'I' for Inactive)
REMARK    1  A    between atoms: C_2  and  C_3 
REMARK    2  A    between atoms: C_3  and  O_6 
REMARK    3  A    between atoms: C_3  and  C_4 
REMARK    4  A    between atoms: C_7  and  O_6 
REMARK    5  A    between atoms: C_9  and  C_10 
REMARK    6  A    between atoms: N_15  and  C_14 
REMARK    7  A    between atoms: N_20  and  C_19 
REMARK       I    between atoms: C_22  and  N_20 
ROOT
ATOM      1  C   LIG d   1      11.935  77.698 113.099  0.00  0.00     0.161 C 
ATOM      2  C   LIG d   1      11.476  78.961 112.689  0.00  0.00     0.016 C 
ATOM      3  C   LIG d   1      10.871  79.890 113.566  0.00  0.00     0.038 C 
ATOM      4  C   LIG d   1      10.821  79.679 114.951  0.00  0.00     0.028 C 
ATOM      5  C   LIG d   1      10.816  78.204 115.339  0.00  0.00    -0.047 C 
ATOM      6  C   LIG d   1      11.990  77.494 114.627  0.00  0.00     0.091 C 
ENDROOT
BRANCH   1   7
ATOM      7  O   LIG d   1      13.225  77.433 112.511  0.00  0.00    -0.368 OA
BRANCH   7   8
ATOM      8  C   LIG d   1      13.636  78.326 111.447  0.00  0.00     0.119 C 
BRANCH   8   9
ATOM      9  C   LIG d   1      13.712  77.496 110.151  0.00  0.00     0.028 C 
ATOM     10  C   LIG d   1      15.138  77.433 109.578  0.00  0.00     0.006 C 
ENDBRANCH   8   9
BRANCH   8  11
ATOM     11  C   LIG d   1      15.056  78.851 111.677  0.00  0.00     0.028 C 
ATOM     12  C   LIG d   1      15.122  79.932 112.767  0.00  0.00     0.006 C 
ENDBRANCH   8  11
ENDBRANCH   7   8
ENDBRANCH   1   7
BRANCH   6  13
ATOM     13  N   LIG d   1      12.009  76.031 114.885  0.00  0.00    -0.311 N 
ATOM     14  C   LIG d   1      12.766  75.461 115.822  0.00  0.00     0.210 C 
ATOM     15  C   LIG d   1      12.648  73.936 115.908  0.00  0.00     0.109 C 
ATOM     16  O   LIG d   1      13.499  76.077 116.610  0.00  0.00    -0.276 OA
ATOM     17  H   LIG d   1      11.420  75.459 114.312  0.00  0.00     0.149 HD
ENDBRANCH   6  13
BRANCH   5  18
ATOM     18  N   LIG d   1      10.902  78.129 116.810  0.00  0.00     0.381 N 
ATOM     19  H   LIG d   1      11.064  79.042 117.186  0.00  0.00    -0.090 HD
ATOM     20  H   LIG d   1      11.678  77.542 117.061  0.00  0.00    -0.090 HD
ATOM     21  H   LIG d   1      10.057  77.753 117.182  0.00  0.00    -0.090 HD
ENDBRANCH   5  18
BRANCH   3  22
ATOM     22  C   LIG d   1      10.271  81.030 113.051  0.00  0.00     0.382 C 
ATOM     23  O   LIG d   1      10.390  81.305 111.833  0.00  0.00    -0.241 OA
ATOM     24  O   LIG d   1       9.651  81.809 113.799  0.00  0.00    -0.241 OA
ENDBRANCH   3  22
TORSDOF 7
ENDMDL
