MODEL 1
REMARK VINA RESULT:      -4.6      0.000      0.000
REMARK  7 active torsions:
REMARK  status: ('A' for Active; 'I' for Inactive)
REMARK    1  A    between atoms: C_2  and  C_3 
REMARK    2  A    between atoms: C_3  and  O_6 
REMARK    3  A    between atoms: C_3  and  C_4 
REMARK    4  A    between atoms: C_7  and  O_6 
REMARK    5  A    between atoms: C_9  and  C_10 
REMARK    6  A    between atoms: N_15  and  C_14 
REMARK    7  A    between atoms: N_20  and  C_19 
REMARK       I    between atoms: C_22  and  N_20 
ROOT
ATOM      1  C   LIG d   1      -7.402  82.251 120.524  0.00  0.00     0.161 C 
ATOM      2  C   LIG d   1      -7.994  83.315 121.226  0.00  0.00     0.016 C 
ATOM      3  C   LIG d   1      -9.320  83.753 121.002  0.00  0.00     0.038 C 
ATOM      4  C   LIG d   1     -10.199  83.055 120.160  0.00  0.00     0.028 C 
ATOM      5  C   LIG d   1      -9.491  82.281 119.053  0.00  0.00    -0.047 C 
ATOM      6  C   LIG d   1      -8.382  81.407 119.682  0.00  0.00     0.091 C 
ENDROOT
BRANCH   1   7
ATOM      7  O   LIG d   1      -6.673  81.409 121.438  0.00  0.00    -0.368 OA
BRANCH   7   8
ATOM      8  C   LIG d   1      -5.243  81.633 121.509  0.00  0.00     0.119 C 
BRANCH   8   9
ATOM      9  C   LIG d   1      -4.560  80.532 120.674  0.00  0.00     0.028 C 
ATOM     10  C   LIG d   1      -3.990  81.068 119.350  0.00  0.00     0.006 C 
ENDBRANCH   8   9
BRANCH   8  11
ATOM     11  C   LIG d   1      -4.719  81.444 122.935  0.00  0.00     0.028 C 
ATOM     12  C   LIG d   1      -4.548  82.773 123.688  0.00  0.00     0.006 C 
ENDBRANCH   8  11
ENDBRANCH   7   8
ENDBRANCH   1   7
BRANCH   6  13
ATOM     13  N   LIG d   1      -7.585  80.680 118.660  0.00  0.00    -0.311 N 
ATOM     14  C   LIG d   1      -7.499  79.352 118.605  0.00  0.00     0.210 C 
ATOM     15  C   LIG d   1      -6.608  78.808 117.484  0.00  0.00     0.109 C 
ATOM     16  O   LIG d   1      -8.102  78.573 119.358  0.00  0.00    -0.276 OA
ATOM     17  H   LIG d   1      -7.088  81.235 117.990  0.00  0.00     0.149 HD
ENDBRANCH   6  13
BRANCH   5  18
ATOM     18  N   LIG d   1     -10.513  81.492 118.339  0.00  0.00     0.381 N 
ATOM     19  H   LIG d   1     -10.437  81.652 117.354  0.00  0.00    -0.090 HD
ATOM     20  H   LIG d   1     -11.424  81.792 118.638  0.00  0.00    -0.090 HD
ATOM     21  H   LIG d   1     -10.393  80.522 118.534  0.00  0.00    -0.090 HD
ENDBRANCH   5  18
BRANCH   3  22
ATOM     22  C   LIG d   1      -9.765  84.925 121.593  0.00  0.00     0.382 C 
ATOM     23  O   LIG d   1      -8.951  85.684 122.172  0.00  0.00    -0.241 OA
ATOM     24  O   LIG d   1     -10.978  85.212 121.592  0.00  0.00    -0.241 OA
ENDBRANCH   3  22
TORSDOF 7
ENDMDL
MODEL 2
REMARK VINA RESULT:      -4.5     11.563     13.879
REMARK  7 active torsions:
REMARK  status: ('A' for Active; 'I' for Inactive)
REMARK    1  A    between atoms: C_2  and  C_3 
REMARK    2  A    between atoms: C_3  and  O_6 
REMARK    3  A    between atoms: C_3  and  C_4 
REMARK    4  A    between atoms: C_7  and  O_6 
REMARK    5  A    between atoms: C_9  and  C_10 
REMARK    6  A    between atoms: N_15  and  C_14 
REMARK    7  A    between atoms: N_20  and  C_19 
REMARK       I    between atoms: C_22  and  N_20 
ROOT
ATOM      1  C   LIG d   1     -18.147  72.628 120.919  0.00  0.00     0.161 C 
ATOM      2  C   LIG d   1     -17.496  71.391 120.786  0.00  0.00     0.016 C 
ATOM      3  C   LIG d   1     -16.772  71.013 119.632  0.00  0.00     0.038 C 
ATOM      4  C   LIG d   1     -16.522  71.913 118.586  0.00  0.00     0.028 C 
ATOM      5  C   LIG d   1     -17.584  73.000 118.455  0.00  0.00    -0.047 C 
ATOM      6  C   LIG d   1     -17.792  73.666 119.834  0.00  0.00     0.091 C 
ENDROOT
BRANCH   1   7
ATOM      7  O   LIG d   1     -17.900  73.171 122.232  0.00  0.00    -0.368 OA
BRANCH   7   8
ATOM      8  C   LIG d   1     -16.592  73.757 122.443  0.00  0.00     0.119 C 
BRANCH   8   9
ATOM      9  C   LIG d   1     -15.949  73.032 123.642  0.00  0.00     0.028 C 
ATOM     10  C   LIG d   1     -14.747  72.167 123.228  0.00  0.00     0.006 C 
ENDBRANCH   8   9
BRANCH   8  11
ATOM     11  C   LIG d   1     -16.701  75.224 122.867  0.00  0.00     0.028 C 
ATOM     12  C   LIG d   1     -15.501  76.068 122.407  0.00  0.00     0.006 C 
ENDBRANCH   8  11
ENDBRANCH   7   8
ENDBRANCH   1   7
BRANCH   6  13
ATOM     13  N   LIG d   1     -18.875  74.684 119.814  0.00  0.00    -0.311 N 
ATOM     14  C   LIG d   1     -18.652  75.988 119.665  0.00  0.00     0.210 C 
ATOM     15  C   LIG d   1     -19.907  76.866 119.693  0.00  0.00     0.109 C 
ATOM     16  O   LIG d   1     -17.537  76.499 119.480  0.00  0.00    -0.276 OA
ATOM     17  H   LIG d   1     -19.814  74.354 119.926  0.00  0.00     0.149 HD
ENDBRANCH   6  13
BRANCH   5  18
ATOM     18  N   LIG d   1     -17.128  73.946 117.419  0.00  0.00     0.381 N 
ATOM     19  H   LIG d   1     -16.426  73.514 116.851  0.00  0.00    -0.090 HD
ATOM     20  H   LIG d   1     -16.723  74.748 117.867  0.00  0.00    -0.090 HD
ATOM     21  H   LIG d   1     -17.898  74.226 116.852  0.00  0.00    -0.090 HD
ENDBRANCH   5  18
BRANCH   3  22
ATOM     22  C   LIG d   1     -16.323  69.707 119.499  0.00  0.00     0.382 C 
ATOM     23  O   LIG d   1     -15.422  69.436 118.670  0.00  0.00    -0.241 OA
ATOM     24  O   LIG d   1     -16.840  68.791 120.166  0.00  0.00    -0.241 OA
ENDBRANCH   3  22
TORSDOF 7
ENDMDL
MODEL 3
REMARK VINA RESULT:      -4.4     14.590     16.648
REMARK  7 active torsions:
REMARK  status: ('A' for Active; 'I' for Inactive)
REMARK    1  A    between atoms: C_2  and  C_3 
REMARK    2  A    between atoms: C_3  and  O_6 
REMARK    3  A    between atoms: C_3  and  C_4 
REMARK    4  A    between atoms: C_7  and  O_6 
REMARK    5  A    between atoms: C_9  and  C_10 
REMARK    6  A    between atoms: N_15  and  C_14 
REMARK    7  A    between atoms: N_20  and  C_19 
REMARK       I    between atoms: C_22  and  N_20 
ROOT
ATOM      1  C   LIG d   1     -13.850  67.556 121.238  0.00  0.00     0.161 C 
ATOM      2  C   LIG d   1     -12.667  67.598 121.995  0.00  0.00     0.016 C 
ATOM      3  C   LIG d   1     -11.697  66.570 121.980  0.00  0.00     0.038 C 
ATOM      4  C   LIG d   1     -11.772  65.492 121.086  0.00  0.00     0.028 C 
ATOM      5  C   LIG d   1     -13.198  65.152 120.666  0.00  0.00    -0.047 C 
ATOM      6  C   LIG d   1     -13.896  66.440 120.173  0.00  0.00     0.091 C 
ENDROOT
BRANCH   1   7
ATOM      7  O   LIG d   1     -14.086  68.840 120.628  0.00  0.00    -0.368 OA
BRANCH   7   8
ATOM      8  C   LIG d   1     -15.417  69.389 120.793  0.00  0.00     0.119 C 
BRANCH   8   9
ATOM      9  C   LIG d   1     -15.948  69.744 119.391  0.00  0.00     0.028 C 
ATOM     10  C   LIG d   1     -16.613  71.131 119.350  0.00  0.00     0.006 C 
ENDBRANCH   8   9
BRANCH   8  11
ATOM     11  C   LIG d   1     -15.382  70.714 121.561  0.00  0.00     0.028 C 
ATOM     12  C   LIG d   1     -14.688  70.592 122.927  0.00  0.00     0.006 C 
ENDBRANCH   8  11
ENDBRANCH   7   8
ENDBRANCH   1   7
BRANCH   6  13
ATOM     13  N   LIG d   1     -15.322  66.213 119.821  0.00  0.00    -0.311 N 
ATOM     14  C   LIG d   1     -15.740  65.960 118.582  0.00  0.00     0.210 C 
ATOM     15  C   LIG d   1     -17.254  65.777 118.435  0.00  0.00     0.109 C 
ATOM     16  O   LIG d   1     -14.998  65.838 117.596  0.00  0.00    -0.276 OA
ATOM     17  H   LIG d   1     -15.989  66.263 120.566  0.00  0.00     0.149 HD
ENDBRANCH   6  13
BRANCH   5  18
ATOM     18  N   LIG d   1     -13.120  64.104 119.630  0.00  0.00     0.381 N 
ATOM     19  H   LIG d   1     -13.184  63.201 120.057  0.00  0.00    -0.090 HD
ATOM     20  H   LIG d   1     -12.231  64.171 119.166  0.00  0.00    -0.090 HD
ATOM     21  H   LIG d   1     -13.857  64.221 118.970  0.00  0.00    -0.090 HD
ENDBRANCH   5  18
BRANCH   3  22
ATOM     22  C   LIG d   1     -10.656  66.594 122.896  0.00  0.00     0.382 C 
ATOM     23  O   LIG d   1     -10.498  67.593 123.639  0.00  0.00    -0.241 OA
ATOM     24  O   LIG d   1      -9.847  65.650 122.959  0.00  0.00    -0.241 OA
ENDBRANCH   3  22
TORSDOF 7
ENDMDL
MODEL 4
REMARK VINA RESULT:      -4.3      2.089      2.873
REMARK  7 active torsions:
REMARK  status: ('A' for Active; 'I' for Inactive)
REMARK    1  A    between atoms: C_2  and  C_3 
REMARK    2  A    between atoms: C_3  and  O_6 
REMARK    3  A    between atoms: C_3  and  C_4 
REMARK    4  A    between atoms: C_7  and  O_6 
REMARK    5  A    between atoms: C_9  and  C_10 
REMARK    6  A    between atoms: N_15  and  C_14 
REMARK    7  A    between atoms: N_20  and  C_19 
REMARK       I    between atoms: C_22  and  N_20 
ROOT
ATOM      1  C   LIG d   1      -8.160  80.419 120.532  0.00  0.00     0.161 C 
ATOM      2  C   LIG d   1      -9.061  81.208 121.266  0.00  0.00     0.016 C 
ATOM      3  C   LIG d   1      -9.795  82.278 120.704  0.00  0.00     0.038 C 
ATOM      4  C   LIG d   1      -9.789  82.538 119.326  0.00  0.00     0.028 C 
ATOM      5  C   LIG d   1      -8.508  82.090 118.631  0.00  0.00    -0.047 C 
ATOM      6  C   LIG d   1      -8.224  80.617 119.003  0.00  0.00     0.091 C 
ENDROOT
BRANCH   1   7
ATOM      7  O   LIG d   1      -8.343  79.029 120.866  0.00  0.00    -0.368 OA
BRANCH   7   8
ATOM      8  C   LIG d   1      -7.336  78.442 121.726  0.00  0.00     0.119 C 
BRANCH   8   9
ATOM      9  C   LIG d   1      -6.104  79.367 121.695  0.00  0.00     0.028 C 
ATOM     10  C   LIG d   1      -4.865  78.675 121.103  0.00  0.00     0.006 C 
ENDBRANCH   8   9
BRANCH   8  11
ATOM     11  C   LIG d   1      -6.848  77.098 121.176  0.00  0.00     0.028 C 
ATOM     12  C   LIG d   1      -7.240  75.911 122.069  0.00  0.00     0.006 C 
ENDBRANCH   8  11
ENDBRANCH   7   8
ENDBRANCH   1   7
BRANCH   6  13
ATOM     13  N   LIG d   1      -6.943  80.125 118.432  0.00  0.00    -0.311 N 
ATOM     14  C   LIG d   1      -6.811  78.937 117.843  0.00  0.00     0.210 C 
ATOM     15  C   LIG d   1      -5.400  78.618 117.341  0.00  0.00     0.109 C 
ATOM     16  O   LIG d   1      -7.736  78.132 117.660  0.00  0.00    -0.276 OA
ATOM     17  H   LIG d   1      -6.147  80.728 118.510  0.00  0.00     0.149 HD
ENDBRANCH   6  13
BRANCH   5  18
ATOM     18  N   LIG d   1      -8.692  82.294 117.181  0.00  0.00     0.381 N 
ATOM     19  H   LIG d   1      -9.602  82.672 117.006  0.00  0.00    -0.090 HD
ATOM     20  H   LIG d   1      -8.625  81.406 116.717  0.00  0.00    -0.090 HD
ATOM     21  H   LIG d   1      -7.994  82.913 116.833  0.00  0.00    -0.090 HD
ENDBRANCH   5  18
BRANCH   3  22
ATOM     22  C   LIG d   1     -10.514  83.127 121.532  0.00  0.00     0.382 C 
ATOM     23  O   LIG d   1     -10.596  84.349 121.258  0.00  0.00    -0.241 OA
ATOM     24  O   LIG d   1     -11.045  82.695 122.572  0.00  0.00    -0.241 OA
ENDBRANCH   3  22
TORSDOF 7
ENDMDL
MODEL 5
REMARK VINA RESULT:      -4.3     13.745     16.342
REMARK  7 active torsions:
REMARK  status: ('A' for Active; 'I' for Inactive)
REMARK    1  A    between atoms: C_2  and  C_3 
REMARK    2  A    between atoms: C_3  and  O_6 
REMARK    3  A    between atoms: C_3  and  C_4 
REMARK    4  A    between atoms: C_7  and  O_6 
REMARK    5  A    between atoms: C_9  and  C_10 
REMARK    6  A    between atoms: N_15  and  C_14 
REMARK    7  A    between atoms: N_20  and  C_19 
REMARK       I    between atoms: C_22  and  N_20 
ROOT
ATOM      1  C   LIG d   1     -13.038  67.616 121.798  0.00  0.00     0.161 C 
ATOM      2  C   LIG d   1     -11.844  67.217 122.422  0.00  0.00     0.016 C 
ATOM      3  C   LIG d   1     -11.179  66.004 122.128  0.00  0.00     0.038 C 
ATOM      4  C   LIG d   1     -11.585  65.174 121.073  0.00  0.00     0.028 C 
ATOM      5  C   LIG d   1     -13.072  65.284 120.752  0.00  0.00    -0.047 C 
ATOM      6  C   LIG d   1     -13.435  66.775 120.566  0.00  0.00     0.091 C 
ENDROOT
BRANCH   1   7
ATOM      7  O   LIG d   1     -12.964  69.012 121.449  0.00  0.00    -0.368 OA
BRANCH   7   8
ATOM      8  C   LIG d   1     -13.771  69.912 122.248  0.00  0.00     0.119 C 
BRANCH   8   9
ATOM      9  C   LIG d   1     -12.830  70.615 123.245  0.00  0.00     0.028 C 
ATOM     10  C   LIG d   1     -13.312  72.030 123.610  0.00  0.00     0.006 C 
ENDBRANCH   8   9
BRANCH   8  11
ATOM     11  C   LIG d   1     -14.775  69.143 123.111  0.00  0.00     0.028 C 
ATOM     12  C   LIG d   1     -16.235  69.444 122.738  0.00  0.00     0.006 C 
ENDBRANCH   8  11
ENDBRANCH   7   8
ENDBRANCH   1   7
BRANCH   6  13
ATOM     13  N   LIG d   1     -14.889  66.980 120.332  0.00  0.00    -0.311 N 
ATOM     14  C   LIG d   1     -15.373  67.799 119.401  0.00  0.00     0.210 C 
ATOM     15  C   LIG d   1     -16.902  67.878 119.340  0.00  0.00     0.109 C 
ATOM     16  O   LIG d   1     -14.682  68.444 118.597  0.00  0.00    -0.276 OA
ATOM     17  H   LIG d   1     -15.521  66.472 120.919  0.00  0.00     0.149 HD
ENDBRANCH   6  13
BRANCH   5  18
ATOM     18  N   LIG d   1     -13.330  64.472 119.548  0.00  0.00     0.381 N 
ATOM     19  H   LIG d   1     -12.722  64.762 118.808  0.00  0.00    -0.090 HD
ATOM     20  H   LIG d   1     -14.279  64.620 119.253  0.00  0.00    -0.090 HD
ATOM     21  H   LIG d   1     -13.183  63.508 119.750  0.00  0.00    -0.090 HD
ENDBRANCH   5  18
BRANCH   3  22
ATOM     22  C   LIG d   1     -10.118  65.593 122.920  0.00  0.00     0.382 C 
ATOM     23  O   LIG d   1      -9.575  66.401 123.711  0.00  0.00    -0.241 OA
ATOM     24  O   LIG d   1      -9.668  64.436 122.821  0.00  0.00    -0.241 OA
ENDBRANCH   3  22
TORSDOF 7
ENDMDL
MODEL 6
REMARK VINA RESULT:      -4.3      3.156      4.256
REMARK  7 active torsions:
REMARK  status: ('A' for Active; 'I' for Inactive)
REMARK    1  A    between atoms: C_2  and  C_3 
REMARK    2  A    between atoms: C_3  and  O_6 
REMARK    3  A    between atoms: C_3  and  C_4 
REMARK    4  A    between atoms: C_7  and  O_6 
REMARK    5  A    between atoms: C_9  and  C_10 
REMARK    6  A    between atoms: N_15  and  C_14 
REMARK    7  A    between atoms: N_20  and  C_19 
REMARK       I    between atoms: C_22  and  N_20 
ROOT
ATOM      1  C   LIG d   1      -6.025  80.843 117.871  0.00  0.00     0.161 C 
ATOM      2  C   LIG d   1      -7.331  81.335 118.030  0.00  0.00     0.016 C 
ATOM      3  C   LIG d   1      -8.471  80.503 118.112  0.00  0.00     0.038 C 
ATOM      4  C   LIG d   1      -8.366  79.106 118.194  0.00  0.00     0.028 C 
ATOM      5  C   LIG d   1      -7.108  78.554 117.531  0.00  0.00    -0.047 C 
ATOM      6  C   LIG d   1      -5.879  79.320 118.070  0.00  0.00     0.091 C 
ENDROOT
BRANCH   1   7
ATOM      7  O   LIG d   1      -5.126  81.551 118.748  0.00  0.00    -0.368 OA
BRANCH   7   8
ATOM      8  C   LIG d   1      -4.940  80.979 120.067  0.00  0.00     0.119 C 
BRANCH   8   9
ATOM      9  C   LIG d   1      -5.787  81.806 121.053  0.00  0.00     0.028 C 
ATOM     10  C   LIG d   1      -6.919  80.981 121.689  0.00  0.00     0.006 C 
ENDBRANCH   8   9
BRANCH   8  11
ATOM     11  C   LIG d   1      -3.493  81.138 120.543  0.00  0.00     0.028 C 
ATOM     12  C   LIG d   1      -2.533  81.535 119.411  0.00  0.00     0.006 C 
ENDBRANCH   8  11
ENDBRANCH   7   8
ENDBRANCH   1   7
BRANCH   6  13
ATOM     13  N   LIG d   1      -4.615  78.899 117.411  0.00  0.00    -0.311 N 
ATOM     14  C   LIG d   1      -3.646  78.235 118.039  0.00  0.00     0.210 C 
ATOM     15  C   LIG d   1      -2.419  77.916 117.180  0.00  0.00     0.109 C 
ATOM     16  O   LIG d   1      -3.701  77.851 119.218  0.00  0.00    -0.276 OA
ATOM     17  H   LIG d   1      -4.501  79.141 116.447  0.00  0.00     0.149 HD
ENDBRANCH   6  13
BRANCH   5  18
ATOM     18  N   LIG d   1      -7.057  77.106 117.810  0.00  0.00     0.381 N 
ATOM     19  H   LIG d   1      -7.526  76.604 117.083  0.00  0.00    -0.090 HD
ATOM     20  H   LIG d   1      -7.533  76.925 118.676  0.00  0.00    -0.090 HD
ATOM     21  H   LIG d   1      -6.109  76.805 117.874  0.00  0.00    -0.090 HD
ENDBRANCH   5  18
BRANCH   3  22
ATOM     22  C   LIG d   1      -9.737  81.067 118.073  0.00  0.00     0.382 C 
ATOM     23  O   LIG d   1     -10.753  80.330 118.104  0.00  0.00    -0.241 OA
ATOM     24  O   LIG d   1      -9.877  82.299 117.962  0.00  0.00    -0.241 OA
ENDBRANCH   3  22
TORSDOF 7
ENDMDL
MODEL 7
REMARK VINA RESULT:      -4.2      2.301      3.912
REMARK  7 active torsions:
REMARK  status: ('A' for Active; 'I' for Inactive)
REMARK    1  A    between atoms: C_2  and  C_3 
REMARK    2  A    between atoms: C_3  and  O_6 
REMARK    3  A    between atoms: C_3  and  C_4 
REMARK    4  A    between atoms: C_7  and  O_6 
REMARK    5  A    between atoms: C_9  and  C_10 
REMARK    6  A    between atoms: N_15  and  C_14 
REMARK    7  A    between atoms: N_20  and  C_19 
REMARK       I    between atoms: C_22  and  N_20 
ROOT
ATOM      1  C   LIG d   1      -8.792  82.448 120.530  0.00  0.00     0.161 C 
ATOM      2  C   LIG d   1      -9.277  83.742 120.783  0.00  0.00     0.016 C 
ATOM      3  C   LIG d   1      -9.307  84.323 122.071  0.00  0.00     0.038 C 
ATOM      4  C   LIG d   1      -8.711  83.703 123.179  0.00  0.00     0.028 C 
ATOM      5  C   LIG d   1      -8.661  82.183 123.068  0.00  0.00    -0.047 C 
ATOM      6  C   LIG d   1      -8.035  81.799 121.708  0.00  0.00     0.091 C 
ENDROOT
BRANCH   1   7
ATOM      7  O   LIG d   1      -7.967  82.458 119.348  0.00  0.00    -0.368 OA
BRANCH   7   8
ATOM      8  C   LIG d   1      -8.485  81.739 118.202  0.00  0.00     0.119 C 
BRANCH   8   9
ATOM      9  C   LIG d   1      -9.840  81.130 118.612  0.00  0.00     0.028 C 
ATOM     10  C   LIG d   1      -9.876  79.603 118.431  0.00  0.00     0.006 C 
ENDBRANCH   8   9
BRANCH   8  11
ATOM     11  C   LIG d   1      -7.596  80.545 117.844  0.00  0.00     0.028 C 
ATOM     12  C   LIG d   1      -6.099  80.891 117.860  0.00  0.00     0.006 C 
ENDBRANCH   8  11
ENDBRANCH   7   8
ENDBRANCH   1   7
BRANCH   6  13
ATOM     13  N   LIG d   1      -8.026  80.330 121.482  0.00  0.00    -0.311 N 
ATOM     14  C   LIG d   1      -6.912  79.623 121.299  0.00  0.00     0.210 C 
ATOM     15  C   LIG d   1      -7.129  78.125 121.063  0.00  0.00     0.109 C 
ATOM     16  O   LIG d   1      -5.764  80.090 121.341  0.00  0.00    -0.276 OA
ATOM     17  H   LIG d   1      -8.913  79.866 121.464  0.00  0.00     0.149 HD
ENDBRANCH   6  13
BRANCH   5  18
ATOM     18  N   LIG d   1      -7.893  81.677 124.221  0.00  0.00     0.381 N 
ATOM     19  H   LIG d   1      -8.469  81.072 124.773  0.00  0.00    -0.090 HD
ATOM     20  H   LIG d   1      -7.615  82.455 124.793  0.00  0.00    -0.090 HD
ATOM     21  H   LIG d   1      -7.088  81.183 123.905  0.00  0.00    -0.090 HD
ENDBRANCH   5  18
BRANCH   3  22
ATOM     22  C   LIG d   1      -9.975  85.522 122.268  0.00  0.00     0.382 C 
ATOM     23  O   LIG d   1     -11.107  85.701 121.756  0.00  0.00    -0.241 OA
ATOM     24  O   LIG d   1      -9.442  86.444 122.914  0.00  0.00    -0.241 OA
ENDBRANCH   3  22
TORSDOF 7
ENDMDL
MODEL 8
REMARK VINA RESULT:      -4.2     10.606     12.266
REMARK  7 active torsions:
REMARK  status: ('A' for Active; 'I' for Inactive)
REMARK    1  A    between atoms: C_2  and  C_3 
REMARK    2  A    between atoms: C_3  and  O_6 
REMARK    3  A    between atoms: C_3  and  C_4 
REMARK    4  A    between atoms: C_7  and  O_6 
REMARK    5  A    between atoms: C_9  and  C_10 
REMARK    6  A    between atoms: N_15  and  C_14 
REMARK    7  A    between atoms: N_20  and  C_19 
REMARK       I    between atoms: C_22  and  N_20 
ROOT
ATOM      1  C   LIG d   1      -4.498  92.618 119.256  0.00  0.00     0.161 C 
ATOM      2  C   LIG d   1      -5.810  92.583 118.754  0.00  0.00     0.016 C 
ATOM      3  C   LIG d   1      -6.664  93.710 118.730  0.00  0.00     0.038 C 
ATOM      4  C   LIG d   1      -6.209  94.993 119.069  0.00  0.00     0.028 C 
ATOM      5  C   LIG d   1      -5.046  94.982 120.057  0.00  0.00    -0.047 C 
ATOM      6  C   LIG d   1      -3.947  94.033 119.527  0.00  0.00     0.091 C 
ENDROOT
BRANCH   1   7
ATOM      7  O   LIG d   1      -3.618  91.898 118.370  0.00  0.00    -0.368 OA
BRANCH   7   8
ATOM      8  C   LIG d   1      -3.470  90.481 118.632  0.00  0.00     0.119 C 
BRANCH   8   9
ATOM      9  C   LIG d   1      -2.338  90.317 119.665  0.00  0.00     0.028 C 
ATOM     10  C   LIG d   1      -2.761  89.456 120.867  0.00  0.00     0.006 C 
ENDBRANCH   8   9
BRANCH   8  11
ATOM     11  C   LIG d   1      -2.992  89.731 117.385  0.00  0.00     0.028 C 
ATOM     12  C   LIG d   1      -1.480  89.458 117.396  0.00  0.00     0.006 C 
ENDBRANCH   8  11
ENDBRANCH   7   8
ENDBRANCH   1   7
BRANCH   6  13
ATOM     13  N   LIG d   1      -2.809  93.899 120.474  0.00  0.00    -0.311 N 
ATOM     14  C   LIG d   1      -1.574  94.312 120.199  0.00  0.00     0.210 C 
ATOM     15  C   LIG d   1      -0.546  94.060 121.306  0.00  0.00     0.109 C 
ATOM     16  O   LIG d   1      -1.238  94.893 119.155  0.00  0.00    -0.276 OA
ATOM     17  H   LIG d   1      -3.000  93.467 121.357  0.00  0.00     0.149 HD
ENDBRANCH   6  13
BRANCH   5  18
ATOM     18  N   LIG d   1      -4.583  96.373 120.215  0.00  0.00     0.381 N 
ATOM     19  H   LIG d   1      -4.405  96.563 121.181  0.00  0.00    -0.090 HD
ATOM     20  H   LIG d   1      -5.307  96.995 119.899  0.00  0.00    -0.090 HD
ATOM     21  H   LIG d   1      -3.754  96.519 119.682  0.00  0.00    -0.090 HD
ENDBRANCH   5  18
BRANCH   3  22
ATOM     22  C   LIG d   1      -8.002  93.552 118.401  0.00  0.00     0.382 C 
ATOM     23  O   LIG d   1      -8.349  93.493 117.197  0.00  0.00    -0.241 OA
ATOM     24  O   LIG d   1      -8.871  93.511 119.293  0.00  0.00    -0.241 OA
ENDBRANCH   3  22
TORSDOF 7
ENDMDL
MODEL 9
REMARK VINA RESULT:      -4.2     10.842     12.434
REMARK  7 active torsions:
REMARK  status: ('A' for Active; 'I' for Inactive)
REMARK    1  A    between atoms: C_2  and  C_3 
REMARK    2  A    between atoms: C_3  and  O_6 
REMARK    3  A    between atoms: C_3  and  C_4 
REMARK    4  A    between atoms: C_7  and  O_6 
REMARK    5  A    between atoms: C_9  and  C_10 
REMARK    6  A    between atoms: N_15  and  C_14 
REMARK    7  A    between atoms: N_20  and  C_19 
REMARK       I    between atoms: C_22  and  N_20 
ROOT
ATOM      1  C   LIG d   1     -18.101  77.341 119.958  0.00  0.00     0.161 C 
ATOM      2  C   LIG d   1     -18.882  78.446 120.338  0.00  0.00     0.016 C 
ATOM      3  C   LIG d   1     -20.294  78.414 120.407  0.00  0.00     0.038 C 
ATOM      4  C   LIG d   1     -21.017  77.223 120.245  0.00  0.00     0.028 C 
ATOM      5  C   LIG d   1     -20.309  76.198 119.366  0.00  0.00    -0.047 C 
ATOM      6  C   LIG d   1     -18.866  76.003 119.886  0.00  0.00     0.091 C 
ENDROOT
BRANCH   1   7
ATOM      7  O   LIG d   1     -16.964  77.222 120.836  0.00  0.00    -0.368 OA
BRANCH   7   8
ATOM      8  C   LIG d   1     -17.201  76.549 122.098  0.00  0.00     0.119 C 
BRANCH   8   9
ATOM      9  C   LIG d   1     -16.972  77.578 123.221  0.00  0.00     0.028 C 
ATOM     10  C   LIG d   1     -18.261  77.898 123.996  0.00  0.00     0.006 C 
ENDBRANCH   8   9
BRANCH   8  11
ATOM     11  C   LIG d   1     -16.168  75.445 122.342  0.00  0.00     0.028 C 
ATOM     12  C   LIG d   1     -14.864  75.974 122.960  0.00  0.00     0.006 C 
ENDBRANCH   8  11
ENDBRANCH   7   8
ENDBRANCH   1   7
BRANCH   6  13
ATOM     13  N   LIG d   1     -18.076  75.079 119.032  0.00  0.00    -0.311 N 
ATOM     14  C   LIG d   1     -17.919  73.784 119.303  0.00  0.00     0.210 C 
ATOM     15  C   LIG d   1     -17.049  73.015 118.303  0.00  0.00     0.109 C 
ATOM     16  O   LIG d   1     -18.443  73.193 120.258  0.00  0.00    -0.276 OA
ATOM     17  H   LIG d   1     -17.641  75.469 118.219  0.00  0.00     0.149 HD
ENDBRANCH   6  13
BRANCH   5  18
ATOM     18  N   LIG d   1     -21.107  74.958 119.395  0.00  0.00     0.381 N 
ATOM     19  H   LIG d   1     -21.406  74.770 120.331  0.00  0.00    -0.090 HD
ATOM     20  H   LIG d   1     -20.531  74.194 119.088  0.00  0.00    -0.090 HD
ATOM     21  H   LIG d   1     -21.899  75.048 118.797  0.00  0.00    -0.090 HD
ENDBRANCH   5  18
BRANCH   3  22
ATOM     22  C   LIG d   1     -20.999  79.592 120.600  0.00  0.00     0.382 C 
ATOM     23  O   LIG d   1     -21.977  79.616 121.386  0.00  0.00    -0.241 OA
ATOM     24  O   LIG d   1     -20.698  80.620 119.965  0.00  0.00    -0.241 OA
ENDBRANCH   3  22
TORSDOF 7
ENDMDL
