MODEL 1
REMARK VINA RESULT:      -6.1      0.000      0.000
REMARK  7 active torsions:
REMARK  status: ('A' for Active; 'I' for Inactive)
REMARK    1  A    between atoms: C_2  and  C_3 
REMARK    2  A    between atoms: C_3  and  O_6 
REMARK    3  A    between atoms: C_3  and  C_4 
REMARK    4  A    between atoms: C_7  and  O_6 
REMARK    5  A    between atoms: C_9  and  C_10 
REMARK    6  A    between atoms: N_15  and  C_14 
REMARK    7  A    between atoms: N_20  and  C_19 
REMARK       I    between atoms: C_22  and  N_20 
ROOT
ATOM      1  C   LIG d   1      -3.952  75.172 116.915  0.00  0.00     0.161 C 
ATOM      2  C   LIG d   1      -4.414  75.498 115.629  0.00  0.00     0.016 C 
ATOM      3  C   LIG d   1      -3.555  75.758 114.537  0.00  0.00     0.038 C 
ATOM      4  C   LIG d   1      -2.168  75.562 114.621  0.00  0.00     0.028 C 
ATOM      5  C   LIG d   1      -1.618  75.724 116.034  0.00  0.00    -0.047 C 
ATOM      6  C   LIG d   1      -2.446  74.845 116.998  0.00  0.00     0.091 C 
ENDROOT
BRANCH   1   7
ATOM      7  O   LIG d   1      -4.731  74.086 117.454  0.00  0.00    -0.368 OA
BRANCH   7   8
ATOM      8  C   LIG d   1      -5.974  73.793 116.770  0.00  0.00     0.119 C 
BRANCH   8   9
ATOM      9  C   LIG d   1      -7.125  74.107 117.745  0.00  0.00     0.028 C 
ATOM     10  C   LIG d   1      -7.634  75.551 117.606  0.00  0.00     0.006 C 
ENDBRANCH   8   9
BRANCH   8  11
ATOM     11  C   LIG d   1      -6.101  72.298 116.461  0.00  0.00     0.028 C 
ATOM     12  C   LIG d   1      -7.554  71.802 116.504  0.00  0.00     0.006 C 
ENDBRANCH   8  11
ENDBRANCH   7   8
ENDBRANCH   1   7
BRANCH   6  13
ATOM     13  N   LIG d   1      -2.028  75.008 118.415  0.00  0.00    -0.311 N 
ATOM     14  C   LIG d   1      -1.081  74.269 118.990  0.00  0.00     0.210 C 
ATOM     15  C   LIG d   1      -0.818  74.588 120.465  0.00  0.00     0.109 C 
ATOM     16  O   LIG d   1      -0.412  73.401 118.410  0.00  0.00    -0.276 OA
ATOM     17  H   LIG d   1      -2.498  75.712 118.951  0.00  0.00     0.149 HD
ENDBRANCH   6  13
BRANCH   5  18
ATOM     18  N   LIG d   1      -0.189  75.357 116.000  0.00  0.00     0.381 N 
ATOM     19  H   LIG d   1       0.362  76.109 116.364  0.00  0.00    -0.090 HD
ATOM     20  H   LIG d   1       0.083  75.198 115.046  0.00  0.00    -0.090 HD
ATOM     21  H   LIG d   1      -0.036  74.533 116.539  0.00  0.00    -0.090 HD
ENDBRANCH   5  18
BRANCH   3  22
ATOM     22  C   LIG d   1      -4.078  76.259 113.355  0.00  0.00     0.382 C 
ATOM     23  O   LIG d   1      -5.212  75.889 112.965  0.00  0.00    -0.241 OA
ATOM     24  O   LIG d   1      -3.413  77.043 112.651  0.00  0.00    -0.241 OA
ENDBRANCH   3  22
TORSDOF 7
ENDMDL
MODEL 2
REMARK VINA RESULT:      -5.4     15.694     17.004
REMARK  7 active torsions:
REMARK  status: ('A' for Active; 'I' for Inactive)
REMARK    1  A    between atoms: C_2  and  C_3 
REMARK    2  A    between atoms: C_3  and  O_6 
REMARK    3  A    between atoms: C_3  and  C_4 
REMARK    4  A    between atoms: C_7  and  O_6 
REMARK    5  A    between atoms: C_9  and  C_10 
REMARK    6  A    between atoms: N_15  and  C_14 
REMARK    7  A    between atoms: N_20  and  C_19 
REMARK       I    between atoms: C_22  and  N_20 
ROOT
ATOM      1  C   LIG d   1      -4.292  90.804 117.687  0.00  0.00     0.161 C 
ATOM      2  C   LIG d   1      -5.201  90.114 116.868  0.00  0.00     0.016 C 
ATOM      3  C   LIG d   1      -6.451  90.643 116.474  0.00  0.00     0.038 C 
ATOM      4  C   LIG d   1      -6.815  91.969 116.751  0.00  0.00     0.028 C 
ATOM      5  C   LIG d   1      -6.148  92.532 118.002  0.00  0.00    -0.047 C 
ATOM      6  C   LIG d   1      -4.624  92.295 117.907  0.00  0.00     0.091 C 
ENDROOT
BRANCH   1   7
ATOM      7  O   LIG d   1      -2.956  90.660 117.165  0.00  0.00    -0.368 OA
BRANCH   7   8
ATOM      8  C   LIG d   1      -2.008  89.976 118.021  0.00  0.00     0.119 C 
BRANCH   8   9
ATOM      9  C   LIG d   1      -0.600  90.231 117.448  0.00  0.00     0.028 C 
ATOM     10  C   LIG d   1       0.313  90.968 118.442  0.00  0.00     0.006 C 
ENDBRANCH   8   9
BRANCH   8  11
ATOM     11  C   LIG d   1      -2.200  88.458 117.964  0.00  0.00     0.028 C 
ATOM     12  C   LIG d   1      -2.545  87.849 119.332  0.00  0.00     0.006 C 
ENDBRANCH   8  11
ENDBRANCH   7   8
ENDBRANCH   1   7
BRANCH   6  13
ATOM     13  N   LIG d   1      -3.904  92.740 119.129  0.00  0.00    -0.311 N 
ATOM     14  C   LIG d   1      -2.731  93.370 119.100  0.00  0.00     0.210 C 
ATOM     15  C   LIG d   1      -2.153  93.723 120.474  0.00  0.00     0.109 C 
ATOM     16  O   LIG d   1      -2.130  93.698 118.066  0.00  0.00    -0.276 OA
ATOM     17  H   LIG d   1      -4.336  92.542 120.010  0.00  0.00     0.149 HD
ENDBRANCH   6  13
BRANCH   5  18
ATOM     18  N   LIG d   1      -6.507  93.959 118.094  0.00  0.00     0.381 N 
ATOM     19  H   LIG d   1      -6.305  94.301 119.013  0.00  0.00    -0.090 HD
ATOM     20  H   LIG d   1      -7.494  94.058 117.932  0.00  0.00    -0.090 HD
ATOM     21  H   LIG d   1      -5.998  94.484 117.417  0.00  0.00    -0.090 HD
ENDBRANCH   5  18
BRANCH   3  22
ATOM     22  C   LIG d   1      -7.370  89.829 115.829  0.00  0.00     0.382 C 
ATOM     23  O   LIG d   1      -7.453  89.847 114.577  0.00  0.00    -0.241 OA
ATOM     24  O   LIG d   1      -8.146  89.109 116.485  0.00  0.00    -0.241 OA
ENDBRANCH   3  22
TORSDOF 7
ENDMDL
MODEL 3
REMARK VINA RESULT:      -5.1      1.988      5.032
REMARK  7 active torsions:
REMARK  status: ('A' for Active; 'I' for Inactive)
REMARK    1  A    between atoms: C_2  and  C_3 
REMARK    2  A    between atoms: C_3  and  O_6 
REMARK    3  A    between atoms: C_3  and  C_4 
REMARK    4  A    between atoms: C_7  and  O_6 
REMARK    5  A    between atoms: C_9  and  C_10 
REMARK    6  A    between atoms: N_15  and  C_14 
REMARK    7  A    between atoms: N_20  and  C_19 
REMARK       I    between atoms: C_22  and  N_20 
ROOT
ATOM      1  C   LIG d   1      -2.329  75.513 116.235  0.00  0.00     0.161 C 
ATOM      2  C   LIG d   1      -2.072  74.715 117.363  0.00  0.00     0.016 C 
ATOM      3  C   LIG d   1      -0.920  74.855 118.169  0.00  0.00     0.038 C 
ATOM      4  C   LIG d   1      -0.013  75.910 117.990  0.00  0.00     0.028 C 
ATOM      5  C   LIG d   1       0.033  76.432 116.558  0.00  0.00    -0.047 C 
ATOM      6  C   LIG d   1      -1.407  76.742 116.090  0.00  0.00     0.091 C 
ENDROOT
BRANCH   1   7
ATOM      7  O   LIG d   1      -3.712  75.920 116.230  0.00  0.00    -0.368 OA
BRANCH   7   8
ATOM      8  C   LIG d   1      -4.671  74.913 115.826  0.00  0.00     0.119 C 
BRANCH   8   9
ATOM      9  C   LIG d   1      -5.367  75.422 114.549  0.00  0.00     0.028 C 
ATOM     10  C   LIG d   1      -4.466  75.315 113.307  0.00  0.00     0.006 C 
ENDBRANCH   8   9
BRANCH   8  11
ATOM     11  C   LIG d   1      -5.788  74.759 116.863  0.00  0.00     0.028 C 
ATOM     12  C   LIG d   1      -6.166  73.292 117.119  0.00  0.00     0.006 C 
ENDBRANCH   8  11
ENDBRANCH   7   8
ENDBRANCH   1   7
BRANCH   6  13
ATOM     13  N   LIG d   1      -1.460  77.178 114.670  0.00  0.00    -0.311 N 
ATOM     14  C   LIG d   1      -2.201  78.200 114.244  0.00  0.00     0.210 C 
ATOM     15  C   LIG d   1      -2.127  78.469 112.738  0.00  0.00     0.109 C 
ATOM     16  O   LIG d   1      -2.888  78.929 114.976  0.00  0.00    -0.276 OA
ATOM     17  H   LIG d   1      -0.909  76.661 114.013  0.00  0.00     0.149 HD
ENDBRANCH   6  13
BRANCH   5  18
ATOM     18  N   LIG d   1       0.913  77.617 116.544  0.00  0.00     0.381 N 
ATOM     19  H   LIG d   1       0.679  78.221 117.306  0.00  0.00    -0.090 HD
ATOM     20  H   LIG d   1       0.767  78.119 115.686  0.00  0.00    -0.090 HD
ATOM     21  H   LIG d   1       1.866  77.335 116.614  0.00  0.00    -0.090 HD
ENDBRANCH   5  18
BRANCH   3  22
ATOM     22  C   LIG d   1      -0.644  73.908 119.144  0.00  0.00     0.382 C 
ATOM     23  O   LIG d   1      -0.903  74.153 120.347  0.00  0.00    -0.241 OA
ATOM     24  O   LIG d   1      -0.098  72.830 118.841  0.00  0.00    -0.241 OA
ENDBRANCH   3  22
TORSDOF 7
ENDMDL
MODEL 4
REMARK VINA RESULT:      -5.0      2.925      5.583
REMARK  7 active torsions:
REMARK  status: ('A' for Active; 'I' for Inactive)
REMARK    1  A    between atoms: C_2  and  C_3 
REMARK    2  A    between atoms: C_3  and  O_6 
REMARK    3  A    between atoms: C_3  and  C_4 
REMARK    4  A    between atoms: C_7  and  O_6 
REMARK    5  A    between atoms: C_9  and  C_10 
REMARK    6  A    between atoms: N_15  and  C_14 
REMARK    7  A    between atoms: N_20  and  C_19 
REMARK       I    between atoms: C_22  and  N_20 
ROOT
ATOM      1  C   LIG d   1      -4.381  75.794 117.320  0.00  0.00     0.161 C 
ATOM      2  C   LIG d   1      -4.741  74.496 116.923  0.00  0.00     0.016 C 
ATOM      3  C   LIG d   1      -6.048  73.974 117.060  0.00  0.00     0.038 C 
ATOM      4  C   LIG d   1      -7.126  74.774 117.469  0.00  0.00     0.028 C 
ATOM      5  C   LIG d   1      -6.712  75.942 118.358  0.00  0.00    -0.047 C 
ATOM      6  C   LIG d   1      -5.568  76.718 117.665  0.00  0.00     0.091 C 
ENDROOT
BRANCH   1   7
ATOM      7  O   LIG d   1      -3.551  76.402 116.311  0.00  0.00    -0.368 OA
BRANCH   7   8
ATOM      8  C   LIG d   1      -3.038  75.513 115.288  0.00  0.00     0.119 C 
BRANCH   8   9
ATOM      9  C   LIG d   1      -1.500  75.542 115.378  0.00  0.00     0.028 C 
ATOM     10  C   LIG d   1      -0.827  75.050 114.085  0.00  0.00     0.006 C 
ENDBRANCH   8   9
BRANCH   8  11
ATOM     11  C   LIG d   1      -3.372  76.027 113.884  0.00  0.00     0.028 C 
ATOM     12  C   LIG d   1      -4.645  75.391 113.304  0.00  0.00     0.006 C 
ENDBRANCH   8  11
ENDBRANCH   7   8
ENDBRANCH   1   7
BRANCH   6  13
ATOM     13  N   LIG d   1      -5.046  77.827 118.505  0.00  0.00    -0.311 N 
ATOM     14  C   LIG d   1      -4.987  79.093 118.094  0.00  0.00     0.210 C 
ATOM     15  C   LIG d   1      -4.396  80.075 119.110  0.00  0.00     0.109 C 
ATOM     16  O   LIG d   1      -5.398  79.500 116.998  0.00  0.00    -0.276 OA
ATOM     17  H   LIG d   1      -4.720  77.590 119.422  0.00  0.00     0.149 HD
ENDBRANCH   6  13
BRANCH   5  18
ATOM     18  N   LIG d   1      -7.910  76.768 118.596  0.00  0.00     0.381 N 
ATOM     19  H   LIG d   1      -8.599  76.574 117.897  0.00  0.00    -0.090 HD
ATOM     20  H   LIG d   1      -7.655  77.737 118.527  0.00  0.00    -0.090 HD
ATOM     21  H   LIG d   1      -8.282  76.577 119.500  0.00  0.00    -0.090 HD
ENDBRANCH   5  18
BRANCH   3  22
ATOM     22  C   LIG d   1      -6.279  72.627 116.826  0.00  0.00     0.382 C 
ATOM     23  O   LIG d   1      -6.381  71.831 117.790  0.00  0.00    -0.241 OA
ATOM     24  O   LIG d   1      -6.342  72.191 115.661  0.00  0.00    -0.241 OA
ENDBRANCH   3  22
TORSDOF 7
ENDMDL
MODEL 5
REMARK VINA RESULT:      -5.0      3.531      6.666
REMARK  7 active torsions:
REMARK  status: ('A' for Active; 'I' for Inactive)
REMARK    1  A    between atoms: C_2  and  C_3 
REMARK    2  A    between atoms: C_3  and  O_6 
REMARK    3  A    between atoms: C_3  and  C_4 
REMARK    4  A    between atoms: C_7  and  O_6 
REMARK    5  A    between atoms: C_9  and  C_10 
REMARK    6  A    between atoms: N_15  and  C_14 
REMARK    7  A    between atoms: N_20  and  C_19 
REMARK       I    between atoms: C_22  and  N_20 
ROOT
ATOM      1  C   LIG d   1      -6.819  75.023 117.767  0.00  0.00     0.161 C 
ATOM      2  C   LIG d   1      -7.054  73.711 117.325  0.00  0.00     0.016 C 
ATOM      3  C   LIG d   1      -8.347  73.149 117.208  0.00  0.00     0.038 C 
ATOM      4  C   LIG d   1      -9.507  73.918 117.381  0.00  0.00     0.028 C 
ATOM      5  C   LIG d   1      -9.313  75.106 118.317  0.00  0.00    -0.047 C 
ATOM      6  C   LIG d   1      -8.077  75.912 117.854  0.00  0.00     0.091 C 
ENDROOT
BRANCH   1   7
ATOM      7  O   LIG d   1      -5.822  75.648 116.934  0.00  0.00    -0.368 OA
BRANCH   7   8
ATOM      8  C   LIG d   1      -4.641  74.857 116.652  0.00  0.00     0.119 C 
BRANCH   8   9
ATOM      9  C   LIG d   1      -3.591  75.193 117.729  0.00  0.00     0.028 C 
ATOM     10  C   LIG d   1      -2.156  74.891 117.265  0.00  0.00     0.006 C 
ENDBRANCH   8   9
BRANCH   8  11
ATOM     11  C   LIG d   1      -4.001  75.265 115.322  0.00  0.00     0.028 C 
ATOM     12  C   LIG d   1      -5.021  75.367 114.177  0.00  0.00     0.006 C 
ENDBRANCH   8  11
ENDBRANCH   7   8
ENDBRANCH   1   7
BRANCH   6  13
ATOM     13  N   LIG d   1      -7.766  77.044 118.765  0.00  0.00    -0.311 N 
ATOM     14  C   LIG d   1      -8.298  78.258 118.634  0.00  0.00     0.210 C 
ATOM     15  C   LIG d   1      -7.826  79.286 119.667  0.00  0.00     0.109 C 
ATOM     16  O   LIG d   1      -9.140  78.573 117.780  0.00  0.00    -0.276 OA
ATOM     17  H   LIG d   1      -7.115  76.869 119.505  0.00  0.00     0.149 HD
ENDBRANCH   6  13
BRANCH   5  18
ATOM     18  N   LIG d   1     -10.558  75.896 118.299  0.00  0.00     0.381 N 
ATOM     19  H   LIG d   1     -10.418  76.761 118.783  0.00  0.00    -0.090 HD
ATOM     20  H   LIG d   1     -11.277  75.381 118.775  0.00  0.00    -0.090 HD
ATOM     21  H   LIG d   1     -10.835  76.075 117.359  0.00  0.00    -0.090 HD
ENDBRANCH   5  18
BRANCH   3  22
ATOM     22  C   LIG d   1      -8.486  71.794 116.952  0.00  0.00     0.382 C 
ATOM     23  O   LIG d   1      -7.562  71.001 117.252  0.00  0.00    -0.241 OA
ATOM     24  O   LIG d   1      -9.507  71.360 116.384  0.00  0.00    -0.241 OA
ENDBRANCH   3  22
TORSDOF 7
ENDMDL
MODEL 6
REMARK VINA RESULT:      -4.9      3.821      6.060
REMARK  7 active torsions:
REMARK  status: ('A' for Active; 'I' for Inactive)
REMARK    1  A    between atoms: C_2  and  C_3 
REMARK    2  A    between atoms: C_3  and  O_6 
REMARK    3  A    between atoms: C_3  and  C_4 
REMARK    4  A    between atoms: C_7  and  O_6 
REMARK    5  A    between atoms: C_9  and  C_10 
REMARK    6  A    between atoms: N_15  and  C_14 
REMARK    7  A    between atoms: N_20  and  C_19 
REMARK       I    between atoms: C_22  and  N_20 
ROOT
ATOM      1  C   LIG d   1      -7.288  76.377 117.786  0.00  0.00     0.161 C 
ATOM      2  C   LIG d   1      -8.672  76.328 118.019  0.00  0.00     0.016 C 
ATOM      3  C   LIG d   1      -9.441  77.458 118.383  0.00  0.00     0.038 C 
ATOM      4  C   LIG d   1      -8.899  78.752 118.390  0.00  0.00     0.028 C 
ATOM      5  C   LIG d   1      -7.397  78.778 118.653  0.00  0.00    -0.047 C 
ATOM      6  C   LIG d   1      -6.700  77.800 117.680  0.00  0.00     0.091 C 
ENDROOT
BRANCH   1   7
ATOM      7  O   LIG d   1      -6.964  75.613 116.608  0.00  0.00    -0.368 OA
BRANCH   7   8
ATOM      8  C   LIG d   1      -5.954  74.587 116.772  0.00  0.00     0.119 C 
BRANCH   8   9
ATOM      9  C   LIG d   1      -5.319  74.336 115.390  0.00  0.00     0.028 C 
ATOM     10  C   LIG d   1      -4.534  75.554 114.876  0.00  0.00     0.006 C 
ENDBRANCH   8   9
BRANCH   8  11
ATOM     11  C   LIG d   1      -6.580  73.249 117.179  0.00  0.00     0.028 C 
ATOM     12  C   LIG d   1      -6.455  72.176 116.086  0.00  0.00     0.006 C 
ENDBRANCH   8  11
ENDBRANCH   7   8
ENDBRANCH   1   7
BRANCH   6  13
ATOM     13  N   LIG d   1      -5.238  77.702 117.927  0.00  0.00    -0.311 N 
ATOM     14  C   LIG d   1      -4.334  78.432 117.275  0.00  0.00     0.210 C 
ATOM     15  C   LIG d   1      -2.878  78.160 117.668  0.00  0.00     0.109 C 
ATOM     16  O   LIG d   1      -4.601  79.301 116.432  0.00  0.00    -0.276 OA
ATOM     17  H   LIG d   1      -4.935  77.043 118.617  0.00  0.00     0.149 HD
ENDBRANCH   6  13
BRANCH   5  18
ATOM     18  N   LIG d   1      -6.942  80.173 118.496  0.00  0.00     0.381 N 
ATOM     19  H   LIG d   1      -6.564  80.304 117.579  0.00  0.00    -0.090 HD
ATOM     20  H   LIG d   1      -6.215  80.354 119.166  0.00  0.00    -0.090 HD
ATOM     21  H   LIG d   1      -7.703  80.799 118.643  0.00  0.00    -0.090 HD
ENDBRANCH   5  18
BRANCH   3  22
ATOM     22  C   LIG d   1     -10.758  77.293 118.783  0.00  0.00     0.382 C 
ATOM     23  O   LIG d   1     -11.647  77.055 117.930  0.00  0.00    -0.241 OA
ATOM     24  O   LIG d   1     -11.076  77.423 119.980  0.00  0.00    -0.241 OA
ENDBRANCH   3  22
TORSDOF 7
ENDMDL
MODEL 7
REMARK VINA RESULT:      -4.8      3.578      5.469
REMARK  7 active torsions:
REMARK  status: ('A' for Active; 'I' for Inactive)
REMARK    1  A    between atoms: C_2  and  C_3 
REMARK    2  A    between atoms: C_3  and  O_6 
REMARK    3  A    between atoms: C_3  and  C_4 
REMARK    4  A    between atoms: C_7  and  O_6 
REMARK    5  A    between atoms: C_9  and  C_10 
REMARK    6  A    between atoms: N_15  and  C_14 
REMARK    7  A    between atoms: N_20  and  C_19 
REMARK       I    between atoms: C_22  and  N_20 
ROOT
ATOM      1  C   LIG d   1      -3.617  77.852 116.770  0.00  0.00     0.161 C 
ATOM      2  C   LIG d   1      -2.872  78.726 117.579  0.00  0.00     0.016 C 
ATOM      3  C   LIG d   1      -1.528  79.076 117.314  0.00  0.00     0.038 C 
ATOM      4  C   LIG d   1      -0.882  78.692 116.129  0.00  0.00     0.028 C 
ATOM      5  C   LIG d   1      -1.428  77.399 115.533  0.00  0.00    -0.047 C 
ATOM      6  C   LIG d   1      -2.965  77.511 115.414  0.00  0.00     0.091 C 
ENDROOT
BRANCH   1   7
ATOM      7  O   LIG d   1      -4.942  78.383 116.569  0.00  0.00    -0.368 OA
BRANCH   7   8
ATOM      8  C   LIG d   1      -5.983  77.836 117.415  0.00  0.00     0.119 C 
BRANCH   8   9
ATOM      9  C   LIG d   1      -6.710  76.743 116.608  0.00  0.00     0.028 C 
ATOM     10  C   LIG d   1      -6.368  75.326 117.100  0.00  0.00     0.006 C 
ENDBRANCH   8   9
BRANCH   8  11
ATOM     11  C   LIG d   1      -7.053  78.885 117.731  0.00  0.00     0.028 C 
ATOM     12  C   LIG d   1      -6.544  80.326 117.560  0.00  0.00     0.006 C 
ENDBRANCH   8  11
ENDBRANCH   7   8
ENDBRANCH   1   7
BRANCH   6  13
ATOM     13  N   LIG d   1      -3.588  76.257 114.917  0.00  0.00    -0.311 N 
ATOM     14  C   LIG d   1      -3.898  76.048 113.639  0.00  0.00     0.210 C 
ATOM     15  C   LIG d   1      -4.551  74.694 113.345  0.00  0.00     0.109 C 
ATOM     16  O   LIG d   1      -3.665  76.843 112.716  0.00  0.00    -0.276 OA
ATOM     17  H   LIG d   1      -3.782  75.545 115.595  0.00  0.00     0.149 HD
ENDBRANCH   6  13
BRANCH   5  18
ATOM     18  N   LIG d   1      -0.760  77.191 114.234  0.00  0.00     0.381 N 
ATOM     19  H   LIG d   1      -1.341  76.632 113.641  0.00  0.00    -0.090 HD
ATOM     20  H   LIG d   1       0.102  76.697 114.387  0.00  0.00    -0.090 HD
ATOM     21  H   LIG d   1      -0.576  78.069 113.801  0.00  0.00    -0.090 HD
ENDBRANCH   5  18
BRANCH   3  22
ATOM     22  C   LIG d   1      -0.804  79.787 118.259  0.00  0.00     0.382 C 
ATOM     23  O   LIG d   1      -1.319  80.781 118.825  0.00  0.00    -0.241 OA
ATOM     24  O   LIG d   1       0.373  79.473 118.520  0.00  0.00    -0.241 OA
ENDBRANCH   3  22
TORSDOF 7
ENDMDL
MODEL 8
REMARK VINA RESULT:      -4.7     12.108     14.950
REMARK  7 active torsions:
REMARK  status: ('A' for Active; 'I' for Inactive)
REMARK    1  A    between atoms: C_2  and  C_3 
REMARK    2  A    between atoms: C_3  and  O_6 
REMARK    3  A    between atoms: C_3  and  C_4 
REMARK    4  A    between atoms: C_7  and  O_6 
REMARK    5  A    between atoms: C_9  and  C_10 
REMARK    6  A    between atoms: N_15  and  C_14 
REMARK    7  A    between atoms: N_20  and  C_19 
REMARK       I    between atoms: C_22  and  N_20 
ROOT
ATOM      1  C   LIG d   1       9.718  77.032 114.543  0.00  0.00     0.161 C 
ATOM      2  C   LIG d   1       9.610  75.788 115.186  0.00  0.00     0.016 C 
ATOM      3  C   LIG d   1      10.722  74.971 115.494  0.00  0.00     0.038 C 
ATOM      4  C   LIG d   1      12.040  75.414 115.312  0.00  0.00     0.028 C 
ATOM      5  C   LIG d   1      12.184  76.451 114.203  0.00  0.00    -0.047 C 
ATOM      6  C   LIG d   1      11.156  77.582 114.437  0.00  0.00     0.091 C 
ENDROOT
BRANCH   1   7
ATOM      7  O   LIG d   1       8.860  77.993 115.189  0.00  0.00    -0.368 OA
BRANCH   7   8
ATOM      8  C   LIG d   1       8.506  77.708 116.564  0.00  0.00     0.119 C 
BRANCH   8   9
ATOM      9  C   LIG d   1       7.030  78.107 116.754  0.00  0.00     0.028 C 
ATOM     10  C   LIG d   1       6.214  77.975 115.457  0.00  0.00     0.006 C 
ENDBRANCH   8   9
BRANCH   8  11
ATOM     11  C   LIG d   1       9.293  78.591 117.537  0.00  0.00     0.028 C 
ATOM     12  C   LIG d   1      10.478  77.856 118.184  0.00  0.00     0.006 C 
ENDBRANCH   8  11
ENDBRANCH   7   8
ENDBRANCH   1   7
BRANCH   6  13
ATOM     13  N   LIG d   1      11.171  78.596 113.351  0.00  0.00    -0.311 N 
ATOM     14  C   LIG d   1      11.228  79.908 113.573  0.00  0.00     0.210 C 
ATOM     15  C   LIG d   1      11.213  80.778 112.313  0.00  0.00     0.109 C 
ATOM     16  O   LIG d   1      11.321  80.432 114.693  0.00  0.00    -0.276 OA
ATOM     17  H   LIG d   1      11.130  78.256 112.410  0.00  0.00     0.149 HD
ENDBRANCH   6  13
BRANCH   5  18
ATOM     18  N   LIG d   1      13.580  76.927 114.215  0.00  0.00     0.381 N 
ATOM     19  H   LIG d   1      14.106  76.414 114.894  0.00  0.00    -0.090 HD
ATOM     20  H   LIG d   1      13.590  77.897 114.475  0.00  0.00    -0.090 HD
ATOM     21  H   LIG d   1      13.987  76.812 113.313  0.00  0.00    -0.090 HD
ENDBRANCH   5  18
BRANCH   3  22
ATOM     22  C   LIG d   1      10.519  73.678 115.952  0.00  0.00     0.382 C 
ATOM     23  O   LIG d   1      10.479  73.449 117.185  0.00  0.00    -0.241 OA
ATOM     24  O   LIG d   1      10.421  72.731 115.148  0.00  0.00    -0.241 OA
ENDBRANCH   3  22
TORSDOF 7
ENDMDL
MODEL 9
REMARK VINA RESULT:      -4.7      4.832      7.643
REMARK  7 active torsions:
REMARK  status: ('A' for Active; 'I' for Inactive)
REMARK    1  A    between atoms: C_2  and  C_3 
REMARK    2  A    between atoms: C_3  and  O_6 
REMARK    3  A    between atoms: C_3  and  C_4 
REMARK    4  A    between atoms: C_7  and  O_6 
REMARK    5  A    between atoms: C_9  and  C_10 
REMARK    6  A    between atoms: N_15  and  C_14 
REMARK    7  A    between atoms: N_20  and  C_19 
REMARK       I    between atoms: C_22  and  N_20 
ROOT
ATOM      1  C   LIG d   1      -6.852  78.085 117.877  0.00  0.00     0.161 C 
ATOM      2  C   LIG d   1      -7.121  76.725 117.652  0.00  0.00     0.016 C 
ATOM      3  C   LIG d   1      -8.414  76.161 117.746  0.00  0.00     0.038 C 
ATOM      4  C   LIG d   1      -9.557  76.954 117.926  0.00  0.00     0.028 C 
ATOM      5  C   LIG d   1      -9.278  78.262 118.660  0.00  0.00    -0.047 C 
ATOM      6  C   LIG d   1      -8.102  78.986 117.966  0.00  0.00     0.091 C 
ENDROOT
BRANCH   1   7
ATOM      7  O   LIG d   1      -5.949  78.579 116.868  0.00  0.00    -0.368 OA
BRANCH   7   8
ATOM      8  C   LIG d   1      -4.646  79.007 117.334  0.00  0.00     0.119 C 
BRANCH   8   9
ATOM      9  C   LIG d   1      -3.614  77.979 116.830  0.00  0.00     0.028 C 
ATOM     10  C   LIG d   1      -2.793  78.506 115.641  0.00  0.00     0.006 C 
ENDBRANCH   8   9
BRANCH   8  11
ATOM     11  C   LIG d   1      -4.556  78.958 118.862  0.00  0.00     0.028 C 
ATOM     12  C   LIG d   1      -4.164  80.309 119.480  0.00  0.00     0.006 C 
ENDBRANCH   8  11
ENDBRANCH   7   8
ENDBRANCH   1   7
BRANCH   6  13
ATOM     13  N   LIG d   1      -7.709  80.233 118.671  0.00  0.00    -0.311 N 
ATOM     14  C   LIG d   1      -7.531  81.400 118.053  0.00  0.00     0.210 C 
ATOM     15  C   LIG d   1      -7.107  82.556 118.964  0.00  0.00     0.109 C 
ATOM     16  O   LIG d   1      -7.715  81.594 116.842  0.00  0.00    -0.276 OA
ATOM     17  H   LIG d   1      -7.569  80.173 119.660  0.00  0.00     0.149 HD
ENDBRANCH   6  13
BRANCH   5  18
ATOM     18  N   LIG d   1     -10.525  79.050 118.657  0.00  0.00     0.381 N 
ATOM     19  H   LIG d   1     -10.784  79.279 119.596  0.00  0.00    -0.090 HD
ATOM     20  H   LIG d   1     -11.259  78.495 118.254  0.00  0.00    -0.090 HD
ATOM     21  H   LIG d   1     -10.400  79.884 118.126  0.00  0.00    -0.090 HD
ENDBRANCH   5  18
BRANCH   3  22
ATOM     22  C   LIG d   1      -8.569  74.784 117.700  0.00  0.00     0.382 C 
ATOM     23  O   LIG d   1      -7.564  74.045 117.568  0.00  0.00    -0.241 OA
ATOM     24  O   LIG d   1      -9.704  74.274 117.744  0.00  0.00    -0.241 OA
ENDBRANCH   3  22
TORSDOF 7
ENDMDL
