MODEL 1
REMARK VINA RESULT:      -5.8      0.000      0.000
REMARK  7 active torsions:
REMARK  status: ('A' for Active; 'I' for Inactive)
REMARK    1  A    between atoms: C_2  and  C_3 
REMARK    2  A    between atoms: C_3  and  O_6 
REMARK    3  A    between atoms: C_3  and  C_4 
REMARK    4  A    between atoms: C_7  and  O_6 
REMARK    5  A    between atoms: C_9  and  C_10 
REMARK    6  A    between atoms: N_15  and  C_14 
REMARK    7  A    between atoms: N_20  and  C_19 
REMARK       I    between atoms: C_22  and  N_20 
ROOT
ATOM      1  C   LIG d   1      -7.620  74.961 118.546  0.00  0.00     0.161 C 
ATOM      2  C   LIG d   1      -7.497  73.706 117.925  0.00  0.00     0.016 C 
ATOM      3  C   LIG d   1      -8.512  73.130 117.128  0.00  0.00     0.038 C 
ATOM      4  C   LIG d   1      -9.668  73.840 116.771  0.00  0.00     0.028 C 
ATOM      5  C   LIG d   1     -10.059  74.910 117.785  0.00  0.00    -0.047 C 
ATOM      6  C   LIG d   1      -8.828  75.799 118.077  0.00  0.00     0.091 C 
ENDROOT
BRANCH   1   7
ATOM      7  O   LIG d   1      -6.398  75.708 118.383  0.00  0.00    -0.368 OA
BRANCH   7   8
ATOM      8  C   LIG d   1      -5.544  75.302 117.286  0.00  0.00     0.119 C 
BRANCH   8   9
ATOM      9  C   LIG d   1      -4.092  75.308 117.802  0.00  0.00     0.028 C 
ATOM     10  C   LIG d   1      -3.332  74.024 117.433  0.00  0.00     0.006 C 
ENDBRANCH   8   9
BRANCH   8  11
ATOM     11  C   LIG d   1      -5.573  76.326 116.147  0.00  0.00     0.028 C 
ATOM     12  C   LIG d   1      -6.610  75.984 115.065  0.00  0.00     0.006 C 
ENDBRANCH   8  11
ENDBRANCH   7   8
ENDBRANCH   1   7
BRANCH   6  13
ATOM     13  N   LIG d   1      -9.101  76.819 119.122  0.00  0.00    -0.311 N 
ATOM     14  C   LIG d   1      -8.882  78.122 118.950  0.00  0.00     0.210 C 
ATOM     15  C   LIG d   1      -9.212  78.998 120.162  0.00  0.00     0.109 C 
ATOM     16  O   LIG d   1      -8.476  78.638 117.898  0.00  0.00    -0.276 OA
ATOM     17  H   LIG d   1      -9.461  76.491 119.997  0.00  0.00     0.149 HD
ENDBRANCH   6  13
BRANCH   5  18
ATOM     18  N   LIG d   1     -11.195  75.663 117.222  0.00  0.00     0.381 N 
ATOM     19  H   LIG d   1     -11.259  75.495 116.238  0.00  0.00    -0.090 HD
ATOM     20  H   LIG d   1     -11.037  76.645 117.365  0.00  0.00    -0.090 HD
ATOM     21  H   LIG d   1     -12.042  75.388 117.669  0.00  0.00    -0.090 HD
ENDBRANCH   5  18
BRANCH   3  22
ATOM     22  C   LIG d   1      -8.394  71.812 116.712  0.00  0.00     0.382 C 
ATOM     23  O   LIG d   1      -7.400  71.456 116.034  0.00  0.00    -0.241 OA
ATOM     24  O   LIG d   1      -9.290  70.986 116.968  0.00  0.00    -0.241 OA
ENDBRANCH   3  22
TORSDOF 7
ENDMDL
MODEL 2
REMARK VINA RESULT:      -5.7      2.181      4.458
REMARK  7 active torsions:
REMARK  status: ('A' for Active; 'I' for Inactive)
REMARK    1  A    between atoms: C_2  and  C_3 
REMARK    2  A    between atoms: C_3  and  O_6 
REMARK    3  A    between atoms: C_3  and  C_4 
REMARK    4  A    between atoms: C_7  and  O_6 
REMARK    5  A    between atoms: C_9  and  C_10 
REMARK    6  A    between atoms: N_15  and  C_14 
REMARK    7  A    between atoms: N_20  and  C_19 
REMARK       I    between atoms: C_22  and  N_20 
ROOT
ATOM      1  C   LIG d   1      -6.662  75.404 116.374  0.00  0.00     0.161 C 
ATOM      2  C   LIG d   1      -5.445  74.756 116.104  0.00  0.00     0.016 C 
ATOM      3  C   LIG d   1      -4.337  74.786 116.981  0.00  0.00     0.038 C 
ATOM      4  C   LIG d   1      -4.423  75.343 118.266  0.00  0.00     0.028 C 
ATOM      5  C   LIG d   1      -5.470  76.446 118.379  0.00  0.00    -0.047 C 
ATOM      6  C   LIG d   1      -6.812  75.923 117.819  0.00  0.00     0.091 C 
ENDROOT
BRANCH   1   7
ATOM      7  O   LIG d   1      -7.762  74.535 116.037  0.00  0.00    -0.368 OA
BRANCH   7   8
ATOM      8  C   LIG d   1      -8.248  73.679 117.100  0.00  0.00     0.119 C 
BRANCH   8   9
ATOM      9  C   LIG d   1      -7.826  72.237 116.762  0.00  0.00     0.028 C 
ATOM     10  C   LIG d   1      -8.977  71.232 116.938  0.00  0.00     0.006 C 
ENDBRANCH   8   9
BRANCH   8  11
ATOM     11  C   LIG d   1      -9.779  73.655 117.140  0.00  0.00     0.028 C 
ATOM     12  C   LIG d   1     -10.415  74.804 116.342  0.00  0.00     0.006 C 
ENDBRANCH   8  11
ENDBRANCH   7   8
ENDBRANCH   1   7
BRANCH   6  13
ATOM     13  N   LIG d   1      -7.870  76.966 117.815  0.00  0.00    -0.311 N 
ATOM     14  C   LIG d   1      -8.806  77.066 118.758  0.00  0.00     0.210 C 
ATOM     15  C   LIG d   1      -9.813  78.201 118.552  0.00  0.00     0.109 C 
ATOM     16  O   LIG d   1      -8.879  76.341 119.761  0.00  0.00    -0.276 OA
ATOM     17  H   LIG d   1      -7.867  77.616 117.053  0.00  0.00     0.149 HD
ENDBRANCH   6  13
BRANCH   5  18
ATOM     18  N   LIG d   1      -5.550  76.841 119.798  0.00  0.00     0.381 N 
ATOM     19  H   LIG d   1      -6.373  76.452 120.212  0.00  0.00    -0.090 HD
ATOM     20  H   LIG d   1      -5.612  77.842 119.854  0.00  0.00    -0.090 HD
ATOM     21  H   LIG d   1      -4.742  76.524 120.286  0.00  0.00    -0.090 HD
ENDBRANCH   5  18
BRANCH   3  22
ATOM     22  C   LIG d   1      -3.113  74.289 116.560  0.00  0.00     0.382 C 
ATOM     23  O   LIG d   1      -2.694  74.551 115.407  0.00  0.00    -0.241 OA
ATOM     24  O   LIG d   1      -2.443  73.546 117.302  0.00  0.00    -0.241 OA
ENDBRANCH   3  22
TORSDOF 7
ENDMDL
MODEL 3
REMARK VINA RESULT:      -5.6      2.497      5.652
REMARK  7 active torsions:
REMARK  status: ('A' for Active; 'I' for Inactive)
REMARK    1  A    between atoms: C_2  and  C_3 
REMARK    2  A    between atoms: C_3  and  O_6 
REMARK    3  A    between atoms: C_3  and  C_4 
REMARK    4  A    between atoms: C_7  and  O_6 
REMARK    5  A    between atoms: C_9  and  C_10 
REMARK    6  A    between atoms: N_15  and  C_14 
REMARK    7  A    between atoms: N_20  and  C_19 
REMARK       I    between atoms: C_22  and  N_20 
ROOT
ATOM      1  C   LIG d   1      -7.052  75.561 118.740  0.00  0.00     0.161 C 
ATOM      2  C   LIG d   1      -8.122  76.469 118.799  0.00  0.00     0.016 C 
ATOM      3  C   LIG d   1      -8.081  77.759 118.220  0.00  0.00     0.038 C 
ATOM      4  C   LIG d   1      -7.016  78.173 117.407  0.00  0.00     0.028 C 
ATOM      5  C   LIG d   1      -5.697  77.482 117.737  0.00  0.00    -0.047 C 
ATOM      6  C   LIG d   1      -5.924  75.953 117.762  0.00  0.00     0.091 C 
ENDROOT
BRANCH   1   7
ATOM      7  O   LIG d   1      -7.546  74.243 118.431  0.00  0.00    -0.368 OA
BRANCH   7   8
ATOM      8  C   LIG d   1      -7.870  73.993 117.042  0.00  0.00     0.119 C 
BRANCH   8   9
ATOM      9  C   LIG d   1      -9.339  73.530 116.985  0.00  0.00     0.028 C 
ATOM     10  C   LIG d   1     -10.280  74.629 116.463  0.00  0.00     0.006 C 
ENDBRANCH   8   9
BRANCH   8  11
ATOM     11  C   LIG d   1      -7.055  72.823 116.481  0.00  0.00     0.028 C 
ATOM     12  C   LIG d   1      -7.699  71.457 116.766  0.00  0.00     0.006 C 
ENDBRANCH   8  11
ENDBRANCH   7   8
ENDBRANCH   1   7
BRANCH   6  13
ATOM     13  N   LIG d   1      -4.703  75.205 118.160  0.00  0.00    -0.311 N 
ATOM     14  C   LIG d   1      -3.842  74.689 117.285  0.00  0.00     0.210 C 
ATOM     15  C   LIG d   1      -2.660  73.938 117.908  0.00  0.00     0.109 C 
ATOM     16  O   LIG d   1      -3.927  74.809 116.054  0.00  0.00    -0.276 OA
ATOM     17  H   LIG d   1      -4.540  75.087 119.141  0.00  0.00     0.149 HD
ENDBRANCH   6  13
BRANCH   5  18
ATOM     18  N   LIG d   1      -4.708  77.903 116.728  0.00  0.00     0.381 N 
ATOM     19  H   LIG d   1      -5.106  77.832 115.813  0.00  0.00    -0.090 HD
ATOM     20  H   LIG d   1      -3.914  77.289 116.775  0.00  0.00    -0.090 HD
ATOM     21  H   LIG d   1      -4.422  78.842 116.901  0.00  0.00    -0.090 HD
ENDBRANCH   5  18
BRANCH   3  22
ATOM     22  C   LIG d   1      -9.097  78.664 118.487  0.00  0.00     0.382 C 
ATOM     23  O   LIG d   1     -10.273  78.409 118.130  0.00  0.00    -0.241 OA
ATOM     24  O   LIG d   1      -8.845  79.752 119.039  0.00  0.00    -0.241 OA
ENDBRANCH   3  22
TORSDOF 7
ENDMDL
MODEL 4
REMARK VINA RESULT:      -5.6      2.494      4.882
REMARK  7 active torsions:
REMARK  status: ('A' for Active; 'I' for Inactive)
REMARK    1  A    between atoms: C_2  and  C_3 
REMARK    2  A    between atoms: C_3  and  O_6 
REMARK    3  A    between atoms: C_3  and  C_4 
REMARK    4  A    between atoms: C_7  and  O_6 
REMARK    5  A    between atoms: C_9  and  C_10 
REMARK    6  A    between atoms: N_15  and  C_14 
REMARK    7  A    between atoms: N_20  and  C_19 
REMARK       I    between atoms: C_22  and  N_20 
ROOT
ATOM      1  C   LIG d   1      -8.062  75.952 118.037  0.00  0.00     0.161 C 
ATOM      2  C   LIG d   1      -9.415  76.111 118.379  0.00  0.00     0.016 C 
ATOM      3  C   LIG d   1     -10.036  77.373 118.532  0.00  0.00     0.038 C 
ATOM      4  C   LIG d   1      -9.378  78.567 118.203  0.00  0.00     0.028 C 
ATOM      5  C   LIG d   1      -7.861  78.481 118.340  0.00  0.00    -0.047 C 
ATOM      6  C   LIG d   1      -7.357  77.242 117.566  0.00  0.00     0.091 C 
ENDROOT
BRANCH   1   7
ATOM      7  O   LIG d   1      -7.927  74.916 117.043  0.00  0.00    -0.368 OA
BRANCH   7   8
ATOM      8  C   LIG d   1      -8.039  73.554 117.524  0.00  0.00     0.119 C 
BRANCH   8   9
ATOM      9  C   LIG d   1      -6.771  72.800 117.076  0.00  0.00     0.028 C 
ATOM     10  C   LIG d   1      -6.064  73.490 115.898  0.00  0.00     0.006 C 
ENDBRANCH   8   9
BRANCH   8  11
ATOM     11  C   LIG d   1      -9.204  72.821 116.854  0.00  0.00     0.028 C 
ATOM     12  C   LIG d   1      -9.051  71.292 116.898  0.00  0.00     0.006 C 
ENDBRANCH   8  11
ENDBRANCH   7   8
ENDBRANCH   1   7
BRANCH   6  13
ATOM     13  N   LIG d   1      -5.893  77.036 117.718  0.00  0.00    -0.311 N 
ATOM     14  C   LIG d   1      -5.062  76.896 116.687  0.00  0.00     0.210 C 
ATOM     15  C   LIG d   1      -3.594  76.673 117.065  0.00  0.00     0.109 C 
ATOM     16  O   LIG d   1      -5.396  76.968 115.494  0.00  0.00    -0.276 OA
ATOM     17  H   LIG d   1      -5.533  76.996 118.651  0.00  0.00     0.149 HD
ENDBRANCH   6  13
BRANCH   5  18
ATOM     18  N   LIG d   1      -7.296  79.747 117.835  0.00  0.00     0.381 N 
ATOM     19  H   LIG d   1      -8.029  80.328 117.480  0.00  0.00    -0.090 HD
ATOM     20  H   LIG d   1      -6.662  79.543 117.083  0.00  0.00    -0.090 HD
ATOM     21  H   LIG d   1      -6.813  80.220 118.567  0.00  0.00    -0.090 HD
ENDBRANCH   5  18
BRANCH   3  22
ATOM     22  C   LIG d   1     -11.317  77.449 119.057  0.00  0.00     0.382 C 
ATOM     23  O   LIG d   1     -12.273  76.900 118.458  0.00  0.00    -0.241 OA
ATOM     24  O   LIG d   1     -11.535  78.098 120.097  0.00  0.00    -0.241 OA
ENDBRANCH   3  22
TORSDOF 7
ENDMDL
MODEL 5
REMARK VINA RESULT:      -5.4      2.404      4.629
REMARK  7 active torsions:
REMARK  status: ('A' for Active; 'I' for Inactive)
REMARK    1  A    between atoms: C_2  and  C_3 
REMARK    2  A    between atoms: C_3  and  O_6 
REMARK    3  A    between atoms: C_3  and  C_4 
REMARK    4  A    between atoms: C_7  and  O_6 
REMARK    5  A    between atoms: C_9  and  C_10 
REMARK    6  A    between atoms: N_15  and  C_14 
REMARK    7  A    between atoms: N_20  and  C_19 
REMARK       I    between atoms: C_22  and  N_20 
ROOT
ATOM      1  C   LIG d   1      -7.338  75.605 116.555  0.00  0.00     0.161 C 
ATOM      2  C   LIG d   1      -8.209  74.507 116.663  0.00  0.00     0.016 C 
ATOM      3  C   LIG d   1      -7.777  73.201 116.989  0.00  0.00     0.038 C 
ATOM      4  C   LIG d   1      -6.457  72.932 117.379  0.00  0.00     0.028 C 
ATOM      5  C   LIG d   1      -5.442  73.909 116.797  0.00  0.00    -0.047 C 
ATOM      6  C   LIG d   1      -5.912  75.353 117.087  0.00  0.00     0.091 C 
ENDROOT
BRANCH   1   7
ATOM      7  O   LIG d   1      -7.919  76.754 117.203  0.00  0.00    -0.368 OA
BRANCH   7   8
ATOM      8  C   LIG d   1      -8.726  76.485 118.376  0.00  0.00     0.119 C 
BRANCH   8   9
ATOM      9  C   LIG d   1     -10.077  77.201 118.182  0.00  0.00     0.028 C 
ATOM     10  C   LIG d   1     -11.256  76.217 118.105  0.00  0.00     0.006 C 
ENDBRANCH   8   9
BRANCH   8  11
ATOM     11  C   LIG d   1      -8.111  77.111 119.631  0.00  0.00     0.028 C 
ATOM     12  C   LIG d   1      -8.143  76.168 120.844  0.00  0.00     0.006 C 
ENDBRANCH   8  11
ENDBRANCH   7   8
ENDBRANCH   1   7
BRANCH   6  13
ATOM     13  N   LIG d   1      -5.018  76.373 116.478  0.00  0.00    -0.311 N 
ATOM     14  C   LIG d   1      -3.979  76.910 117.114  0.00  0.00     0.210 C 
ATOM     15  C   LIG d   1      -3.201  77.958 116.311  0.00  0.00     0.109 C 
ATOM     16  O   LIG d   1      -3.607  76.595 118.254  0.00  0.00    -0.276 OA
ATOM     17  H   LIG d   1      -5.228  76.663 115.543  0.00  0.00     0.149 HD
ENDBRANCH   6  13
BRANCH   5  18
ATOM     18  N   LIG d   1      -4.130  73.597 117.394  0.00  0.00     0.381 N 
ATOM     19  H   LIG d   1      -3.401  73.827 116.748  0.00  0.00    -0.090 HD
ATOM     20  H   LIG d   1      -4.085  72.611 117.583  0.00  0.00    -0.090 HD
ATOM     21  H   LIG d   1      -4.009  74.111 118.239  0.00  0.00    -0.090 HD
ENDBRANCH   5  18
BRANCH   3  22
ATOM     22  C   LIG d   1      -8.663  72.139 116.886  0.00  0.00     0.382 C 
ATOM     23  O   LIG d   1      -9.899  72.345 116.953  0.00  0.00    -0.241 OA
ATOM     24  O   LIG d   1      -8.241  70.973 116.772  0.00  0.00    -0.241 OA
ENDBRANCH   3  22
TORSDOF 7
ENDMDL
MODEL 6
REMARK VINA RESULT:      -5.3      1.718      4.932
REMARK  7 active torsions:
REMARK  status: ('A' for Active; 'I' for Inactive)
REMARK    1  A    between atoms: C_2  and  C_3 
REMARK    2  A    between atoms: C_3  and  O_6 
REMARK    3  A    between atoms: C_3  and  C_4 
REMARK    4  A    between atoms: C_7  and  O_6 
REMARK    5  A    between atoms: C_9  and  C_10 
REMARK    6  A    between atoms: N_15  and  C_14 
REMARK    7  A    between atoms: N_20  and  C_19 
REMARK       I    between atoms: C_22  and  N_20 
ROOT
ATOM      1  C   LIG d   1      -7.063  76.173 117.388  0.00  0.00     0.161 C 
ATOM      2  C   LIG d   1      -7.409  77.510 117.647  0.00  0.00     0.016 C 
ATOM      3  C   LIG d   1      -8.734  77.936 117.896  0.00  0.00     0.038 C 
ATOM      4  C   LIG d   1      -9.789  77.024 118.054  0.00  0.00     0.028 C 
ATOM      5  C   LIG d   1      -9.575  75.714 117.303  0.00  0.00    -0.047 C 
ATOM      6  C   LIG d   1      -8.183  75.149 117.666  0.00  0.00     0.091 C 
ENDROOT
BRANCH   1   7
ATOM      7  O   LIG d   1      -5.873  75.826 118.124  0.00  0.00    -0.368 OA
BRANCH   7   8
ATOM      8  C   LIG d   1      -4.616  76.005 117.424  0.00  0.00     0.119 C 
BRANCH   8   9
ATOM      9  C   LIG d   1      -4.709  75.225 116.099  0.00  0.00     0.028 C 
ATOM     10  C   LIG d   1      -4.311  76.081 114.885  0.00  0.00     0.006 C 
ENDBRANCH   8   9
BRANCH   8  11
ATOM     11  C   LIG d   1      -3.456  75.365 118.191  0.00  0.00     0.028 C 
ATOM     12  C   LIG d   1      -3.100  73.963 117.672  0.00  0.00     0.006 C 
ENDBRANCH   8  11
ENDBRANCH   7   8
ENDBRANCH   1   7
BRANCH   6  13
ATOM     13  N   LIG d   1      -7.859  73.911 116.910  0.00  0.00    -0.311 N 
ATOM     14  C   LIG d   1      -7.325  72.828 117.472  0.00  0.00     0.210 C 
ATOM     15  C   LIG d   1      -7.051  71.669 116.508  0.00  0.00     0.109 C 
ATOM     16  O   LIG d   1      -7.083  72.705 118.682  0.00  0.00    -0.276 OA
ATOM     17  H   LIG d   1      -8.052  73.913 115.928  0.00  0.00     0.149 HD
ENDBRANCH   6  13
BRANCH   5  18
ATOM     18  N   LIG d   1     -10.680  74.807 117.666  0.00  0.00     0.381 N 
ATOM     19  H   LIG d   1     -11.454  74.952 117.049  0.00  0.00    -0.090 HD
ATOM     20  H   LIG d   1     -10.979  75.017 118.602  0.00  0.00    -0.090 HD
ATOM     21  H   LIG d   1     -10.376  73.860 117.611  0.00  0.00    -0.090 HD
ENDBRANCH   5  18
BRANCH   3  22
ATOM     22  C   LIG d   1      -9.022  79.291 117.950  0.00  0.00     0.382 C 
ATOM     23  O   LIG d   1     -10.176  79.675 118.256  0.00  0.00    -0.241 OA
ATOM     24  O   LIG d   1      -8.153  80.133 117.654  0.00  0.00    -0.241 OA
ENDBRANCH   3  22
TORSDOF 7
ENDMDL
MODEL 7
REMARK VINA RESULT:      -5.2     14.846     17.584
REMARK  7 active torsions:
REMARK  status: ('A' for Active; 'I' for Inactive)
REMARK    1  A    between atoms: C_2  and  C_3 
REMARK    2  A    between atoms: C_3  and  O_6 
REMARK    3  A    between atoms: C_3  and  C_4 
REMARK    4  A    between atoms: C_7  and  O_6 
REMARK    5  A    between atoms: C_9  and  C_10 
REMARK    6  A    between atoms: N_15  and  C_14 
REMARK    7  A    between atoms: N_20  and  C_19 
REMARK       I    between atoms: C_22  and  N_20 
ROOT
ATOM      1  C   LIG d   1      -5.029  92.503 117.140  0.00  0.00     0.161 C 
ATOM      2  C   LIG d   1      -6.080  91.629 116.814  0.00  0.00     0.016 C 
ATOM      3  C   LIG d   1      -5.903  90.242 116.607  0.00  0.00     0.038 C 
ATOM      4  C   LIG d   1      -4.679  89.605 116.862  0.00  0.00     0.028 C 
ATOM      5  C   LIG d   1      -3.473  90.524 116.704  0.00  0.00    -0.047 C 
ATOM      6  C   LIG d   1      -3.708  91.808 117.532  0.00  0.00     0.091 C 
ENDROOT
BRANCH   1   7
ATOM      7  O   LIG d   1      -5.449  93.404 118.184  0.00  0.00    -0.368 OA
BRANCH   7   8
ATOM      8  C   LIG d   1      -6.498  92.921 119.059  0.00  0.00     0.119 C 
BRANCH   8   9
ATOM      9  C   LIG d   1      -7.484  94.083 119.285  0.00  0.00     0.028 C 
ATOM     10  C   LIG d   1      -7.075  95.356 118.525  0.00  0.00     0.006 C 
ENDBRANCH   8   9
BRANCH   8  11
ATOM     11  C   LIG d   1      -5.950  92.578 120.448  0.00  0.00     0.028 C 
ATOM     12  C   LIG d   1      -5.685  91.075 120.629  0.00  0.00     0.006 C 
ENDBRANCH   8  11
ENDBRANCH   7   8
ENDBRANCH   1   7
BRANCH   6  13
ATOM     13  N   LIG d   1      -2.613  92.798 117.366  0.00  0.00    -0.311 N 
ATOM     14  C   LIG d   1      -2.029  93.423 118.387  0.00  0.00     0.210 C 
ATOM     15  C   LIG d   1      -0.934  94.420 117.994  0.00  0.00     0.109 C 
ATOM     16  O   LIG d   1      -2.291  93.223 119.582  0.00  0.00    -0.276 OA
ATOM     17  H   LIG d   1      -2.316  92.997 116.431  0.00  0.00     0.149 HD
ENDBRANCH   6  13
BRANCH   5  18
ATOM     18  N   LIG d   1      -2.279  89.770 117.132  0.00  0.00     0.381 N 
ATOM     19  H   LIG d   1      -1.498  90.390 117.210  0.00  0.00    -0.090 HD
ATOM     20  H   LIG d   1      -2.065  89.078 116.436  0.00  0.00    -0.090 HD
ATOM     21  H   LIG d   1      -2.451  89.329 118.008  0.00  0.00    -0.090 HD
ENDBRANCH   5  18
BRANCH   3  22
ATOM     22  C   LIG d   1      -6.948  89.484 116.101  0.00  0.00     0.382 C 
ATOM     23  O   LIG d   1      -7.627  88.760 116.869  0.00  0.00    -0.241 OA
ATOM     24  O   LIG d   1      -7.192  89.480 114.879  0.00  0.00    -0.241 OA
ENDBRANCH   3  22
TORSDOF 7
ENDMDL
MODEL 8
REMARK VINA RESULT:      -5.2      2.859      4.858
REMARK  7 active torsions:
REMARK  status: ('A' for Active; 'I' for Inactive)
REMARK    1  A    between atoms: C_2  and  C_3 
REMARK    2  A    between atoms: C_3  and  O_6 
REMARK    3  A    between atoms: C_3  and  C_4 
REMARK    4  A    between atoms: C_7  and  O_6 
REMARK    5  A    between atoms: C_9  and  C_10 
REMARK    6  A    between atoms: N_15  and  C_14 
REMARK    7  A    between atoms: N_20  and  C_19 
REMARK       I    between atoms: C_22  and  N_20 
ROOT
ATOM      1  C   LIG d   1      -6.510  76.230 116.155  0.00  0.00     0.161 C 
ATOM      2  C   LIG d   1      -7.897  76.272 116.379  0.00  0.00     0.016 C 
ATOM      3  C   LIG d   1      -8.645  75.165 116.840  0.00  0.00     0.038 C 
ATOM      4  C   LIG d   1      -8.029  73.975 117.256  0.00  0.00     0.028 C 
ATOM      5  C   LIG d   1      -6.691  73.715 116.572  0.00  0.00    -0.047 C 
ATOM      6  C   LIG d   1      -5.804  74.974 116.709  0.00  0.00     0.091 C 
ENDROOT
BRANCH   1   7
ATOM      7  O   LIG d   1      -5.894  77.423 116.679  0.00  0.00    -0.368 OA
BRANCH   7   8
ATOM      8  C   LIG d   1      -5.585  77.412 118.094  0.00  0.00     0.119 C 
BRANCH   8   9
ATOM      9  C   LIG d   1      -6.413  78.530 118.758  0.00  0.00     0.028 C 
ATOM     10  C   LIG d   1      -6.703  79.695 117.796  0.00  0.00     0.006 C 
ENDBRANCH   8   9
BRANCH   8  11
ATOM     11  C   LIG d   1      -4.122  77.787 118.348  0.00  0.00     0.028 C 
ATOM     12  C   LIG d   1      -3.339  78.042 117.051  0.00  0.00     0.006 C 
ENDBRANCH   8  11
ENDBRANCH   7   8
ENDBRANCH   1   7
BRANCH   6  13
ATOM     13  N   LIG d   1      -4.508  74.836 115.995  0.00  0.00    -0.311 N 
ATOM     14  C   LIG d   1      -3.382  74.446 116.589  0.00  0.00     0.210 C 
ATOM     15  C   LIG d   1      -2.155  74.389 115.674  0.00  0.00     0.109 C 
ATOM     16  O   LIG d   1      -3.289  74.112 117.779  0.00  0.00    -0.276 OA
ATOM     17  H   LIG d   1      -4.500  75.057 115.018  0.00  0.00     0.149 HD
ENDBRANCH   6  13
BRANCH   5  18
ATOM     18  N   LIG d   1      -6.096  72.519 117.197  0.00  0.00     0.381 N 
ATOM     19  H   LIG d   1      -6.718  72.154 117.890  0.00  0.00    -0.090 HD
ATOM     20  H   LIG d   1      -5.238  72.781 117.650  0.00  0.00    -0.090 HD
ATOM     21  H   LIG d   1      -5.915  71.826 116.504  0.00  0.00    -0.090 HD
ENDBRANCH   5  18
BRANCH   3  22
ATOM     22  C   LIG d   1     -10.030  75.228 116.851  0.00  0.00     0.382 C 
ATOM     23  O   LIG d   1     -10.618  75.944 117.698  0.00  0.00    -0.241 OA
ATOM     24  O   LIG d   1     -10.700  74.544 116.055  0.00  0.00    -0.241 OA
ENDBRANCH   3  22
TORSDOF 7
ENDMDL
MODEL 9
REMARK VINA RESULT:      -5.2      1.441      2.124
REMARK  7 active torsions:
REMARK  status: ('A' for Active; 'I' for Inactive)
REMARK    1  A    between atoms: C_2  and  C_3 
REMARK    2  A    between atoms: C_3  and  O_6 
REMARK    3  A    between atoms: C_3  and  C_4 
REMARK    4  A    between atoms: C_7  and  O_6 
REMARK    5  A    between atoms: C_9  and  C_10 
REMARK    6  A    between atoms: N_15  and  C_14 
REMARK    7  A    between atoms: N_20  and  C_19 
REMARK       I    between atoms: C_22  and  N_20 
ROOT
ATOM      1  C   LIG d   1      -7.694  75.133 118.433  0.00  0.00     0.161 C 
ATOM      2  C   LIG d   1      -7.527  73.875 117.832  0.00  0.00     0.016 C 
ATOM      3  C   LIG d   1      -8.536  73.232 117.079  0.00  0.00     0.038 C 
ATOM      4  C   LIG d   1      -9.737  73.876 116.747  0.00  0.00     0.028 C 
ATOM      5  C   LIG d   1     -10.150  74.944 117.753  0.00  0.00    -0.047 C 
ATOM      6  C   LIG d   1      -8.958  75.900 117.989  0.00  0.00     0.091 C 
ENDROOT
BRANCH   1   7
ATOM      7  O   LIG d   1      -6.518  75.938 118.217  0.00  0.00    -0.368 OA
BRANCH   7   8
ATOM      8  C   LIG d   1      -5.854  76.429 119.408  0.00  0.00     0.119 C 
BRANCH   8   9
ATOM      9  C   LIG d   1      -4.364  76.053 119.295  0.00  0.00     0.028 C 
ATOM     10  C   LIG d   1      -3.526  77.165 118.643  0.00  0.00     0.006 C 
ENDBRANCH   8   9
BRANCH   8  11
ATOM     11  C   LIG d   1      -6.359  75.712 120.663  0.00  0.00     0.028 C 
ATOM     12  C   LIG d   1      -5.653  76.184 121.944  0.00  0.00     0.006 C 
ENDBRANCH   8  11
ENDBRANCH   7   8
ENDBRANCH   1   7
BRANCH   6  13
ATOM     13  N   LIG d   1      -9.249  76.925 119.024  0.00  0.00    -0.311 N 
ATOM     14  C   LIG d   1      -9.012  78.225 118.855  0.00  0.00     0.210 C 
ATOM     15  C   LIG d   1      -9.367  79.108 120.055  0.00  0.00     0.109 C 
ATOM     16  O   LIG d   1      -8.571  78.734 117.814  0.00  0.00    -0.276 OA
ATOM     17  H   LIG d   1      -9.638  76.603 119.889  0.00  0.00     0.149 HD
ENDBRANCH   6  13
BRANCH   5  18
ATOM     18  N   LIG d   1     -11.341  75.628 117.214  0.00  0.00     0.381 N 
ATOM     19  H   LIG d   1     -11.320  76.596 117.468  0.00  0.00    -0.090 HD
ATOM     20  H   LIG d   1     -12.163  75.214 117.617  0.00  0.00    -0.090 HD
ATOM     21  H   LIG d   1     -11.366  75.537 116.222  0.00  0.00    -0.090 HD
ENDBRANCH   5  18
BRANCH   3  22
ATOM     22  C   LIG d   1      -8.363  71.914 116.683  0.00  0.00     0.382 C 
ATOM     23  O   LIG d   1      -7.366  71.592 115.994  0.00  0.00    -0.241 OA
ATOM     24  O   LIG d   1      -9.216  71.052 116.969  0.00  0.00    -0.241 OA
ENDBRANCH   3  22
TORSDOF 7
ENDMDL
