MODEL 1
REMARK VINA RESULT:      -4.4      0.000      0.000
REMARK  7 active torsions:
REMARK  status: ('A' for Active; 'I' for Inactive)
REMARK    1  A    between atoms: C_2  and  C_3 
REMARK    2  A    between atoms: C_3  and  O_6 
REMARK    3  A    between atoms: C_3  and  C_4 
REMARK    4  A    between atoms: C_7  and  O_6 
REMARK    5  A    between atoms: C_9  and  C_10 
REMARK    6  A    between atoms: N_15  and  C_14 
REMARK    7  A    between atoms: N_20  and  C_19 
REMARK       I    between atoms: C_22  and  N_20 
ROOT
ATOM      1  C   LIG d   1      -4.860  94.720 120.596  0.00  0.00     0.161 C 
ATOM      2  C   LIG d   1      -6.115  94.220 120.211  0.00  0.00     0.016 C 
ATOM      3  C   LIG d   1      -7.069  94.980 119.496  0.00  0.00     0.038 C 
ATOM      4  C   LIG d   1      -6.771  96.252 118.984  0.00  0.00     0.028 C 
ATOM      5  C   LIG d   1      -5.701  96.991 119.781  0.00  0.00    -0.047 C 
ATOM      6  C   LIG d   1      -4.474  96.067 119.950  0.00  0.00     0.091 C 
ENDROOT
BRANCH   1   7
ATOM      7  O   LIG d   1      -3.842  93.732 120.342  0.00  0.00    -0.368 OA
BRANCH   7   8
ATOM      8  C   LIG d   1      -3.410  93.601 118.965  0.00  0.00     0.119 C 
BRANCH   8   9
ATOM      9  C   LIG d   1      -3.545  92.115 118.578  0.00  0.00     0.028 C 
ATOM     10  C   LIG d   1      -4.713  91.865 117.609  0.00  0.00     0.006 C 
ENDBRANCH   8   9
BRANCH   8  11
ATOM     11  C   LIG d   1      -1.922  93.926 118.814  0.00  0.00     0.028 C 
ATOM     12  C   LIG d   1      -1.154  93.834 120.142  0.00  0.00     0.006 C 
ENDBRANCH   8  11
ENDBRANCH   7   8
ENDBRANCH   1   7
BRANCH   6  13
ATOM     13  N   LIG d   1      -3.413  96.682 120.790  0.00  0.00    -0.311 N 
ATOM     14  C   LIG d   1      -2.402  97.391 120.291  0.00  0.00     0.210 C 
ATOM     15  C   LIG d   1      -1.408  97.919 121.330  0.00  0.00     0.109 C 
ATOM     16  O   LIG d   1      -2.252  97.661 119.090  0.00  0.00    -0.276 OA
ATOM     17  H   LIG d   1      -3.475  96.539 121.779  0.00  0.00     0.149 HD
ENDBRANCH   6  13
BRANCH   5  18
ATOM     18  N   LIG d   1      -5.391  98.239 119.059  0.00  0.00     0.381 N 
ATOM     19  H   LIG d   1      -6.240  98.699 118.797  0.00  0.00    -0.090 HD
ATOM     20  H   LIG d   1      -4.883  98.013 118.222  0.00  0.00    -0.090 HD
ATOM     21  H   LIG d   1      -4.844  98.839 119.636  0.00  0.00    -0.090 HD
ENDBRANCH   5  18
BRANCH   3  22
ATOM     22  C   LIG d   1      -8.352  94.484 119.323  0.00  0.00     0.382 C 
ATOM     23  O   LIG d   1      -8.748  93.514 120.013  0.00  0.00    -0.241 OA
ATOM     24  O   LIG d   1      -9.104  94.967 118.455  0.00  0.00    -0.241 OA
ENDBRANCH   3  22
TORSDOF 7
ENDMDL
MODEL 2
REMARK VINA RESULT:      -4.4      2.246      3.981
REMARK  7 active torsions:
REMARK  status: ('A' for Active; 'I' for Inactive)
REMARK    1  A    between atoms: C_2  and  C_3 
REMARK    2  A    between atoms: C_3  and  O_6 
REMARK    3  A    between atoms: C_3  and  C_4 
REMARK    4  A    between atoms: C_7  and  O_6 
REMARK    5  A    between atoms: C_9  and  C_10 
REMARK    6  A    between atoms: N_15  and  C_14 
REMARK    7  A    between atoms: N_20  and  C_19 
REMARK       I    between atoms: C_22  and  N_20 
ROOT
ATOM      1  C   LIG d   1      -4.566  94.555 119.742  0.00  0.00     0.161 C 
ATOM      2  C   LIG d   1      -5.893  94.530 120.203  0.00  0.00     0.016 C 
ATOM      3  C   LIG d   1      -6.770  93.440 119.993  0.00  0.00     0.038 C 
ATOM      4  C   LIG d   1      -6.329  92.231 119.434  0.00  0.00     0.028 C 
ATOM      5  C   LIG d   1      -5.135  92.395 118.500  0.00  0.00    -0.047 C 
ATOM      6  C   LIG d   1      -4.034  93.200 119.229  0.00  0.00     0.091 C 
ENDROOT
BRANCH   1   7
ATOM      7  O   LIG d   1      -3.701  95.075 120.772  0.00  0.00    -0.368 OA
BRANCH   7   8
ATOM      8  C   LIG d   1      -3.093  96.361 120.502  0.00  0.00     0.119 C 
BRANCH   8   9
ATOM      9  C   LIG d   1      -3.620  96.847 119.138  0.00  0.00     0.028 C 
ATOM     10  C   LIG d   1      -4.301  98.223 119.228  0.00  0.00     0.006 C 
ENDBRANCH   8   9
BRANCH   8  11
ATOM     11  C   LIG d   1      -1.576  96.235 120.329  0.00  0.00     0.028 C 
ATOM     12  C   LIG d   1      -0.985  95.045 121.101  0.00  0.00     0.006 C 
ENDBRANCH   8  11
ENDBRANCH   7   8
ENDBRANCH   1   7
BRANCH   6  13
ATOM     13  N   LIG d   1      -2.864  93.478 118.356  0.00  0.00    -0.311 N 
ATOM     14  C   LIG d   1      -1.770  92.719 118.333  0.00  0.00     0.210 C 
ATOM     15  C   LIG d   1      -0.672  93.195 117.377  0.00  0.00     0.109 C 
ATOM     16  O   LIG d   1      -1.617  91.679 118.991  0.00  0.00    -0.276 OA
ATOM     17  H   LIG d   1      -2.916  94.286 117.767  0.00  0.00     0.149 HD
ENDBRANCH   6  13
BRANCH   5  18
ATOM     18  N   LIG d   1      -4.694  91.046 118.099  0.00  0.00     0.381 N 
ATOM     19  H   LIG d   1      -3.739  91.076 117.802  0.00  0.00    -0.090 HD
ATOM     20  H   LIG d   1      -5.255  90.737 117.325  0.00  0.00    -0.090 HD
ATOM     21  H   LIG d   1      -4.793  90.414 118.863  0.00  0.00    -0.090 HD
ENDBRANCH   5  18
BRANCH   3  22
ATOM     22  C   LIG d   1      -8.114  93.569 120.306  0.00  0.00     0.382 C 
ATOM     23  O   LIG d   1      -8.518  93.293 121.462  0.00  0.00    -0.241 OA
ATOM     24  O   LIG d   1      -8.935  93.917 119.437  0.00  0.00    -0.241 OA
ENDBRANCH   3  22
TORSDOF 7
ENDMDL
MODEL 3
REMARK VINA RESULT:      -4.4     13.306     15.551
REMARK  7 active torsions:
REMARK  status: ('A' for Active; 'I' for Inactive)
REMARK    1  A    between atoms: C_2  and  C_3 
REMARK    2  A    between atoms: C_3  and  O_6 
REMARK    3  A    between atoms: C_3  and  C_4 
REMARK    4  A    between atoms: C_7  and  O_6 
REMARK    5  A    between atoms: C_9  and  C_10 
REMARK    6  A    between atoms: N_15  and  C_14 
REMARK    7  A    between atoms: N_20  and  C_19 
REMARK       I    between atoms: C_22  and  N_20 
ROOT
ATOM      1  C   LIG d   1      -9.681  79.999 120.759  0.00  0.00     0.161 C 
ATOM      2  C   LIG d   1      -9.314  78.891 119.977  0.00  0.00     0.016 C 
ATOM      3  C   LIG d   1      -9.268  78.918 118.564  0.00  0.00     0.038 C 
ATOM      4  C   LIG d   1      -9.442  80.106 117.839  0.00  0.00     0.028 C 
ATOM      5  C   LIG d   1     -10.311  81.133 118.558  0.00  0.00    -0.047 C 
ATOM      6  C   LIG d   1      -9.767  81.334 119.991  0.00  0.00     0.091 C 
ENDROOT
BRANCH   1   7
ATOM      7  O   LIG d   1      -8.786  80.123 121.881  0.00  0.00    -0.368 OA
BRANCH   7   8
ATOM      8  C   LIG d   1      -7.609  80.942 121.670  0.00  0.00     0.119 C 
BRANCH   8   9
ATOM      9  C   LIG d   1      -6.382  80.012 121.724  0.00  0.00     0.028 C 
ATOM     10  C   LIG d   1      -5.725  79.826 120.346  0.00  0.00     0.006 C 
ENDBRANCH   8   9
BRANCH   8  11
ATOM     11  C   LIG d   1      -7.412  81.940 122.815  0.00  0.00     0.028 C 
ATOM     12  C   LIG d   1      -8.564  81.915 123.832  0.00  0.00     0.006 C 
ENDBRANCH   8  11
ENDBRANCH   7   8
ENDBRANCH   1   7
BRANCH   6  13
ATOM     13  N   LIG d   1     -10.609  82.260 120.791  0.00  0.00    -0.311 N 
ATOM     14  C   LIG d   1     -10.321  83.549 120.964  0.00  0.00     0.210 C 
ATOM     15  C   LIG d   1     -11.311  84.321 121.842  0.00  0.00     0.109 C 
ATOM     16  O   LIG d   1      -9.357  84.133 120.448  0.00  0.00    -0.276 OA
ATOM     17  H   LIG d   1     -11.429  81.876 121.221  0.00  0.00     0.149 HD
ENDBRANCH   6  13
BRANCH   5  18
ATOM     18  N   LIG d   1     -10.295  82.370 117.755  0.00  0.00     0.381 N 
ATOM     19  H   LIG d   1      -9.499  82.923 118.000  0.00  0.00    -0.090 HD
ATOM     20  H   LIG d   1     -11.123  82.901 117.960  0.00  0.00    -0.090 HD
ATOM     21  H   LIG d   1     -10.267  82.146 116.784  0.00  0.00    -0.090 HD
ENDBRANCH   5  18
BRANCH   3  22
ATOM     22  C   LIG d   1      -9.084  77.737 117.860  0.00  0.00     0.382 C 
ATOM     23  O   LIG d   1      -7.930  77.382 117.522  0.00  0.00    -0.241 OA
ATOM     24  O   LIG d   1     -10.063  77.046 117.521  0.00  0.00    -0.241 OA
ENDBRANCH   3  22
TORSDOF 7
ENDMDL
MODEL 4
REMARK VINA RESULT:      -4.3     20.224     22.716
REMARK  7 active torsions:
REMARK  status: ('A' for Active; 'I' for Inactive)
REMARK    1  A    between atoms: C_2  and  C_3 
REMARK    2  A    between atoms: C_3  and  O_6 
REMARK    3  A    between atoms: C_3  and  C_4 
REMARK    4  A    between atoms: C_7  and  O_6 
REMARK    5  A    between atoms: C_9  and  C_10 
REMARK    6  A    between atoms: N_15  and  C_14 
REMARK    7  A    between atoms: N_20  and  C_19 
REMARK       I    between atoms: C_22  and  N_20 
ROOT
ATOM      1  C   LIG d   1     -18.769  77.603 120.704  0.00  0.00     0.161 C 
ATOM      2  C   LIG d   1     -19.343  78.797 120.236  0.00  0.00     0.016 C 
ATOM      3  C   LIG d   1     -18.706  80.056 120.331  0.00  0.00     0.038 C 
ATOM      4  C   LIG d   1     -17.379  80.184 120.768  0.00  0.00     0.028 C 
ATOM      5  C   LIG d   1     -16.945  79.076 121.720  0.00  0.00    -0.047 C 
ATOM      6  C   LIG d   1     -17.277  77.707 121.082  0.00  0.00     0.091 C 
ENDROOT
BRANCH   1   7
ATOM      7  O   LIG d   1     -18.969  76.553 119.737  0.00  0.00    -0.368 OA
BRANCH   7   8
ATOM      8  C   LIG d   1     -19.788  75.438 120.167  0.00  0.00     0.119 C 
BRANCH   8   9
ATOM      9  C   LIG d   1     -19.019  74.144 119.838  0.00  0.00     0.028 C 
ATOM     10  C   LIG d   1     -19.202  73.062 120.916  0.00  0.00     0.006 C 
ENDBRANCH   8   9
BRANCH   8  11
ATOM     11  C   LIG d   1     -21.086  75.355 119.358  0.00  0.00     0.028 C 
ATOM     12  C   LIG d   1     -22.169  76.318 119.869  0.00  0.00     0.006 C 
ENDBRANCH   8  11
ENDBRANCH   7   8
ENDBRANCH   1   7
BRANCH   6  13
ATOM     13  N   LIG d   1     -16.961  76.569 121.985  0.00  0.00    -0.311 N 
ATOM     14  C   LIG d   1     -16.143  75.574 121.650  0.00  0.00     0.210 C 
ATOM     15  C   LIG d   1     -15.970  74.491 122.720  0.00  0.00     0.109 C 
ATOM     16  O   LIG d   1     -15.518  75.500 120.581  0.00  0.00    -0.276 OA
ATOM     17  H   LIG d   1     -17.401  76.565 122.884  0.00  0.00     0.149 HD
ENDBRANCH   6  13
BRANCH   5  18
ATOM     18  N   LIG d   1     -15.505  79.255 121.987  0.00  0.00     0.381 N 
ATOM     19  H   LIG d   1     -15.224  78.662 122.741  0.00  0.00    -0.090 HD
ATOM     20  H   LIG d   1     -15.341  80.209 122.257  0.00  0.00    -0.090 HD
ATOM     21  H   LIG d   1     -14.978  79.038 121.170  0.00  0.00    -0.090 HD
ENDBRANCH   5  18
BRANCH   3  22
ATOM     22  C   LIG d   1     -19.413  81.208 120.024  0.00  0.00     0.382 C 
ATOM     23  O   LIG d   1     -18.953  82.022 119.187  0.00  0.00    -0.241 OA
ATOM     24  O   LIG d   1     -20.484  81.467 120.606  0.00  0.00    -0.241 OA
ENDBRANCH   3  22
TORSDOF 7
ENDMDL
MODEL 5
REMARK VINA RESULT:      -4.3     13.516     15.885
REMARK  7 active torsions:
REMARK  status: ('A' for Active; 'I' for Inactive)
REMARK    1  A    between atoms: C_2  and  C_3 
REMARK    2  A    between atoms: C_3  and  O_6 
REMARK    3  A    between atoms: C_3  and  C_4 
REMARK    4  A    between atoms: C_7  and  O_6 
REMARK    5  A    between atoms: C_9  and  C_10 
REMARK    6  A    between atoms: N_15  and  C_14 
REMARK    7  A    between atoms: N_20  and  C_19 
REMARK       I    between atoms: C_22  and  N_20 
ROOT
ATOM      1  C   LIG d   1      -9.182  80.766 120.724  0.00  0.00     0.161 C 
ATOM      2  C   LIG d   1      -9.651  81.921 121.370  0.00  0.00     0.016 C 
ATOM      3  C   LIG d   1     -10.298  82.982 120.695  0.00  0.00     0.038 C 
ATOM      4  C   LIG d   1     -10.657  82.891 119.342  0.00  0.00     0.028 C 
ATOM      5  C   LIG d   1      -9.756  81.959 118.538  0.00  0.00    -0.047 C 
ATOM      6  C   LIG d   1      -9.663  80.599 119.267  0.00  0.00     0.091 C 
ENDROOT
BRANCH   1   7
ATOM      7  O   LIG d   1      -9.521  79.600 121.500  0.00  0.00    -0.368 OA
BRANCH   7   8
ATOM      8  C   LIG d   1      -8.481  79.087 122.368  0.00  0.00     0.119 C 
BRANCH   8   9
ATOM      9  C   LIG d   1      -7.920  77.809 121.715  0.00  0.00     0.028 C 
ATOM     10  C   LIG d   1      -6.536  78.033 121.081  0.00  0.00     0.006 C 
ENDBRANCH   8   9
BRANCH   8  11
ATOM     11  C   LIG d   1      -9.051  78.637 123.716  0.00  0.00     0.028 C 
ATOM     12  C   LIG d   1      -7.959  78.285 124.739  0.00  0.00     0.006 C 
ENDBRANCH   8  11
ENDBRANCH   7   8
ENDBRANCH   1   7
BRANCH   6  13
ATOM     13  N   LIG d   1      -8.733  79.656 118.592  0.00  0.00    -0.311 N 
ATOM     14  C   LIG d   1      -9.087  78.435 118.195  0.00  0.00     0.210 C 
ATOM     15  C   LIG d   1      -7.970  77.620 117.537  0.00  0.00     0.109 C 
ATOM     16  O   LIG d   1     -10.230  77.963 118.295  0.00  0.00    -0.276 OA
ATOM     17  H   LIG d   1      -7.794  79.971 118.441  0.00  0.00     0.149 HD
ENDBRANCH   6  13
BRANCH   5  18
ATOM     18  N   LIG d   1     -10.324  81.850 117.181  0.00  0.00     0.381 N 
ATOM     19  H   LIG d   1      -9.649  82.148 116.506  0.00  0.00    -0.090 HD
ATOM     20  H   LIG d   1     -11.124  82.454 117.115  0.00  0.00    -0.090 HD
ATOM     21  H   LIG d   1     -10.594  80.909 116.999  0.00  0.00    -0.090 HD
ENDBRANCH   5  18
BRANCH   3  22
ATOM     22  C   LIG d   1     -10.557  84.167 121.367  0.00  0.00     0.382 C 
ATOM     23  O   LIG d   1     -11.721  84.422 121.761  0.00  0.00    -0.241 OA
ATOM     24  O   LIG d   1      -9.652  85.004 121.544  0.00  0.00    -0.241 OA
ENDBRANCH   3  22
TORSDOF 7
ENDMDL
MODEL 6
REMARK VINA RESULT:      -4.2     12.903     15.257
REMARK  7 active torsions:
REMARK  status: ('A' for Active; 'I' for Inactive)
REMARK    1  A    between atoms: C_2  and  C_3 
REMARK    2  A    between atoms: C_3  and  O_6 
REMARK    3  A    between atoms: C_3  and  C_4 
REMARK    4  A    between atoms: C_7  and  O_6 
REMARK    5  A    between atoms: C_9  and  C_10 
REMARK    6  A    between atoms: N_15  and  C_14 
REMARK    7  A    between atoms: N_20  and  C_19 
REMARK       I    between atoms: C_22  and  N_20 
ROOT
ATOM      1  C   LIG d   1      -8.170  81.614 120.616  0.00  0.00     0.161 C 
ATOM      2  C   LIG d   1      -8.920  82.620 121.247  0.00  0.00     0.016 C 
ATOM      3  C   LIG d   1     -10.016  83.272 120.637  0.00  0.00     0.038 C 
ATOM      4  C   LIG d   1     -10.534  82.853 119.402  0.00  0.00     0.028 C 
ATOM      5  C   LIG d   1      -9.499  82.179 118.508  0.00  0.00    -0.047 C 
ATOM      6  C   LIG d   1      -8.789  81.067 119.313  0.00  0.00     0.091 C 
ENDROOT
BRANCH   1   7
ATOM      7  O   LIG d   1      -7.919  80.538 121.542  0.00  0.00    -0.368 OA
BRANCH   7   8
ATOM      8  C   LIG d   1      -8.909  79.481 121.573  0.00  0.00     0.119 C 
BRANCH   8   9
ATOM      9  C   LIG d   1      -9.623  79.556 122.937  0.00  0.00     0.028 C 
ATOM     10  C   LIG d   1     -11.082  80.026 122.810  0.00  0.00     0.006 C 
ENDBRANCH   8   9
BRANCH   8  11
ATOM     11  C   LIG d   1      -8.249  78.099 121.537  0.00  0.00     0.028 C 
ATOM     12  C   LIG d   1      -6.735  78.168 121.280  0.00  0.00     0.006 C 
ENDBRANCH   8  11
ENDBRANCH   7   8
ENDBRANCH   1   7
BRANCH   6  13
ATOM     13  N   LIG d   1      -7.702  80.413 118.538  0.00  0.00    -0.311 N 
ATOM     14  C   LIG d   1      -7.851  79.252 117.902  0.00  0.00     0.210 C 
ATOM     15  C   LIG d   1      -6.599  78.745 117.181  0.00  0.00     0.109 C 
ATOM     16  O   LIG d   1      -8.911  78.611 117.839  0.00  0.00    -0.276 OA
ATOM     17  H   LIG d   1      -6.817  80.880 118.510  0.00  0.00     0.149 HD
ENDBRANCH   6  13
BRANCH   5  18
ATOM     18  N   LIG d   1     -10.203  81.671 117.316  0.00  0.00     0.381 N 
ATOM     19  H   LIG d   1     -10.513  82.437 116.753  0.00  0.00    -0.090 HD
ATOM     20  H   LIG d   1     -11.010  81.150 117.612  0.00  0.00    -0.090 HD
ATOM     21  H   LIG d   1      -9.597  81.084 116.786  0.00  0.00    -0.090 HD
ENDBRANCH   5  18
BRANCH   3  22
ATOM     22  C   LIG d   1     -10.581  84.382 121.246  0.00  0.00     0.382 C 
ATOM     23  O   LIG d   1      -9.867  85.373 121.529  0.00  0.00    -0.241 OA
ATOM     24  O   LIG d   1     -11.788  84.387 121.555  0.00  0.00    -0.241 OA
ENDBRANCH   3  22
TORSDOF 7
ENDMDL
MODEL 7
REMARK VINA RESULT:      -4.1     11.655     13.913
REMARK  7 active torsions:
REMARK  status: ('A' for Active; 'I' for Inactive)
REMARK    1  A    between atoms: C_2  and  C_3 
REMARK    2  A    between atoms: C_3  and  O_6 
REMARK    3  A    between atoms: C_3  and  C_4 
REMARK    4  A    between atoms: C_7  and  O_6 
REMARK    5  A    between atoms: C_9  and  C_10 
REMARK    6  A    between atoms: N_15  and  C_14 
REMARK    7  A    between atoms: N_20  and  C_19 
REMARK       I    between atoms: C_22  and  N_20 
ROOT
ATOM      1  C   LIG d   1      -9.665  83.331 120.835  0.00  0.00     0.161 C 
ATOM      2  C   LIG d   1      -9.737  84.705 121.116  0.00  0.00     0.016 C 
ATOM      3  C   LIG d   1     -10.452  85.239 122.213  0.00  0.00     0.038 C 
ATOM      4  C   LIG d   1     -11.023  84.417 123.196  0.00  0.00     0.028 C 
ATOM      5  C   LIG d   1     -11.405  83.034 122.682  0.00  0.00    -0.047 C 
ATOM      6  C   LIG d   1     -10.188  82.413 121.959  0.00  0.00     0.091 C 
ENDROOT
BRANCH   1   7
ATOM      7  O   LIG d   1      -8.313  82.974 120.485  0.00  0.00    -0.368 OA
BRANCH   7   8
ATOM      8  C   LIG d   1      -8.029  82.864 119.068  0.00  0.00     0.119 C 
BRANCH   8   9
ATOM      9  C   LIG d   1      -9.311  82.362 118.377  0.00  0.00     0.028 C 
ATOM     10  C   LIG d   1      -9.149  80.946 117.798  0.00  0.00     0.006 C 
ENDBRANCH   8   9
BRANCH   8  11
ATOM     11  C   LIG d   1      -6.972  81.791 118.793  0.00  0.00     0.028 C 
ATOM     12  C   LIG d   1      -6.027  81.566 119.984  0.00  0.00     0.006 C 
ENDBRANCH   8  11
ENDBRANCH   7   8
ENDBRANCH   1   7
BRANCH   6  13
ATOM     13  N   LIG d   1     -10.502  81.093 121.352  0.00  0.00    -0.311 N 
ATOM     14  C   LIG d   1      -9.682  80.045 121.410  0.00  0.00     0.210 C 
ATOM     15  C   LIG d   1     -10.190  78.786 120.702  0.00  0.00     0.109 C 
ATOM     16  O   LIG d   1      -8.596  80.030 122.009  0.00  0.00    -0.276 OA
ATOM     17  H   LIG d   1     -11.377  81.008 120.874  0.00  0.00     0.149 HD
ENDBRANCH   6  13
BRANCH   5  18
ATOM     18  N   LIG d   1     -11.859  82.238 123.839  0.00  0.00     0.381 N 
ATOM     19  H   LIG d   1     -11.238  81.466 123.983  0.00  0.00    -0.090 HD
ATOM     20  H   LIG d   1     -12.775  81.874 123.644  0.00  0.00    -0.090 HD
ATOM     21  H   LIG d   1     -11.886  82.808 124.655  0.00  0.00    -0.090 HD
ENDBRANCH   5  18
BRANCH   3  22
ATOM     22  C   LIG d   1     -10.635  86.610 122.312  0.00  0.00     0.382 C 
ATOM     23  O   LIG d   1     -11.702  87.130 121.906  0.00  0.00    -0.241 OA
ATOM     24  O   LIG d   1      -9.730  87.338 122.762  0.00  0.00    -0.241 OA
ENDBRANCH   3  22
TORSDOF 7
ENDMDL
MODEL 8
REMARK VINA RESULT:      -4.1     13.948     16.234
REMARK  7 active torsions:
REMARK  status: ('A' for Active; 'I' for Inactive)
REMARK    1  A    between atoms: C_2  and  C_3 
REMARK    2  A    between atoms: C_3  and  O_6 
REMARK    3  A    between atoms: C_3  and  C_4 
REMARK    4  A    between atoms: C_7  and  O_6 
REMARK    5  A    between atoms: C_9  and  C_10 
REMARK    6  A    between atoms: N_15  and  C_14 
REMARK    7  A    between atoms: N_20  and  C_19 
REMARK       I    between atoms: C_22  and  N_20 
ROOT
ATOM      1  C   LIG d   1     -10.237  80.015 120.436  0.00  0.00     0.161 C 
ATOM      2  C   LIG d   1      -9.828  78.896 119.692  0.00  0.00     0.016 C 
ATOM      3  C   LIG d   1      -9.154  78.989 118.452  0.00  0.00     0.038 C 
ATOM      4  C   LIG d   1      -8.705  80.216 117.943  0.00  0.00     0.028 C 
ATOM      5  C   LIG d   1      -9.536  81.406 118.410  0.00  0.00    -0.047 C 
ATOM      6  C   LIG d   1      -9.657  81.360 119.950  0.00  0.00     0.091 C 
ENDROOT
BRANCH   1   7
ATOM      7  O   LIG d   1      -9.932  79.813 121.830  0.00  0.00    -0.368 OA
BRANCH   7   8
ATOM      8  C   LIG d   1     -10.699  78.787 122.507  0.00  0.00     0.119 C 
BRANCH   8   9
ATOM      9  C   LIG d   1     -11.485  79.471 123.643  0.00  0.00     0.028 C 
ATOM     10  C   LIG d   1     -11.326  81.000 123.628  0.00  0.00     0.006 C 
ENDBRANCH   8   9
BRANCH   8  11
ATOM     11  C   LIG d   1      -9.784  77.773 123.200  0.00  0.00     0.028 C 
ATOM     12  C   LIG d   1      -8.317  77.894 122.757  0.00  0.00     0.006 C 
ENDBRANCH   8  11
ENDBRANCH   7   8
ENDBRANCH   1   7
BRANCH   6  13
ATOM     13  N   LIG d   1     -10.526  82.443 120.483  0.00  0.00    -0.311 N 
ATOM     14  C   LIG d   1     -10.055  83.598 120.949  0.00  0.00     0.210 C 
ATOM     15  C   LIG d   1     -11.120  84.567 121.470  0.00  0.00     0.109 C 
ATOM     16  O   LIG d   1      -8.858  83.925 120.951  0.00  0.00    -0.276 OA
ATOM     17  H   LIG d   1     -11.512  82.274 120.490  0.00  0.00     0.149 HD
ENDBRANCH   6  13
BRANCH   5  18
ATOM     18  N   LIG d   1      -8.877  82.631 117.918  0.00  0.00     0.381 N 
ATOM     19  H   LIG d   1      -8.069  82.827 118.474  0.00  0.00    -0.090 HD
ATOM     20  H   LIG d   1      -9.516  83.401 118.006  0.00  0.00    -0.090 HD
ATOM     21  H   LIG d   1      -8.613  82.516 116.964  0.00  0.00    -0.090 HD
ENDBRANCH   5  18
BRANCH   3  22
ATOM     22  C   LIG d   1      -8.958  77.847 117.690  0.00  0.00     0.382 C 
ATOM     23  O   LIG d   1      -9.891  77.021 117.546  0.00  0.00    -0.241 OA
ATOM     24  O   LIG d   1      -7.846  77.612 117.180  0.00  0.00    -0.241 OA
ENDBRANCH   3  22
TORSDOF 7
ENDMDL
MODEL 9
REMARK VINA RESULT:      -4.0     20.663     22.916
REMARK  7 active torsions:
REMARK  status: ('A' for Active; 'I' for Inactive)
REMARK    1  A    between atoms: C_2  and  C_3 
REMARK    2  A    between atoms: C_3  and  O_6 
REMARK    3  A    between atoms: C_3  and  C_4 
REMARK    4  A    between atoms: C_7  and  O_6 
REMARK    5  A    between atoms: C_9  and  C_10 
REMARK    6  A    between atoms: N_15  and  C_14 
REMARK    7  A    between atoms: N_20  and  C_19 
REMARK       I    between atoms: C_22  and  N_20 
ROOT
ATOM      1  C   LIG d   1     -18.121  77.400 119.713  0.00  0.00     0.161 C 
ATOM      2  C   LIG d   1     -17.343  76.269 120.011  0.00  0.00     0.016 C 
ATOM      3  C   LIG d   1     -16.329  76.260 120.996  0.00  0.00     0.038 C 
ATOM      4  C   LIG d   1     -16.125  77.345 121.861  0.00  0.00     0.028 C 
ATOM      5  C   LIG d   1     -16.546  78.683 121.263  0.00  0.00    -0.047 C 
ATOM      6  C   LIG d   1     -17.989  78.560 120.723  0.00  0.00     0.091 C 
ENDROOT
BRANCH   1   7
ATOM      7  O   LIG d   1     -19.503  77.018 119.568  0.00  0.00    -0.368 OA
BRANCH   7   8
ATOM      8  C   LIG d   1     -19.931  75.868 120.338  0.00  0.00     0.119 C 
BRANCH   8   9
ATOM      9  C   LIG d   1     -21.033  75.154 119.531  0.00  0.00     0.028 C 
ATOM     10  C   LIG d   1     -22.425  75.758 119.777  0.00  0.00     0.006 C 
ENDBRANCH   8   9
BRANCH   8  11
ATOM     11  C   LIG d   1     -20.599  76.292 121.649  0.00  0.00     0.028 C 
ATOM     12  C   LIG d   1     -19.734  75.991 122.883  0.00  0.00     0.006 C 
ENDBRANCH   8  11
ENDBRANCH   7   8
ENDBRANCH   1   7
BRANCH   6  13
ATOM     13  N   LIG d   1     -18.449  79.800 120.045  0.00  0.00    -0.311 N 
ATOM     14  C   LIG d   1     -19.644  80.349 120.253  0.00  0.00     0.210 C 
ATOM     15  C   LIG d   1     -19.925  81.615 119.438  0.00  0.00     0.109 C 
ATOM     16  O   LIG d   1     -20.487  79.926 121.059  0.00  0.00    -0.276 OA
ATOM     17  H   LIG d   1     -17.816  80.228 119.398  0.00  0.00     0.149 HD
ENDBRANCH   6  13
BRANCH   5  18
ATOM     18  N   LIG d   1     -16.409  79.705 122.318  0.00  0.00     0.381 N 
ATOM     19  H   LIG d   1     -16.608  80.610 121.941  0.00  0.00    -0.090 HD
ATOM     20  H   LIG d   1     -15.461  79.704 122.651  0.00  0.00    -0.090 HD
ATOM     21  H   LIG d   1     -17.033  79.506 123.069  0.00  0.00    -0.090 HD
ENDBRANCH   5  18
BRANCH   3  22
ATOM     22  C   LIG d   1     -15.479  75.169 121.096  0.00  0.00     0.382 C 
ATOM     23  O   LIG d   1     -15.879  74.109 121.636  0.00  0.00    -0.241 OA
ATOM     24  O   LIG d   1     -14.302  75.246 120.694  0.00  0.00    -0.241 OA
ENDBRANCH   3  22
TORSDOF 7
ENDMDL
