MODEL 1
REMARK VINA RESULT:      -5.4      0.000      0.000
REMARK  7 active torsions:
REMARK  status: ('A' for Active; 'I' for Inactive)
REMARK    1  A    between atoms: C_2  and  C_3 
REMARK    2  A    between atoms: C_3  and  O_6 
REMARK    3  A    between atoms: C_3  and  C_4 
REMARK    4  A    between atoms: C_7  and  O_6 
REMARK    5  A    between atoms: C_9  and  C_10 
REMARK    6  A    between atoms: N_15  and  C_14 
REMARK    7  A    between atoms: N_20  and  C_19 
REMARK       I    between atoms: C_22  and  N_20 
ROOT
ATOM      1  C   LIG d   1      -6.232  92.893 118.126  0.00  0.00     0.161 C 
ATOM      2  C   LIG d   1      -6.849  91.896 117.353  0.00  0.00     0.016 C 
ATOM      3  C   LIG d   1      -6.134  90.881 116.677  0.00  0.00     0.038 C 
ATOM      4  C   LIG d   1      -4.754  90.703 116.853  0.00  0.00     0.028 C 
ATOM      5  C   LIG d   1      -4.020  91.989 117.220  0.00  0.00    -0.047 C 
ATOM      6  C   LIG d   1      -4.736  92.650 118.420  0.00  0.00     0.091 C 
ENDROOT
BRANCH   1   7
ATOM      7  O   LIG d   1      -6.960  93.079 119.355  0.00  0.00    -0.368 OA
BRANCH   7   8
ATOM      8  C   LIG d   1      -7.172  94.452 119.769  0.00  0.00     0.119 C 
BRANCH   8   9
ATOM      9  C   LIG d   1      -8.336  94.456 120.779  0.00  0.00     0.028 C 
ATOM     10  C   LIG d   1      -8.560  93.078 121.423  0.00  0.00     0.006 C 
ENDBRANCH   8   9
BRANCH   8  11
ATOM     11  C   LIG d   1      -7.646  95.319 118.600  0.00  0.00     0.028 C 
ATOM     12  C   LIG d   1      -9.089  95.818 118.774  0.00  0.00     0.006 C 
ENDBRANCH   8  11
ENDBRANCH   7   8
ENDBRANCH   1   7
BRANCH   6  13
ATOM     13  N   LIG d   1      -4.133  93.957 118.790  0.00  0.00    -0.311 N 
ATOM     14  C   LIG d   1      -3.194  94.092 119.726  0.00  0.00     0.210 C 
ATOM     15  C   LIG d   1      -2.723  95.529 119.966  0.00  0.00     0.109 C 
ATOM     16  O   LIG d   1      -2.685  93.154 120.357  0.00  0.00    -0.276 OA
ATOM     17  H   LIG d   1      -4.466  94.767 118.306  0.00  0.00     0.149 HD
ENDBRANCH   6  13
BRANCH   5  18
ATOM     18  N   LIG d   1      -2.617  91.634 117.509  0.00  0.00     0.381 N 
ATOM     19  H   LIG d   1      -2.006  92.315 117.104  0.00  0.00    -0.090 HD
ATOM     20  H   LIG d   1      -2.415  90.742 117.093  0.00  0.00    -0.090 HD
ATOM     21  H   LIG d   1      -2.472  91.591 118.493  0.00  0.00    -0.090 HD
ENDBRANCH   5  18
BRANCH   3  22
ATOM     22  C   LIG d   1      -6.795  90.053 115.782  0.00  0.00     0.382 C 
ATOM     23  O   LIG d   1      -7.894  89.537 116.100  0.00  0.00    -0.241 OA
ATOM     24  O   LIG d   1      -6.286  89.781 114.678  0.00  0.00    -0.241 OA
ENDBRANCH   3  22
TORSDOF 7
ENDMDL
MODEL 2
REMARK VINA RESULT:      -5.4      2.365      4.896
REMARK  7 active torsions:
REMARK  status: ('A' for Active; 'I' for Inactive)
REMARK    1  A    between atoms: C_2  and  C_3 
REMARK    2  A    between atoms: C_3  and  O_6 
REMARK    3  A    between atoms: C_3  and  C_4 
REMARK    4  A    between atoms: C_7  and  O_6 
REMARK    5  A    between atoms: C_9  and  C_10 
REMARK    6  A    between atoms: N_15  and  C_14 
REMARK    7  A    between atoms: N_20  and  C_19 
REMARK       I    between atoms: C_22  and  N_20 
ROOT
ATOM      1  C   LIG d   1      -4.551  91.019 117.670  0.00  0.00     0.161 C 
ATOM      2  C   LIG d   1      -5.489  90.463 116.784  0.00  0.00     0.016 C 
ATOM      3  C   LIG d   1      -6.677  91.123 116.393  0.00  0.00     0.038 C 
ATOM      4  C   LIG d   1      -6.935  92.456 116.746  0.00  0.00     0.028 C 
ATOM      5  C   LIG d   1      -6.262  92.879 118.048  0.00  0.00    -0.047 C 
ATOM      6  C   LIG d   1      -4.761  92.516 117.978  0.00  0.00     0.091 C 
ENDROOT
BRANCH   1   7
ATOM      7  O   LIG d   1      -3.217  90.792 117.175  0.00  0.00    -0.368 OA
BRANCH   7   8
ATOM      8  C   LIG d   1      -2.336  90.034 118.040  0.00  0.00     0.119 C 
BRANCH   8   9
ATOM      9  C   LIG d   1      -0.905  90.185 117.490  0.00  0.00     0.028 C 
ATOM     10  C   LIG d   1      -0.126  91.317 118.181  0.00  0.00     0.006 C 
ENDBRANCH   8   9
BRANCH   8  11
ATOM     11  C   LIG d   1      -2.642  88.535 117.972  0.00  0.00     0.028 C 
ATOM     12  C   LIG d   1      -2.712  87.877 119.359  0.00  0.00     0.006 C 
ENDBRANCH   8  11
ENDBRANCH   7   8
ENDBRANCH   1   7
BRANCH   6  13
ATOM     13  N   LIG d   1      -4.045  92.819 119.245  0.00  0.00    -0.311 N 
ATOM     14  C   LIG d   1      -2.918  93.527 119.298  0.00  0.00     0.210 C 
ATOM     15  C   LIG d   1      -2.334  93.707 120.703  0.00  0.00     0.109 C 
ATOM     16  O   LIG d   1      -2.365  94.051 118.320  0.00  0.00    -0.276 OA
ATOM     17  H   LIG d   1      -4.442  92.459 120.090  0.00  0.00     0.149 HD
ENDBRANCH   6  13
BRANCH   5  18
ATOM     18  N   LIG d   1      -6.501  94.324 118.224  0.00  0.00     0.381 N 
ATOM     19  H   LIG d   1      -5.632  94.818 118.179  0.00  0.00    -0.090 HD
ATOM     20  H   LIG d   1      -6.905  94.478 119.131  0.00  0.00    -0.090 HD
ATOM     21  H   LIG d   1      -7.118  94.656 117.517  0.00  0.00    -0.090 HD
ENDBRANCH   5  18
BRANCH   3  22
ATOM     22  C   LIG d   1      -7.641  90.434 115.672  0.00  0.00     0.382 C 
ATOM     23  O   LIG d   1      -8.091  89.347 116.108  0.00  0.00    -0.241 OA
ATOM     24  O   LIG d   1      -8.033  90.864 114.571  0.00  0.00    -0.241 OA
ENDBRANCH   3  22
TORSDOF 7
ENDMDL
MODEL 3
REMARK VINA RESULT:      -5.3     12.637     15.661
REMARK  7 active torsions:
REMARK  status: ('A' for Active; 'I' for Inactive)
REMARK    1  A    between atoms: C_2  and  C_3 
REMARK    2  A    between atoms: C_3  and  O_6 
REMARK    3  A    between atoms: C_3  and  C_4 
REMARK    4  A    between atoms: C_7  and  O_6 
REMARK    5  A    between atoms: C_9  and  C_10 
REMARK    6  A    between atoms: N_15  and  C_14 
REMARK    7  A    between atoms: N_20  and  C_19 
REMARK       I    between atoms: C_22  and  N_20 
ROOT
ATOM      1  C   LIG d   1      -7.805  77.893 118.056  0.00  0.00     0.161 C 
ATOM      2  C   LIG d   1      -8.876  78.608 118.619  0.00  0.00     0.016 C 
ATOM      3  C   LIG d   1      -8.732  79.882 119.216  0.00  0.00     0.038 C 
ATOM      4  C   LIG d   1      -7.527  80.597 119.155  0.00  0.00     0.028 C 
ATOM      5  C   LIG d   1      -6.297  79.704 119.043  0.00  0.00    -0.047 C 
ATOM      6  C   LIG d   1      -6.505  78.706 117.881  0.00  0.00     0.091 C 
ENDROOT
BRANCH   1   7
ATOM      7  O   LIG d   1      -8.210  77.318 116.798  0.00  0.00    -0.368 OA
BRANCH   7   8
ATOM      8  C   LIG d   1      -8.012  75.890 116.656  0.00  0.00     0.119 C 
BRANCH   8   9
ATOM      9  C   LIG d   1      -7.287  75.653 115.317  0.00  0.00     0.028 C 
ATOM     10  C   LIG d   1      -6.048  74.755 115.471  0.00  0.00     0.006 C 
ENDBRANCH   8   9
BRANCH   8  11
ATOM     11  C   LIG d   1      -9.348  75.152 116.530  0.00  0.00     0.028 C 
ATOM     12  C   LIG d   1      -9.239  73.659 116.879  0.00  0.00     0.006 C 
ENDBRANCH   8  11
ENDBRANCH   7   8
ENDBRANCH   1   7
BRANCH   6  13
ATOM     13  N   LIG d   1      -5.384  77.739 117.757  0.00  0.00    -0.311 N 
ATOM     14  C   LIG d   1      -4.373  77.895 116.904  0.00  0.00     0.210 C 
ATOM     15  C   LIG d   1      -3.332  76.771 116.922  0.00  0.00     0.109 C 
ATOM     16  O   LIG d   1      -4.222  78.874 116.157  0.00  0.00    -0.276 OA
ATOM     17  H   LIG d   1      -5.410  76.931 118.347  0.00  0.00     0.149 HD
ENDBRANCH   6  13
BRANCH   5  18
ATOM     18  N   LIG d   1      -5.126  80.580 118.850  0.00  0.00     0.381 N 
ATOM     19  H   LIG d   1      -5.362  81.520 119.095  0.00  0.00    -0.090 HD
ATOM     20  H   LIG d   1      -4.864  80.563 117.880  0.00  0.00    -0.090 HD
ATOM     21  H   LIG d   1      -4.366  80.263 119.412  0.00  0.00    -0.090 HD
ENDBRANCH   5  18
BRANCH   3  22
ATOM     22  C   LIG d   1      -9.792  80.435 119.918  0.00  0.00     0.382 C 
ATOM     23  O   LIG d   1      -9.860  81.678 120.074  0.00  0.00    -0.241 OA
ATOM     24  O   LIG d   1     -10.658  79.703 120.435  0.00  0.00    -0.241 OA
ENDBRANCH   3  22
TORSDOF 7
ENDMDL
MODEL 4
REMARK VINA RESULT:      -5.3      1.588      1.886
REMARK  7 active torsions:
REMARK  status: ('A' for Active; 'I' for Inactive)
REMARK    1  A    between atoms: C_2  and  C_3 
REMARK    2  A    between atoms: C_3  and  O_6 
REMARK    3  A    between atoms: C_3  and  C_4 
REMARK    4  A    between atoms: C_7  and  O_6 
REMARK    5  A    between atoms: C_9  and  C_10 
REMARK    6  A    between atoms: N_15  and  C_14 
REMARK    7  A    between atoms: N_20  and  C_19 
REMARK       I    between atoms: C_22  and  N_20 
ROOT
ATOM      1  C   LIG d   1      -5.870  93.016 118.009  0.00  0.00     0.161 C 
ATOM      2  C   LIG d   1      -6.867  92.258 117.371  0.00  0.00     0.016 C 
ATOM      3  C   LIG d   1      -6.599  91.075 116.643  0.00  0.00     0.038 C 
ATOM      4  C   LIG d   1      -5.327  90.485 116.630  0.00  0.00     0.028 C 
ATOM      5  C   LIG d   1      -4.193  91.484 116.838  0.00  0.00    -0.047 C 
ATOM      6  C   LIG d   1      -4.492  92.327 118.098  0.00  0.00     0.091 C 
ENDROOT
BRANCH   1   7
ATOM      7  O   LIG d   1      -6.320  93.410 119.320  0.00  0.00    -0.368 OA
BRANCH   7   8
ATOM      8  C   LIG d   1      -5.907  92.559 120.418  0.00  0.00     0.119 C 
BRANCH   8   9
ATOM      9  C   LIG d   1      -7.163  91.838 120.943  0.00  0.00     0.028 C 
ATOM     10  C   LIG d   1      -8.281  92.818 121.337  0.00  0.00     0.006 C 
ENDBRANCH   8   9
BRANCH   8  11
ATOM     11  C   LIG d   1      -5.390  93.386 121.599  0.00  0.00     0.028 C 
ATOM     12  C   LIG d   1      -5.130  94.855 121.230  0.00  0.00     0.006 C 
ENDBRANCH   8  11
ENDBRANCH   7   8
ENDBRANCH   1   7
BRANCH   6  13
ATOM     13  N   LIG d   1      -3.475  93.386 118.327  0.00  0.00    -0.311 N 
ATOM     14  C   LIG d   1      -2.435  93.238 119.146  0.00  0.00     0.210 C 
ATOM     15  C   LIG d   1      -1.517  94.460 119.251  0.00  0.00     0.109 C 
ATOM     16  O   LIG d   1      -2.167  92.200 119.770  0.00  0.00    -0.276 OA
ATOM     17  H   LIG d   1      -3.597  94.250 117.836  0.00  0.00     0.149 HD
ENDBRANCH   6  13
BRANCH   5  18
ATOM     18  N   LIG d   1      -2.937  90.717 116.940  0.00  0.00     0.381 N 
ATOM     19  H   LIG d   1      -2.746  90.506 117.899  0.00  0.00    -0.090 HD
ATOM     20  H   LIG d   1      -2.184  91.279 116.584  0.00  0.00    -0.090 HD
ATOM     21  H   LIG d   1      -3.009  89.874 116.414  0.00  0.00    -0.090 HD
ENDBRANCH   5  18
BRANCH   3  22
ATOM     22  C   LIG d   1      -7.604  90.493 115.885  0.00  0.00     0.382 C 
ATOM     23  O   LIG d   1      -7.996  89.332 116.151  0.00  0.00    -0.241 OA
ATOM     24  O   LIG d   1      -8.091  91.098 114.911  0.00  0.00    -0.241 OA
ENDBRANCH   3  22
TORSDOF 7
ENDMDL
MODEL 5
REMARK VINA RESULT:      -5.2     13.389     16.209
REMARK  7 active torsions:
REMARK  status: ('A' for Active; 'I' for Inactive)
REMARK    1  A    between atoms: C_2  and  C_3 
REMARK    2  A    between atoms: C_3  and  O_6 
REMARK    3  A    between atoms: C_3  and  C_4 
REMARK    4  A    between atoms: C_7  and  O_6 
REMARK    5  A    between atoms: C_9  and  C_10 
REMARK    6  A    between atoms: N_15  and  C_14 
REMARK    7  A    between atoms: N_20  and  C_19 
REMARK       I    between atoms: C_22  and  N_20 
ROOT
ATOM      1  C   LIG d   1      -5.989  76.812 116.641  0.00  0.00     0.161 C 
ATOM      2  C   LIG d   1      -6.980  75.885 116.281  0.00  0.00     0.016 C 
ATOM      3  C   LIG d   1      -8.295  75.911 116.800  0.00  0.00     0.038 C 
ATOM      4  C   LIG d   1      -8.754  76.964 117.606  0.00  0.00     0.028 C 
ATOM      5  C   LIG d   1      -7.645  77.647 118.399  0.00  0.00    -0.047 C 
ATOM      6  C   LIG d   1      -6.502  78.033 117.433  0.00  0.00     0.091 C 
ENDROOT
BRANCH   1   7
ATOM      7  O   LIG d   1      -5.272  77.242 115.467  0.00  0.00    -0.368 OA
BRANCH   7   8
ATOM      8  C   LIG d   1      -4.034  76.544 115.185  0.00  0.00     0.119 C 
BRANCH   8   9
ATOM      9  C   LIG d   1      -3.487  76.012 116.523  0.00  0.00     0.028 C 
ATOM     10  C   LIG d   1      -2.923  74.586 116.402  0.00  0.00     0.006 C 
ENDBRANCH   8   9
BRANCH   8  11
ATOM     11  C   LIG d   1      -2.961  77.502 114.660  0.00  0.00     0.028 C 
ATOM     12  C   LIG d   1      -2.857  78.792 115.489  0.00  0.00     0.006 C 
ENDBRANCH   8  11
ENDBRANCH   7   8
ENDBRANCH   1   7
BRANCH   6  13
ATOM     13  N   LIG d   1      -5.340  78.631 118.140  0.00  0.00    -0.311 N 
ATOM     14  C   LIG d   1      -5.210  79.938 118.363  0.00  0.00     0.210 C 
ATOM     15  C   LIG d   1      -3.926  80.346 119.092  0.00  0.00     0.109 C 
ATOM     16  O   LIG d   1      -6.052  80.795 118.054  0.00  0.00    -0.276 OA
ATOM     17  H   LIG d   1      -4.624  78.005 118.453  0.00  0.00     0.149 HD
ENDBRANCH   6  13
BRANCH   5  18
ATOM     18  N   LIG d   1      -8.239  78.809 119.086  0.00  0.00     0.381 N 
ATOM     19  H   LIG d   1      -9.230  78.688 119.161  0.00  0.00    -0.090 HD
ATOM     20  H   LIG d   1      -8.063  79.634 118.540  0.00  0.00    -0.090 HD
ATOM     21  H   LIG d   1      -7.840  78.910 119.993  0.00  0.00    -0.090 HD
ENDBRANCH   5  18
BRANCH   3  22
ATOM     22  C   LIG d   1      -9.155  74.853 116.546  0.00  0.00     0.382 C 
ATOM     23  O   LIG d   1      -8.783  73.675 116.766  0.00  0.00    -0.241 OA
ATOM     24  O   LIG d   1     -10.283  75.059 116.058  0.00  0.00    -0.241 OA
ENDBRANCH   3  22
TORSDOF 7
ENDMDL
MODEL 6
REMARK VINA RESULT:      -5.2     12.950     15.400
REMARK  7 active torsions:
REMARK  status: ('A' for Active; 'I' for Inactive)
REMARK    1  A    between atoms: C_2  and  C_3 
REMARK    2  A    between atoms: C_3  and  O_6 
REMARK    3  A    between atoms: C_3  and  C_4 
REMARK    4  A    between atoms: C_7  and  O_6 
REMARK    5  A    between atoms: C_9  and  C_10 
REMARK    6  A    between atoms: N_15  and  C_14 
REMARK    7  A    between atoms: N_20  and  C_19 
REMARK       I    between atoms: C_22  and  N_20 
ROOT
ATOM      1  C   LIG d   1      -6.610  77.838 117.371  0.00  0.00     0.161 C 
ATOM      2  C   LIG d   1      -7.877  77.253 117.532  0.00  0.00     0.016 C 
ATOM      3  C   LIG d   1      -8.274  76.063 116.880  0.00  0.00     0.038 C 
ATOM      4  C   LIG d   1      -7.372  75.290 116.135  0.00  0.00     0.028 C 
ATOM      5  C   LIG d   1      -6.230  76.103 115.534  0.00  0.00    -0.047 C 
ATOM      6  C   LIG d   1      -5.575  76.949 116.650  0.00  0.00     0.091 C 
ENDROOT
BRANCH   1   7
ATOM      7  O   LIG d   1      -6.100  78.261 118.651  0.00  0.00    -0.368 OA
BRANCH   7   8
ATOM      8  C   LIG d   1      -6.381  79.632 119.027  0.00  0.00     0.119 C 
BRANCH   8   9
ATOM      9  C   LIG d   1      -6.210  80.502 117.766  0.00  0.00     0.028 C 
ATOM     10  C   LIG d   1      -7.226  81.655 117.707  0.00  0.00     0.006 C 
ENDBRANCH   8   9
BRANCH   8  11
ATOM     11  C   LIG d   1      -5.347  80.159 120.026  0.00  0.00     0.028 C 
ATOM     12  C   LIG d   1      -3.965  80.383 119.391  0.00  0.00     0.006 C 
ENDBRANCH   8  11
ENDBRANCH   7   8
ENDBRANCH   1   7
BRANCH   6  13
ATOM     13  N   LIG d   1      -4.502  77.838 116.131  0.00  0.00    -0.311 N 
ATOM     14  C   LIG d   1      -3.289  77.918 116.676  0.00  0.00     0.210 C 
ATOM     15  C   LIG d   1      -2.341  78.911 115.998  0.00  0.00     0.109 C 
ATOM     16  O   LIG d   1      -2.899  77.236 117.636  0.00  0.00    -0.276 OA
ATOM     17  H   LIG d   1      -4.723  78.403 115.335  0.00  0.00     0.149 HD
ENDBRANCH   6  13
BRANCH   5  18
ATOM     18  N   LIG d   1      -5.293  75.155 114.902  0.00  0.00     0.381 N 
ATOM     19  H   LIG d   1      -4.863  75.584 114.106  0.00  0.00    -0.090 HD
ATOM     20  H   LIG d   1      -5.806  74.351 114.588  0.00  0.00    -0.090 HD
ATOM     21  H   LIG d   1      -4.595  74.878 115.556  0.00  0.00    -0.090 HD
ENDBRANCH   5  18
BRANCH   3  22
ATOM     22  C   LIG d   1      -9.598  75.657 116.938  0.00  0.00     0.382 C 
ATOM     23  O   LIG d   1     -10.456  76.391 117.486  0.00  0.00    -0.241 OA
ATOM     24  O   LIG d   1      -9.939  74.546 116.489  0.00  0.00    -0.241 OA
ENDBRANCH   3  22
TORSDOF 7
ENDMDL
MODEL 7
REMARK VINA RESULT:      -5.1     13.077     16.044
REMARK  7 active torsions:
REMARK  status: ('A' for Active; 'I' for Inactive)
REMARK    1  A    between atoms: C_2  and  C_3 
REMARK    2  A    between atoms: C_3  and  O_6 
REMARK    3  A    between atoms: C_3  and  C_4 
REMARK    4  A    between atoms: C_7  and  O_6 
REMARK    5  A    between atoms: C_9  and  C_10 
REMARK    6  A    between atoms: N_15  and  C_14 
REMARK    7  A    between atoms: N_20  and  C_19 
REMARK       I    between atoms: C_22  and  N_20 
ROOT
ATOM      1  C   LIG d   1      -5.850  77.520 116.917  0.00  0.00     0.161 C 
ATOM      2  C   LIG d   1      -6.589  78.690 117.161  0.00  0.00     0.016 C 
ATOM      3  C   LIG d   1      -6.046  79.839 117.780  0.00  0.00     0.038 C 
ATOM      4  C   LIG d   1      -4.676  79.952 118.061  0.00  0.00     0.028 C 
ATOM      5  C   LIG d   1      -3.993  78.609 118.294  0.00  0.00    -0.047 C 
ATOM      6  C   LIG d   1      -4.326  77.665 117.116  0.00  0.00     0.091 C 
ENDROOT
BRANCH   1   7
ATOM      7  O   LIG d   1      -6.137  77.028 115.593  0.00  0.00    -0.368 OA
BRANCH   7   8
ATOM      8  C   LIG d   1      -7.043  75.900 115.515  0.00  0.00     0.119 C 
BRANCH   8   9
ATOM      9  C   LIG d   1      -7.944  75.943 116.764  0.00  0.00     0.028 C 
ATOM     10  C   LIG d   1      -9.055  74.880 116.724  0.00  0.00     0.006 C 
ENDBRANCH   8   9
BRANCH   8  11
ATOM     11  C   LIG d   1      -6.287  74.571 115.607  0.00  0.00     0.028 C 
ATOM     12  C   LIG d   1      -5.172  74.446 114.556  0.00  0.00     0.006 C 
ENDBRANCH   8  11
ENDBRANCH   7   8
ENDBRANCH   1   7
BRANCH   6  13
ATOM     13  N   LIG d   1      -3.766  76.302 117.305  0.00  0.00    -0.311 N 
ATOM     14  C   LIG d   1      -2.593  75.916 116.807  0.00  0.00     0.210 C 
ATOM     15  C   LIG d   1      -2.212  74.462 117.102  0.00  0.00     0.109 C 
ATOM     16  O   LIG d   1      -1.817  76.649 116.175  0.00  0.00    -0.276 OA
ATOM     17  H   LIG d   1      -4.316  75.652 117.832  0.00  0.00     0.149 HD
ENDBRANCH   6  13
BRANCH   5  18
ATOM     18  N   LIG d   1      -2.547  78.863 118.439  0.00  0.00     0.381 N 
ATOM     19  H   LIG d   1      -2.335  79.793 118.136  0.00  0.00    -0.090 HD
ATOM     20  H   LIG d   1      -2.043  78.218 117.856  0.00  0.00    -0.090 HD
ATOM     21  H   LIG d   1      -2.274  78.746 119.390  0.00  0.00    -0.090 HD
ENDBRANCH   5  18
BRANCH   3  22
ATOM     22  C   LIG d   1      -6.884  80.876 118.160  0.00  0.00     0.382 C 
ATOM     23  O   LIG d   1      -6.642  81.527 119.205  0.00  0.00    -0.241 OA
ATOM     24  O   LIG d   1      -7.904  81.140 117.495  0.00  0.00    -0.241 OA
ENDBRANCH   3  22
TORSDOF 7
ENDMDL
MODEL 8
REMARK VINA RESULT:      -4.8     13.860     16.122
REMARK  7 active torsions:
REMARK  status: ('A' for Active; 'I' for Inactive)
REMARK    1  A    between atoms: C_2  and  C_3 
REMARK    2  A    between atoms: C_3  and  O_6 
REMARK    3  A    between atoms: C_3  and  C_4 
REMARK    4  A    between atoms: C_7  and  O_6 
REMARK    5  A    between atoms: C_9  and  C_10 
REMARK    6  A    between atoms: N_15  and  C_14 
REMARK    7  A    between atoms: N_20  and  C_19 
REMARK       I    between atoms: C_22  and  N_20 
ROOT
ATOM      1  C   LIG d   1      -5.648  77.698 117.016  0.00  0.00     0.161 C 
ATOM      2  C   LIG d   1      -6.985  77.513 117.404  0.00  0.00     0.016 C 
ATOM      3  C   LIG d   1      -7.806  76.477 116.901  0.00  0.00     0.038 C 
ATOM      4  C   LIG d   1      -7.295  75.457 116.084  0.00  0.00     0.028 C 
ATOM      5  C   LIG d   1      -6.083  75.888 115.265  0.00  0.00    -0.047 C 
ATOM      6  C   LIG d   1      -5.041  76.530 116.210  0.00  0.00     0.091 C 
ENDROOT
BRANCH   1   7
ATOM      7  O   LIG d   1      -4.838  77.982 118.173  0.00  0.00    -0.368 OA
BRANCH   7   8
ATOM      8  C   LIG d   1      -4.251  79.305 118.232  0.00  0.00     0.119 C 
BRANCH   8   9
ATOM      9  C   LIG d   1      -2.739  79.131 118.470  0.00  0.00     0.028 C 
ATOM     10  C   LIG d   1      -2.358  77.674 118.782  0.00  0.00     0.006 C 
ENDBRANCH   8   9
BRANCH   8  11
ATOM     11  C   LIG d   1      -4.765  80.090 119.443  0.00  0.00     0.028 C 
ATOM     12  C   LIG d   1      -5.363  79.183 120.530  0.00  0.00     0.006 C 
ENDBRANCH   8  11
ENDBRANCH   7   8
ENDBRANCH   1   7
BRANCH   6  13
ATOM     13  N   LIG d   1      -3.859  77.055 115.478  0.00  0.00    -0.311 N 
ATOM     14  C   LIG d   1      -2.727  76.371 115.328  0.00  0.00     0.210 C 
ATOM     15  C   LIG d   1      -1.625  77.104 114.556  0.00  0.00     0.109 C 
ATOM     16  O   LIG d   1      -2.540  75.213 115.733  0.00  0.00    -0.276 OA
ATOM     17  H   LIG d   1      -3.935  77.975 115.089  0.00  0.00     0.149 HD
ENDBRANCH   6  13
BRANCH   5  18
ATOM     18  N   LIG d   1      -5.571  74.694 114.566  0.00  0.00     0.381 N 
ATOM     19  H   LIG d   1      -5.674  73.889 115.150  0.00  0.00    -0.090 HD
ATOM     20  H   LIG d   1      -4.592  74.823 114.377  0.00  0.00    -0.090 HD
ATOM     21  H   LIG d   1      -6.066  74.560 113.712  0.00  0.00    -0.090 HD
ENDBRANCH   5  18
BRANCH   3  22
ATOM     22  C   LIG d   1      -9.163  76.477 117.184  0.00  0.00     0.382 C 
ATOM     23  O   LIG d   1      -9.692  77.479 117.721  0.00  0.00    -0.241 OA
ATOM     24  O   LIG d   1      -9.857  75.469 116.949  0.00  0.00    -0.241 OA
ENDBRANCH   3  22
TORSDOF 7
ENDMDL
MODEL 9
REMARK VINA RESULT:      -4.7     27.143     29.818
REMARK  7 active torsions:
REMARK  status: ('A' for Active; 'I' for Inactive)
REMARK    1  A    between atoms: C_2  and  C_3 
REMARK    2  A    between atoms: C_3  and  O_6 
REMARK    3  A    between atoms: C_3  and  C_4 
REMARK    4  A    between atoms: C_7  and  O_6 
REMARK    5  A    between atoms: C_9  and  C_10 
REMARK    6  A    between atoms: N_15  and  C_14 
REMARK    7  A    between atoms: N_20  and  C_19 
REMARK       I    between atoms: C_22  and  N_20 
ROOT
ATOM      1  C   LIG d   1     -16.009  64.465 118.085  0.00  0.00     0.161 C 
ATOM      2  C   LIG d   1     -16.724  63.699 117.150  0.00  0.00     0.016 C 
ATOM      3  C   LIG d   1     -17.295  64.239 115.975  0.00  0.00     0.038 C 
ATOM      4  C   LIG d   1     -17.059  65.563 115.578  0.00  0.00     0.028 C 
ATOM      5  C   LIG d   1     -16.766  66.503 116.743  0.00  0.00    -0.047 C 
ATOM      6  C   LIG d   1     -15.646  65.888 117.613  0.00  0.00     0.091 C 
ENDROOT
BRANCH   1   7
ATOM      7  O   LIG d   1     -14.822  63.755 118.494  0.00  0.00    -0.368 OA
BRANCH   7   8
ATOM      8  C   LIG d   1     -14.714  63.456 119.907  0.00  0.00     0.119 C 
BRANCH   8   9
ATOM      9  C   LIG d   1     -13.291  63.843 120.354  0.00  0.00     0.028 C 
ATOM     10  C   LIG d   1     -13.293  64.900 121.471  0.00  0.00     0.006 C 
ENDBRANCH   8   9
BRANCH   8  11
ATOM     11  C   LIG d   1     -14.826  61.951 120.168  0.00  0.00     0.028 C 
ATOM     12  C   LIG d   1     -16.177  61.551 120.782  0.00  0.00     0.006 C 
ENDBRANCH   8  11
ENDBRANCH   7   8
ENDBRANCH   1   7
BRANCH   6  13
ATOM     13  N   LIG d   1     -15.356  66.703 118.822  0.00  0.00    -0.311 N 
ATOM     14  C   LIG d   1     -14.387  67.616 118.875  0.00  0.00     0.210 C 
ATOM     15  C   LIG d   1     -14.245  68.329 120.224  0.00  0.00     0.109 C 
ATOM     16  O   LIG d   1     -13.653  67.925 117.925  0.00  0.00    -0.276 OA
ATOM     17  H   LIG d   1     -15.924  66.539 119.629  0.00  0.00     0.149 HD
ENDBRANCH   6  13
BRANCH   5  18
ATOM     18  N   LIG d   1     -16.404  67.816 116.176  0.00  0.00     0.381 N 
ATOM     19  H   LIG d   1     -16.667  67.853 115.212  0.00  0.00    -0.090 HD
ATOM     20  H   LIG d   1     -15.407  67.932 116.236  0.00  0.00    -0.090 HD
ATOM     21  H   LIG d   1     -16.861  68.543 116.681  0.00  0.00    -0.090 HD
ENDBRANCH   5  18
BRANCH   3  22
ATOM     22  C   LIG d   1     -18.146  63.462 115.205  0.00  0.00     0.382 C 
ATOM     23  O   LIG d   1     -17.963  62.223 115.122  0.00  0.00    -0.241 OA
ATOM     24  O   LIG d   1     -19.069  63.989 114.555  0.00  0.00    -0.241 OA
ENDBRANCH   3  22
TORSDOF 7
ENDMDL
