MODEL 1
REMARK VINA RESULT:      -5.9      0.000      0.000
REMARK  7 active torsions:
REMARK  status: ('A' for Active; 'I' for Inactive)
REMARK    1  A    between atoms: C_2  and  C_3 
REMARK    2  A    between atoms: C_3  and  O_6 
REMARK    3  A    between atoms: C_3  and  C_4 
REMARK    4  A    between atoms: C_7  and  O_6 
REMARK    5  A    between atoms: C_9  and  C_10 
REMARK    6  A    between atoms: N_15  and  C_14 
REMARK    7  A    between atoms: N_20  and  C_19 
REMARK       I    between atoms: C_22  and  N_20 
ROOT
ATOM      1  C   LIG d   1      -7.783  74.516 117.708  0.00  0.00     0.161 C 
ATOM      2  C   LIG d   1      -8.998  75.207 117.846  0.00  0.00     0.016 C 
ATOM      3  C   LIG d   1      -9.093  76.618 117.865  0.00  0.00     0.038 C 
ATOM      4  C   LIG d   1      -7.988  77.439 117.595  0.00  0.00     0.028 C 
ATOM      5  C   LIG d   1      -6.653  76.794 117.951  0.00  0.00    -0.047 C 
ATOM      6  C   LIG d   1      -6.582  75.394 117.300  0.00  0.00     0.091 C 
ENDROOT
BRANCH   1   7
ATOM      7  O   LIG d   1      -7.945  73.425 116.780  0.00  0.00    -0.368 OA
BRANCH   7   8
ATOM      8  C   LIG d   1      -7.943  72.094 117.353  0.00  0.00     0.119 C 
BRANCH   8   9
ATOM      9  C   LIG d   1      -6.881  71.268 116.602  0.00  0.00     0.028 C 
ATOM     10  C   LIG d   1      -6.373  71.978 115.336  0.00  0.00     0.006 C 
ENDBRANCH   8   9
BRANCH   8  11
ATOM     11  C   LIG d   1      -9.271  71.376 117.098  0.00  0.00     0.028 C 
ATOM     12  C   LIG d   1      -9.193  69.865 117.368  0.00  0.00     0.006 C 
ENDBRANCH   8  11
ENDBRANCH   7   8
ENDBRANCH   1   7
BRANCH   6  13
ATOM     13  N   LIG d   1      -5.343  74.660 117.668  0.00  0.00    -0.311 N 
ATOM     14  C   LIG d   1      -4.257  74.623 116.898  0.00  0.00     0.210 C 
ATOM     15  C   LIG d   1      -3.097  73.792 117.456  0.00  0.00     0.109 C 
ATOM     16  O   LIG d   1      -4.132  75.226 115.822  0.00  0.00    -0.276 OA
ATOM     17  H   LIG d   1      -5.346  74.168 118.540  0.00  0.00     0.149 HD
ENDBRANCH   6  13
BRANCH   5  18
ATOM     18  N   LIG d   1      -5.583  77.700 117.491  0.00  0.00     0.381 N 
ATOM     19  H   LIG d   1      -5.886  78.196 116.677  0.00  0.00    -0.090 HD
ATOM     20  H   LIG d   1      -4.777  77.153 117.245  0.00  0.00    -0.090 HD
ATOM     21  H   LIG d   1      -5.349  78.345 118.213  0.00  0.00    -0.090 HD
ENDBRANCH   5  18
BRANCH   3  22
ATOM     22  C   LIG d   1     -10.296  77.222 118.198  0.00  0.00     0.382 C 
ATOM     23  O   LIG d   1     -11.364  76.567 118.134  0.00  0.00    -0.241 OA
ATOM     24  O   LIG d   1     -10.332  78.425 118.517  0.00  0.00    -0.241 OA
ENDBRANCH   3  22
TORSDOF 7
ENDMDL
MODEL 2
REMARK VINA RESULT:      -5.7      0.959      1.902
REMARK  7 active torsions:
REMARK  status: ('A' for Active; 'I' for Inactive)
REMARK    1  A    between atoms: C_2  and  C_3 
REMARK    2  A    between atoms: C_3  and  O_6 
REMARK    3  A    between atoms: C_3  and  C_4 
REMARK    4  A    between atoms: C_7  and  O_6 
REMARK    5  A    between atoms: C_9  and  C_10 
REMARK    6  A    between atoms: N_15  and  C_14 
REMARK    7  A    between atoms: N_20  and  C_19 
REMARK       I    between atoms: C_22  and  N_20 
ROOT
ATOM      1  C   LIG d   1      -7.443  74.899 118.770  0.00  0.00     0.161 C 
ATOM      2  C   LIG d   1      -8.727  75.461 118.670  0.00  0.00     0.016 C 
ATOM      3  C   LIG d   1      -8.977  76.738 118.119  0.00  0.00     0.038 C 
ATOM      4  C   LIG d   1      -7.969  77.483 117.487  0.00  0.00     0.028 C 
ATOM      5  C   LIG d   1      -6.571  77.179 118.013  0.00  0.00    -0.047 C 
ATOM      6  C   LIG d   1      -6.346  75.649 117.986  0.00  0.00     0.091 C 
ENDROOT
BRANCH   1   7
ATOM      7  O   LIG d   1      -7.484  73.514 118.374  0.00  0.00    -0.368 OA
BRANCH   7   8
ATOM      8  C   LIG d   1      -7.818  73.257 116.988  0.00  0.00     0.119 C 
BRANCH   8   9
ATOM      9  C   LIG d   1      -9.061  72.347 116.972  0.00  0.00     0.028 C 
ATOM     10  C   LIG d   1      -8.702  70.865 116.773  0.00  0.00     0.006 C 
ENDBRANCH   8   9
BRANCH   8  11
ATOM     11  C   LIG d   1      -6.718  72.452 116.289  0.00  0.00     0.028 C 
ATOM     12  C   LIG d   1      -5.973  73.265 115.218  0.00  0.00     0.006 C 
ENDBRANCH   8  11
ENDBRANCH   7   8
ENDBRANCH   1   7
BRANCH   6  13
ATOM     13  N   LIG d   1      -5.034  75.259 118.563  0.00  0.00    -0.311 N 
ATOM     14  C   LIG d   1      -3.913  75.180 117.848  0.00  0.00     0.210 C 
ATOM     15  C   LIG d   1      -2.674  74.739 118.634  0.00  0.00     0.109 C 
ATOM     16  O   LIG d   1      -3.820  75.464 116.644  0.00  0.00    -0.276 OA
ATOM     17  H   LIG d   1      -5.012  75.041 119.540  0.00  0.00     0.149 HD
ENDBRANCH   6  13
BRANCH   5  18
ATOM     18  N   LIG d   1      -5.609  77.919 117.176  0.00  0.00     0.381 N 
ATOM     19  H   LIG d   1      -5.295  77.338 116.425  0.00  0.00    -0.090 HD
ATOM     20  H   LIG d   1      -4.812  78.166 117.737  0.00  0.00    -0.090 HD
ATOM     21  H   LIG d   1      -6.036  78.743 116.813  0.00  0.00    -0.090 HD
ENDBRANCH   5  18
BRANCH   3  22
ATOM     22  C   LIG d   1     -10.239  77.301 118.231  0.00  0.00     0.382 C 
ATOM     23  O   LIG d   1     -10.361  78.511 118.538  0.00  0.00    -0.241 OA
ATOM     24  O   LIG d   1     -11.258  76.602 118.074  0.00  0.00    -0.241 OA
ENDBRANCH   3  22
TORSDOF 7
ENDMDL
MODEL 3
REMARK VINA RESULT:      -5.6      1.557      2.404
REMARK  7 active torsions:
REMARK  status: ('A' for Active; 'I' for Inactive)
REMARK    1  A    between atoms: C_2  and  C_3 
REMARK    2  A    between atoms: C_3  and  O_6 
REMARK    3  A    between atoms: C_3  and  C_4 
REMARK    4  A    between atoms: C_7  and  O_6 
REMARK    5  A    between atoms: C_9  and  C_10 
REMARK    6  A    between atoms: N_15  and  C_14 
REMARK    7  A    between atoms: N_20  and  C_19 
REMARK       I    between atoms: C_22  and  N_20 
ROOT
ATOM      1  C   LIG d   1      -7.051  74.512 118.359  0.00  0.00     0.161 C 
ATOM      2  C   LIG d   1      -8.403  74.603 117.987  0.00  0.00     0.016 C 
ATOM      3  C   LIG d   1      -9.068  75.831 117.768  0.00  0.00     0.038 C 
ATOM      4  C   LIG d   1      -8.382  77.054 117.758  0.00  0.00     0.028 C 
ATOM      5  C   LIG d   1      -7.127  77.052 118.624  0.00  0.00    -0.047 C 
ATOM      6  C   LIG d   1      -6.258  75.831 118.244  0.00  0.00     0.091 C 
ENDROOT
BRANCH   1   7
ATOM      7  O   LIG d   1      -6.405  73.471 117.599  0.00  0.00    -0.368 OA
BRANCH   7   8
ATOM      8  C   LIG d   1      -6.853  73.309 116.230  0.00  0.00     0.119 C 
BRANCH   8   9
ATOM      9  C   LIG d   1      -7.079  71.804 115.992  0.00  0.00     0.028 C 
ATOM     10  C   LIG d   1      -8.422  71.315 116.560  0.00  0.00     0.006 C 
ENDBRANCH   8   9
BRANCH   8  11
ATOM     11  C   LIG d   1      -5.762  73.718 115.235  0.00  0.00     0.028 C 
ATOM     12  C   LIG d   1      -5.864  75.192 114.812  0.00  0.00     0.006 C 
ENDBRANCH   8  11
ENDBRANCH   7   8
ENDBRANCH   1   7
BRANCH   6  13
ATOM     13  N   LIG d   1      -5.051  75.706 119.102  0.00  0.00    -0.311 N 
ATOM     14  C   LIG d   1      -3.818  75.569 118.616  0.00  0.00     0.210 C 
ATOM     15  C   LIG d   1      -2.718  75.437 119.674  0.00  0.00     0.109 C 
ATOM     16  O   LIG d   1      -3.528  75.578 117.410  0.00  0.00    -0.276 OA
ATOM     17  H   LIG d   1      -5.192  75.720 120.093  0.00  0.00     0.149 HD
ENDBRANCH   6  13
BRANCH   5  18
ATOM     18  N   LIG d   1      -6.438  78.339 118.413  0.00  0.00     0.381 N 
ATOM     19  H   LIG d   1      -5.620  78.198 117.855  0.00  0.00    -0.090 HD
ATOM     20  H   LIG d   1      -6.152  78.705 119.304  0.00  0.00    -0.090 HD
ATOM     21  H   LIG d   1      -7.049  78.983 117.962  0.00  0.00    -0.090 HD
ENDBRANCH   5  18
BRANCH   3  22
ATOM     22  C   LIG d   1     -10.444  75.845 117.595  0.00  0.00     0.382 C 
ATOM     23  O   LIG d   1     -11.016  74.878 117.036  0.00  0.00    -0.241 OA
ATOM     24  O   LIG d   1     -11.115  76.833 117.949  0.00  0.00    -0.241 OA
ENDBRANCH   3  22
TORSDOF 7
ENDMDL
MODEL 4
REMARK VINA RESULT:      -5.5     16.955     18.204
REMARK  7 active torsions:
REMARK  status: ('A' for Active; 'I' for Inactive)
REMARK    1  A    between atoms: C_2  and  C_3 
REMARK    2  A    between atoms: C_3  and  O_6 
REMARK    3  A    between atoms: C_3  and  C_4 
REMARK    4  A    between atoms: C_7  and  O_6 
REMARK    5  A    between atoms: C_9  and  C_10 
REMARK    6  A    between atoms: N_15  and  C_14 
REMARK    7  A    between atoms: N_20  and  C_19 
REMARK       I    between atoms: C_22  and  N_20 
ROOT
ATOM      1  C   LIG d   1      -1.124  59.211 119.494  0.00  0.00     0.161 C 
ATOM      2  C   LIG d   1      -2.073  59.040 118.472  0.00  0.00     0.016 C 
ATOM      3  C   LIG d   1      -1.734  58.681 117.147  0.00  0.00     0.038 C 
ATOM      4  C   LIG d   1      -0.427  58.319 116.789  0.00  0.00     0.028 C 
ATOM      5  C   LIG d   1       0.642  58.964 117.664  0.00  0.00    -0.047 C 
ATOM      6  C   LIG d   1       0.295  58.712 119.149  0.00  0.00     0.091 C 
ENDROOT
BRANCH   1   7
ATOM      7  O   LIG d   1      -1.593  58.587 120.706  0.00  0.00    -0.368 OA
BRANCH   7   8
ATOM      8  C   LIG d   1      -2.426  57.414 120.538  0.00  0.00     0.119 C 
BRANCH   8   9
ATOM      9  C   LIG d   1      -3.401  57.364 121.730  0.00  0.00     0.028 C 
ATOM     10  C   LIG d   1      -4.258  56.087 121.735  0.00  0.00     0.006 C 
ENDBRANCH   8   9
BRANCH   8  11
ATOM     11  C   LIG d   1      -1.602  56.127 120.634  0.00  0.00     0.028 C 
ATOM     12  C   LIG d   1      -1.486  55.392 119.289  0.00  0.00     0.006 C 
ENDBRANCH   8  11
ENDBRANCH   7   8
ENDBRANCH   1   7
BRANCH   6  13
ATOM     13  N   LIG d   1       1.245  59.381 120.075  0.00  0.00    -0.311 N 
ATOM     14  C   LIG d   1       2.298  58.770 120.613  0.00  0.00     0.210 C 
ATOM     15  C   LIG d   1       3.137  59.637 121.556  0.00  0.00     0.109 C 
ATOM     16  O   LIG d   1       2.636  57.601 120.373  0.00  0.00    -0.276 OA
ATOM     17  H   LIG d   1       1.063  60.340 120.299  0.00  0.00     0.149 HD
ENDBRANCH   6  13
BRANCH   5  18
ATOM     18  N   LIG d   1       1.944  58.394 117.269  0.00  0.00     0.381 N 
ATOM     19  H   LIG d   1       1.820  57.765 116.502  0.00  0.00    -0.090 HD
ATOM     20  H   LIG d   1       2.320  57.877 118.044  0.00  0.00    -0.090 HD
ATOM     21  H   LIG d   1       2.571  59.124 117.011  0.00  0.00    -0.090 HD
ENDBRANCH   5  18
BRANCH   3  22
ATOM     22  C   LIG d   1      -2.703  58.721 116.156  0.00  0.00     0.382 C 
ATOM     23  O   LIG d   1      -2.371  58.925 114.963  0.00  0.00    -0.241 OA
ATOM     24  O   LIG d   1      -3.908  58.599 116.444  0.00  0.00    -0.241 OA
ENDBRANCH   3  22
TORSDOF 7
ENDMDL
MODEL 5
REMARK VINA RESULT:      -5.2      2.468      4.507
REMARK  7 active torsions:
REMARK  status: ('A' for Active; 'I' for Inactive)
REMARK    1  A    between atoms: C_2  and  C_3 
REMARK    2  A    between atoms: C_3  and  O_6 
REMARK    3  A    between atoms: C_3  and  C_4 
REMARK    4  A    between atoms: C_7  and  O_6 
REMARK    5  A    between atoms: C_9  and  C_10 
REMARK    6  A    between atoms: N_15  and  C_14 
REMARK    7  A    between atoms: N_20  and  C_19 
REMARK       I    between atoms: C_22  and  N_20 
ROOT
ATOM      1  C   LIG d   1      -6.983  76.591 117.067  0.00  0.00     0.161 C 
ATOM      2  C   LIG d   1      -6.558  77.923 117.204  0.00  0.00     0.016 C 
ATOM      3  C   LIG d   1      -7.322  78.920 117.855  0.00  0.00     0.038 C 
ATOM      4  C   LIG d   1      -8.502  78.615 118.549  0.00  0.00     0.028 C 
ATOM      5  C   LIG d   1      -9.222  77.385 118.007  0.00  0.00    -0.047 C 
ATOM      6  C   LIG d   1      -8.217  76.215 117.914  0.00  0.00     0.091 C 
ENDROOT
BRANCH   1   7
ATOM      7  O   LIG d   1      -5.888  75.698 117.351  0.00  0.00    -0.368 OA
BRANCH   7   8
ATOM      8  C   LIG d   1      -4.958  75.464 116.265  0.00  0.00     0.119 C 
BRANCH   8   9
ATOM      9  C   LIG d   1      -5.737  74.773 115.129  0.00  0.00     0.028 C 
ATOM     10  C   LIG d   1      -5.922  73.266 115.375  0.00  0.00     0.006 C 
ENDBRANCH   8   9
BRANCH   8  11
ATOM     11  C   LIG d   1      -3.866  74.469 116.671  0.00  0.00     0.028 C 
ATOM     12  C   LIG d   1      -2.501  74.794 116.045  0.00  0.00     0.006 C 
ENDBRANCH   8  11
ENDBRANCH   7   8
ENDBRANCH   1   7
BRANCH   6  13
ATOM     13  N   LIG d   1      -8.819  74.996 117.314  0.00  0.00    -0.311 N 
ATOM     14  C   LIG d   1      -8.588  73.765 117.768  0.00  0.00     0.210 C 
ATOM     15  C   LIG d   1      -9.293  72.647 116.992  0.00  0.00     0.109 C 
ATOM     16  O   LIG d   1      -7.893  73.495 118.758  0.00  0.00    -0.276 OA
ATOM     17  H   LIG d   1      -9.422  75.126 116.525  0.00  0.00     0.149 HD
ENDBRANCH   6  13
BRANCH   5  18
ATOM     18  N   LIG d   1     -10.357  77.101 118.906  0.00  0.00     0.381 N 
ATOM     19  H   LIG d   1     -10.278  76.173 119.270  0.00  0.00    -0.090 HD
ATOM     20  H   LIG d   1     -11.211  77.162 118.380  0.00  0.00    -0.090 HD
ATOM     21  H   LIG d   1     -10.372  77.759 119.654  0.00  0.00    -0.090 HD
ENDBRANCH   5  18
BRANCH   3  22
ATOM     22  C   LIG d   1      -6.925  80.247 117.781  0.00  0.00     0.382 C 
ATOM     23  O   LIG d   1      -5.849  80.610 118.314  0.00  0.00    -0.241 OA
ATOM     24  O   LIG d   1      -7.651  81.093 117.226  0.00  0.00    -0.241 OA
ENDBRANCH   3  22
TORSDOF 7
ENDMDL
MODEL 6
REMARK VINA RESULT:      -5.0     16.362     18.319
REMARK  7 active torsions:
REMARK  status: ('A' for Active; 'I' for Inactive)
REMARK    1  A    between atoms: C_2  and  C_3 
REMARK    2  A    between atoms: C_3  and  O_6 
REMARK    3  A    between atoms: C_3  and  C_4 
REMARK    4  A    between atoms: C_7  and  O_6 
REMARK    5  A    between atoms: C_9  and  C_10 
REMARK    6  A    between atoms: N_15  and  C_14 
REMARK    7  A    between atoms: N_20  and  C_19 
REMARK       I    between atoms: C_22  and  N_20 
ROOT
ATOM      1  C   LIG d   1       0.721  59.510 120.259  0.00  0.00     0.161 C 
ATOM      2  C   LIG d   1       2.109  59.618 120.442  0.00  0.00     0.016 C 
ATOM      3  C   LIG d   1       3.050  59.390 119.411  0.00  0.00     0.038 C 
ATOM      4  C   LIG d   1       2.656  59.184 118.080  0.00  0.00     0.028 C 
ATOM      5  C   LIG d   1       1.267  58.568 117.947  0.00  0.00    -0.047 C 
ATOM      6  C   LIG d   1       0.269  59.396 118.788  0.00  0.00     0.091 C 
ENDROOT
BRANCH   1   7
ATOM      7  O   LIG d   1       0.056  60.615 120.903  0.00  0.00    -0.368 OA
BRANCH   7   8
ATOM      8  C   LIG d   1      -0.878  60.271 121.956  0.00  0.00     0.119 C 
BRANCH   8   9
ATOM      9  C   LIG d   1      -0.446  61.030 123.225  0.00  0.00     0.028 C 
ATOM     10  C   LIG d   1       0.524  62.183 122.917  0.00  0.00     0.006 C 
ENDBRANCH   8   9
BRANCH   8  11
ATOM     11  C   LIG d   1      -0.785  58.786 122.320  0.00  0.00     0.028 C 
ATOM     12  C   LIG d   1      -2.143  58.070 122.252  0.00  0.00     0.006 C 
ENDBRANCH   8  11
ENDBRANCH   7   8
ENDBRANCH   1   7
BRANCH   6  13
ATOM     13  N   LIG d   1      -1.098  58.813 118.782  0.00  0.00    -0.311 N 
ATOM     14  C   LIG d   1      -1.998  59.065 117.833  0.00  0.00     0.210 C 
ATOM     15  C   LIG d   1      -3.353  58.377 118.028  0.00  0.00     0.109 C 
ATOM     16  O   LIG d   1      -1.793  59.767 116.831  0.00  0.00    -0.276 OA
ATOM     17  H   LIG d   1      -1.339  58.206 119.541  0.00  0.00     0.149 HD
ENDBRANCH   6  13
BRANCH   5  18
ATOM     18  N   LIG d   1       0.929  58.538 116.512  0.00  0.00     0.381 N 
ATOM     19  H   LIG d   1       0.974  57.597 116.174  0.00  0.00    -0.090 HD
ATOM     20  H   LIG d   1       1.602  59.087 116.007  0.00  0.00    -0.090 HD
ATOM     21  H   LIG d   1       0.014  58.906 116.370  0.00  0.00    -0.090 HD
ENDBRANCH   5  18
BRANCH   3  22
ATOM     22  C   LIG d   1       4.401  59.326 119.715  0.00  0.00     0.382 C 
ATOM     23  O   LIG d   1       4.769  58.979 120.863  0.00  0.00    -0.241 OA
ATOM     24  O   LIG d   1       5.255  59.653 118.869  0.00  0.00    -0.241 OA
ENDBRANCH   3  22
TORSDOF 7
ENDMDL
MODEL 7
REMARK VINA RESULT:      -4.9      2.026      3.429
REMARK  7 active torsions:
REMARK  status: ('A' for Active; 'I' for Inactive)
REMARK    1  A    between atoms: C_2  and  C_3 
REMARK    2  A    between atoms: C_3  and  O_6 
REMARK    3  A    between atoms: C_3  and  C_4 
REMARK    4  A    between atoms: C_7  and  O_6 
REMARK    5  A    between atoms: C_9  and  C_10 
REMARK    6  A    between atoms: N_15  and  C_14 
REMARK    7  A    between atoms: N_20  and  C_19 
REMARK       I    between atoms: C_22  and  N_20 
ROOT
ATOM      1  C   LIG d   1      -6.746  76.146 116.977  0.00  0.00     0.161 C 
ATOM      2  C   LIG d   1      -8.089  75.735 116.986  0.00  0.00     0.016 C 
ATOM      3  C   LIG d   1      -9.143  76.533 117.487  0.00  0.00     0.038 C 
ATOM      4  C   LIG d   1      -8.944  77.866 117.877  0.00  0.00     0.028 C 
ATOM      5  C   LIG d   1      -7.525  78.150 118.357  0.00  0.00    -0.047 C 
ATOM      6  C   LIG d   1      -6.524  77.639 117.296  0.00  0.00     0.091 C 
ENDROOT
BRANCH   1   7
ATOM      7  O   LIG d   1      -6.140  75.808 115.714  0.00  0.00    -0.368 OA
BRANCH   7   8
ATOM      8  C   LIG d   1      -5.186  74.718 115.736  0.00  0.00     0.119 C 
BRANCH   8   9
ATOM      9  C   LIG d   1      -5.869  73.492 115.100  0.00  0.00     0.028 C 
ATOM     10  C   LIG d   1      -6.345  72.474 116.151  0.00  0.00     0.006 C 
ENDBRANCH   8   9
BRANCH   8  11
ATOM     11  C   LIG d   1      -4.852  74.298 117.170  0.00  0.00     0.028 C 
ATOM     12  C   LIG d   1      -3.379  74.539 117.534  0.00  0.00     0.006 C 
ENDBRANCH   8  11
ENDBRANCH   7   8
ENDBRANCH   1   7
BRANCH   6  13
ATOM     13  N   LIG d   1      -5.111  77.803 117.724  0.00  0.00    -0.311 N 
ATOM     14  C   LIG d   1      -4.349  78.834 117.363  0.00  0.00     0.210 C 
ATOM     15  C   LIG d   1      -2.915  78.799 117.899  0.00  0.00     0.109 C 
ATOM     16  O   LIG d   1      -4.736  79.792 116.676  0.00  0.00    -0.276 OA
ATOM     17  H   LIG d   1      -4.726  77.087 118.310  0.00  0.00     0.149 HD
ENDBRANCH   6  13
BRANCH   5  18
ATOM     18  N   LIG d   1      -7.419  79.602 118.600  0.00  0.00     0.381 N 
ATOM     19  H   LIG d   1      -7.968  80.098 117.927  0.00  0.00    -0.090 HD
ATOM     20  H   LIG d   1      -6.460  79.880 118.492  0.00  0.00    -0.090 HD
ATOM     21  H   LIG d   1      -7.734  79.817 119.521  0.00  0.00    -0.090 HD
ENDBRANCH   5  18
BRANCH   3  22
ATOM     22  C   LIG d   1     -10.408  75.984 117.640  0.00  0.00     0.382 C 
ATOM     23  O   LIG d   1     -11.319  76.652 118.185  0.00  0.00    -0.241 OA
ATOM     24  O   LIG d   1     -10.636  74.814 117.278  0.00  0.00    -0.241 OA
ENDBRANCH   3  22
TORSDOF 7
ENDMDL
MODEL 8
REMARK VINA RESULT:      -4.7     17.196     19.346
REMARK  7 active torsions:
REMARK  status: ('A' for Active; 'I' for Inactive)
REMARK    1  A    between atoms: C_2  and  C_3 
REMARK    2  A    between atoms: C_3  and  O_6 
REMARK    3  A    between atoms: C_3  and  C_4 
REMARK    4  A    between atoms: C_7  and  O_6 
REMARK    5  A    between atoms: C_9  and  C_10 
REMARK    6  A    between atoms: N_15  and  C_14 
REMARK    7  A    between atoms: N_20  and  C_19 
REMARK       I    between atoms: C_22  and  N_20 
ROOT
ATOM      1  C   LIG d   1      -4.650  93.202 119.034  0.00  0.00     0.161 C 
ATOM      2  C   LIG d   1      -5.637  92.790 118.124  0.00  0.00     0.016 C 
ATOM      3  C   LIG d   1      -5.374  91.943 117.022  0.00  0.00     0.038 C 
ATOM      4  C   LIG d   1      -4.128  91.325 116.843  0.00  0.00     0.028 C 
ATOM      5  C   LIG d   1      -2.970  92.109 117.449  0.00  0.00    -0.047 C 
ATOM      6  C   LIG d   1      -3.308  92.448 118.919  0.00  0.00     0.091 C 
ENDROOT
BRANCH   1   7
ATOM      7  O   LIG d   1      -5.159  93.115 120.380  0.00  0.00    -0.368 OA
BRANCH   7   8
ATOM      8  C   LIG d   1      -5.499  94.372 121.016  0.00  0.00     0.119 C 
BRANCH   8   9
ATOM      9  C   LIG d   1      -5.008  95.504 120.093  0.00  0.00     0.028 C 
ATOM     10  C   LIG d   1      -6.142  96.457 119.679  0.00  0.00     0.006 C 
ENDBRANCH   8   9
BRANCH   8  11
ATOM     11  C   LIG d   1      -4.733  94.557 122.329  0.00  0.00     0.028 C 
ATOM     12  C   LIG d   1      -3.713  95.705 122.267  0.00  0.00     0.006 C 
ENDBRANCH   8  11
ENDBRANCH   7   8
ENDBRANCH   1   7
BRANCH   6  13
ATOM     13  N   LIG d   1      -2.264  93.288 119.562  0.00  0.00    -0.311 N 
ATOM     14  C   LIG d   1      -1.627  92.939 120.679  0.00  0.00     0.210 C 
ATOM     15  C   LIG d   1      -0.601  93.958 121.184  0.00  0.00     0.109 C 
ATOM     16  O   LIG d   1      -1.792  91.867 121.281  0.00  0.00    -0.276 OA
ATOM     17  H   LIG d   1      -2.045  94.160 119.122  0.00  0.00     0.149 HD
ENDBRANCH   6  13
BRANCH   5  18
ATOM     18  N   LIG d   1      -1.753  91.286 117.311  0.00  0.00     0.381 N 
ATOM     19  H   LIG d   1      -1.990  90.317 117.389  0.00  0.00    -0.090 HD
ATOM     20  H   LIG d   1      -1.119  91.516 118.056  0.00  0.00    -0.090 HD
ATOM     21  H   LIG d   1      -1.322  91.460 116.431  0.00  0.00    -0.090 HD
ENDBRANCH   5  18
BRANCH   3  22
ATOM     22  C   LIG d   1      -6.355  91.739 116.063  0.00  0.00     0.382 C 
ATOM     23  O   LIG d   1      -6.104  91.959 114.854  0.00  0.00    -0.241 OA
ATOM     24  O   LIG d   1      -7.500  91.382 116.397  0.00  0.00    -0.241 OA
ENDBRANCH   3  22
TORSDOF 7
ENDMDL
MODEL 9
REMARK VINA RESULT:      -4.7     16.693     19.094
REMARK  7 active torsions:
REMARK  status: ('A' for Active; 'I' for Inactive)
REMARK    1  A    between atoms: C_2  and  C_3 
REMARK    2  A    between atoms: C_3  and  O_6 
REMARK    3  A    between atoms: C_3  and  C_4 
REMARK    4  A    between atoms: C_7  and  O_6 
REMARK    5  A    between atoms: C_9  and  C_10 
REMARK    6  A    between atoms: N_15  and  C_14 
REMARK    7  A    between atoms: N_20  and  C_19 
REMARK       I    between atoms: C_22  and  N_20 
ROOT
ATOM      1  C   LIG d   1       0.351  57.727 117.934  0.00  0.00     0.161 C 
ATOM      2  C   LIG d   1       1.671  58.064 118.279  0.00  0.00     0.016 C 
ATOM      3  C   LIG d   1       1.998  58.944 119.336  0.00  0.00     0.038 C 
ATOM      4  C   LIG d   1       1.025  59.431 120.223  0.00  0.00     0.028 C 
ATOM      5  C   LIG d   1      -0.366  59.520 119.606  0.00  0.00    -0.047 C 
ATOM      6  C   LIG d   1      -0.717  58.161 118.959  0.00  0.00     0.091 C 
ENDROOT
BRANCH   1   7
ATOM      7  O   LIG d   1       0.259  56.310 117.683  0.00  0.00    -0.368 OA
BRANCH   7   8
ATOM      8  C   LIG d   1      -0.124  55.487 118.812  0.00  0.00     0.119 C 
BRANCH   8   9
ATOM      9  C   LIG d   1       1.075  54.580 119.151  0.00  0.00     0.028 C 
ATOM     10  C   LIG d   1       1.828  55.048 120.408  0.00  0.00     0.006 C 
ENDBRANCH   8   9
BRANCH   8  11
ATOM     11  C   LIG d   1      -1.264  54.532 118.444  0.00  0.00     0.028 C 
ATOM     12  C   LIG d   1      -1.836  54.799 117.043  0.00  0.00     0.006 C 
ENDBRANCH   8  11
ENDBRANCH   7   8
ENDBRANCH   1   7
BRANCH   6  13
ATOM     13  N   LIG d   1      -2.028  58.187 118.259  0.00  0.00    -0.311 N 
ATOM     14  C   LIG d   1      -2.239  58.849 117.123  0.00  0.00     0.210 C 
ATOM     15  C   LIG d   1      -3.669  58.762 116.580  0.00  0.00     0.109 C 
ATOM     16  O   LIG d   1      -1.370  59.474 116.497  0.00  0.00    -0.276 OA
ATOM     17  H   LIG d   1      -2.781  57.680 118.682  0.00  0.00     0.149 HD
ENDBRANCH   6  13
BRANCH   5  18
ATOM     18  N   LIG d   1      -1.304  59.910 120.676  0.00  0.00     0.381 N 
ATOM     19  H   LIG d   1      -1.105  59.389 121.507  0.00  0.00    -0.090 HD
ATOM     20  H   LIG d   1      -2.240  59.692 120.383  0.00  0.00    -0.090 HD
ATOM     21  H   LIG d   1      -1.224  60.886 120.860  0.00  0.00    -0.090 HD
ENDBRANCH   5  18
BRANCH   3  22
ATOM     22  C   LIG d   1       3.306  59.376 119.491  0.00  0.00     0.382 C 
ATOM     23  O   LIG d   1       3.825  59.407 120.633  0.00  0.00    -0.241 OA
ATOM     24  O   LIG d   1       3.958  59.778 118.509  0.00  0.00    -0.241 OA
ENDBRANCH   3  22
TORSDOF 7
ENDMDL
