MODEL 1
REMARK VINA RESULT:      -6.2      0.000      0.000
REMARK  7 active torsions:
REMARK  status: ('A' for Active; 'I' for Inactive)
REMARK    1  A    between atoms: C_2  and  C_3 
REMARK    2  A    between atoms: C_3  and  O_6 
REMARK    3  A    between atoms: C_3  and  C_4 
REMARK    4  A    between atoms: C_7  and  O_6 
REMARK    5  A    between atoms: C_9  and  C_10 
REMARK    6  A    between atoms: N_15  and  C_14 
REMARK    7  A    between atoms: N_20  and  C_19 
REMARK       I    between atoms: C_22  and  N_20 
ROOT
ATOM      1  C   LIG d   1      -8.779  73.950 118.196  0.00  0.00     0.161 C 
ATOM      2  C   LIG d   1      -8.424  72.789 117.489  0.00  0.00     0.016 C 
ATOM      3  C   LIG d   1      -9.352  71.785 117.126  0.00  0.00     0.038 C 
ATOM      4  C   LIG d   1     -10.732  71.949 117.313  0.00  0.00     0.028 C 
ATOM      5  C   LIG d   1     -11.080  72.876 118.473  0.00  0.00    -0.047 C 
ATOM      6  C   LIG d   1     -10.297  74.198 118.311  0.00  0.00     0.091 C 
ENDROOT
BRANCH   1   7
ATOM      7  O   LIG d   1      -8.127  75.095 117.611  0.00  0.00    -0.368 OA
BRANCH   7   8
ATOM      8  C   LIG d   1      -6.776  74.883 117.131  0.00  0.00     0.119 C 
BRANCH   8   9
ATOM      9  C   LIG d   1      -5.854  75.846 117.904  0.00  0.00     0.028 C 
ATOM     10  C   LIG d   1      -4.392  75.370 117.921  0.00  0.00     0.006 C 
ENDBRANCH   8   9
BRANCH   8  11
ATOM     11  C   LIG d   1      -6.639  75.285 115.659  0.00  0.00     0.028 C 
ATOM     12  C   LIG d   1      -6.030  74.172 114.792  0.00  0.00     0.006 C 
ENDBRANCH   8  11
ENDBRANCH   7   8
ENDBRANCH   1   7
BRANCH   6  13
ATOM     13  N   LIG d   1     -10.515  75.129 119.449  0.00  0.00    -0.311 N 
ATOM     14  C   LIG d   1     -11.479  76.048 119.470  0.00  0.00     0.210 C 
ATOM     15  C   LIG d   1     -11.516  76.918 120.731  0.00  0.00     0.109 C 
ATOM     16  O   LIG d   1     -12.328  76.204 118.579  0.00  0.00    -0.276 OA
ATOM     17  H   LIG d   1      -9.891  75.051 120.228  0.00  0.00     0.149 HD
ENDBRANCH   6  13
BRANCH   5  18
ATOM     18  N   LIG d   1     -12.543  73.066 118.469  0.00  0.00     0.381 N 
ATOM     19  H   LIG d   1     -12.860  73.232 117.535  0.00  0.00    -0.090 HD
ATOM     20  H   LIG d   1     -12.768  73.871 119.026  0.00  0.00    -0.090 HD
ATOM     21  H   LIG d   1     -12.993  72.258 118.841  0.00  0.00    -0.090 HD
ENDBRANCH   5  18
BRANCH   3  22
ATOM     22  C   LIG d   1      -8.896  70.585 116.603  0.00  0.00     0.382 C 
ATOM     23  O   LIG d   1      -7.835  70.555 115.934  0.00  0.00    -0.241 OA
ATOM     24  O   LIG d   1      -9.555  69.539 116.755  0.00  0.00    -0.241 OA
ENDBRANCH   3  22
TORSDOF 7
ENDMDL
MODEL 2
REMARK VINA RESULT:      -5.6      2.160      4.718
REMARK  7 active torsions:
REMARK  status: ('A' for Active; 'I' for Inactive)
REMARK    1  A    between atoms: C_2  and  C_3 
REMARK    2  A    between atoms: C_3  and  O_6 
REMARK    3  A    between atoms: C_3  and  C_4 
REMARK    4  A    between atoms: C_7  and  O_6 
REMARK    5  A    between atoms: C_9  and  C_10 
REMARK    6  A    between atoms: N_15  and  C_14 
REMARK    7  A    between atoms: N_20  and  C_19 
REMARK       I    between atoms: C_22  and  N_20 
ROOT
ATOM      1  C   LIG d   1     -10.325  73.659 118.157  0.00  0.00     0.161 C 
ATOM      2  C   LIG d   1      -9.995  72.401 117.625  0.00  0.00     0.016 C 
ATOM      3  C   LIG d   1      -8.707  72.074 117.142  0.00  0.00     0.038 C 
ATOM      4  C   LIG d   1      -7.615  72.940 117.299  0.00  0.00     0.028 C 
ATOM      5  C   LIG d   1      -8.013  74.410 117.372  0.00  0.00    -0.047 C 
ATOM      6  C   LIG d   1      -9.119  74.579 118.438  0.00  0.00     0.091 C 
ENDROOT
BRANCH   1   7
ATOM      7  O   LIG d   1     -11.117  73.492 119.350  0.00  0.00    -0.368 OA
BRANCH   7   8
ATOM      8  C   LIG d   1     -12.328  74.283 119.427  0.00  0.00     0.119 C 
BRANCH   8   9
ATOM      9  C   LIG d   1     -12.471  74.771 120.882  0.00  0.00     0.028 C 
ATOM     10  C   LIG d   1     -11.206  74.505 121.716  0.00  0.00     0.006 C 
ENDBRANCH   8   9
BRANCH   8  11
ATOM     11  C   LIG d   1     -13.571  73.428 119.162  0.00  0.00     0.028 C 
ATOM     12  C   LIG d   1     -14.854  74.047 119.739  0.00  0.00     0.006 C 
ENDBRANCH   8  11
ENDBRANCH   7   8
ENDBRANCH   1   7
BRANCH   6  13
ATOM     13  N   LIG d   1      -9.625  75.974 118.515  0.00  0.00    -0.311 N 
ATOM     14  C   LIG d   1      -9.203  76.858 119.417  0.00  0.00     0.210 C 
ATOM     15  C   LIG d   1      -9.870  78.235 119.333  0.00  0.00     0.109 C 
ATOM     16  O   LIG d   1      -8.317  76.644 120.257  0.00  0.00    -0.276 OA
ATOM     17  H   LIG d   1     -10.324  76.242 117.850  0.00  0.00     0.149 HD
ENDBRANCH   6  13
BRANCH   5  18
ATOM     18  N   LIG d   1      -6.796  75.187 117.673  0.00  0.00     0.381 N 
ATOM     19  H   LIG d   1      -6.462  75.631 116.841  0.00  0.00    -0.090 HD
ATOM     20  H   LIG d   1      -6.083  74.560 118.003  0.00  0.00    -0.090 HD
ATOM     21  H   LIG d   1      -6.993  75.873 118.368  0.00  0.00    -0.090 HD
ENDBRANCH   5  18
BRANCH   3  22
ATOM     22  C   LIG d   1      -8.512  70.884 116.458  0.00  0.00     0.382 C 
ATOM     23  O   LIG d   1      -9.281  69.914 116.655  0.00  0.00    -0.241 OA
ATOM     24  O   LIG d   1      -7.548  70.755 115.678  0.00  0.00    -0.241 OA
ENDBRANCH   3  22
TORSDOF 7
ENDMDL
MODEL 3
REMARK VINA RESULT:      -5.5      2.489      4.837
REMARK  7 active torsions:
REMARK  status: ('A' for Active; 'I' for Inactive)
REMARK    1  A    between atoms: C_2  and  C_3 
REMARK    2  A    between atoms: C_3  and  O_6 
REMARK    3  A    between atoms: C_3  and  C_4 
REMARK    4  A    between atoms: C_7  and  O_6 
REMARK    5  A    between atoms: C_9  and  C_10 
REMARK    6  A    between atoms: N_15  and  C_14 
REMARK    7  A    between atoms: N_20  and  C_19 
REMARK       I    between atoms: C_22  and  N_20 
ROOT
ATOM      1  C   LIG d   1      -8.875  74.360 117.973  0.00  0.00     0.161 C 
ATOM      2  C   LIG d   1      -8.771  73.003 117.625  0.00  0.00     0.016 C 
ATOM      3  C   LIG d   1      -7.776  72.496 116.757  0.00  0.00     0.038 C 
ATOM      4  C   LIG d   1      -6.719  73.294 116.295  0.00  0.00     0.028 C 
ATOM      5  C   LIG d   1      -7.070  74.776 116.213  0.00  0.00    -0.047 C 
ATOM      6  C   LIG d   1      -7.664  75.226 117.567  0.00  0.00     0.091 C 
ENDROOT
BRANCH   1   7
ATOM      7  O   LIG d   1      -9.128  74.484 119.387  0.00  0.00    -0.368 OA
BRANCH   7   8
ATOM      8  C   LIG d   1     -10.290  73.780 119.890  0.00  0.00     0.119 C 
BRANCH   8   9
ATOM      9  C   LIG d   1     -11.508  74.256 119.076  0.00  0.00     0.028 C 
ATOM     10  C   LIG d   1     -12.416  73.092 118.642  0.00  0.00     0.006 C 
ENDBRANCH   8   9
BRANCH   8  11
ATOM     11  C   LIG d   1     -10.594  74.171 121.340  0.00  0.00     0.028 C 
ATOM     12  C   LIG d   1      -9.640  73.510 122.347  0.00  0.00     0.006 C 
ENDBRANCH   8  11
ENDBRANCH   7   8
ENDBRANCH   1   7
BRANCH   6  13
ATOM     13  N   LIG d   1      -8.112  76.643 117.547  0.00  0.00    -0.311 N 
ATOM     14  C   LIG d   1      -7.340  77.662 117.922  0.00  0.00     0.210 C 
ATOM     15  C   LIG d   1      -8.004  79.040 117.842  0.00  0.00     0.109 C 
ATOM     16  O   LIG d   1      -6.158  77.558 118.283  0.00  0.00    -0.276 OA
ATOM     17  H   LIG d   1      -9.048  76.822 117.238  0.00  0.00     0.149 HD
ENDBRANCH   6  13
BRANCH   5  18
ATOM     18  N   LIG d   1      -5.840  75.506 115.851  0.00  0.00     0.381 N 
ATOM     19  H   LIG d   1      -5.986  76.014 115.001  0.00  0.00    -0.090 HD
ATOM     20  H   LIG d   1      -5.101  74.842 115.699  0.00  0.00    -0.090 HD
ATOM     21  H   LIG d   1      -5.588  76.133 116.582  0.00  0.00    -0.090 HD
ENDBRANCH   5  18
BRANCH   3  22
ATOM     22  C   LIG d   1      -7.856  71.186 116.311  0.00  0.00     0.382 C 
ATOM     23  O   LIG d   1      -7.120  70.797 115.373  0.00  0.00    -0.241 OA
ATOM     24  O   LIG d   1      -8.687  70.400 116.805  0.00  0.00    -0.241 OA
ENDBRANCH   3  22
TORSDOF 7
ENDMDL
MODEL 4
REMARK VINA RESULT:      -5.4     17.935     20.312
REMARK  7 active torsions:
REMARK  status: ('A' for Active; 'I' for Inactive)
REMARK    1  A    between atoms: C_2  and  C_3 
REMARK    2  A    between atoms: C_3  and  O_6 
REMARK    3  A    between atoms: C_3  and  C_4 
REMARK    4  A    between atoms: C_7  and  O_6 
REMARK    5  A    between atoms: C_9  and  C_10 
REMARK    6  A    between atoms: N_15  and  C_14 
REMARK    7  A    between atoms: N_20  and  C_19 
REMARK       I    between atoms: C_22  and  N_20 
ROOT
ATOM      1  C   LIG d   1      -5.942  93.464 117.508  0.00  0.00     0.161 C 
ATOM      2  C   LIG d   1      -6.830  92.612 116.831  0.00  0.00     0.016 C 
ATOM      3  C   LIG d   1      -6.454  91.354 116.307  0.00  0.00     0.038 C 
ATOM      4  C   LIG d   1      -5.193  90.792 116.559  0.00  0.00     0.028 C 
ATOM      5  C   LIG d   1      -4.106  91.832 116.806  0.00  0.00    -0.047 C 
ATOM      6  C   LIG d   1      -4.593  92.820 117.890  0.00  0.00     0.091 C 
ENDROOT
BRANCH   1   7
ATOM      7  O   LIG d   1      -6.585  94.010 118.677  0.00  0.00    -0.368 OA
BRANCH   7   8
ATOM      8  C   LIG d   1      -6.783  95.445 118.684  0.00  0.00     0.119 C 
BRANCH   8   9
ATOM      9  C   LIG d   1      -5.988  96.016 119.874  0.00  0.00     0.028 C 
ATOM     10  C   LIG d   1      -4.952  97.066 119.438  0.00  0.00     0.006 C 
ENDBRANCH   8   9
BRANCH   8  11
ATOM     11  C   LIG d   1      -8.245  95.805 118.964  0.00  0.00     0.028 C 
ATOM     12  C   LIG d   1      -8.469  96.322 120.394  0.00  0.00     0.006 C 
ENDBRANCH   8  11
ENDBRANCH   7   8
ENDBRANCH   1   7
BRANCH   6  13
ATOM     13  N   LIG d   1      -3.623  93.920 118.132  0.00  0.00    -0.311 N 
ATOM     14  C   LIG d   1      -2.694  93.881 119.086  0.00  0.00     0.210 C 
ATOM     15  C   LIG d   1      -1.809  95.128 119.178  0.00  0.00     0.109 C 
ATOM     16  O   LIG d   1      -2.499  92.920 119.845  0.00  0.00    -0.276 OA
ATOM     17  H   LIG d   1      -3.690  94.726 117.542  0.00  0.00     0.149 HD
ENDBRANCH   6  13
BRANCH   5  18
ATOM     18  N   LIG d   1      -2.878  91.110 117.191  0.00  0.00     0.381 N 
ATOM     19  H   LIG d   1      -2.501  91.506 118.029  0.00  0.00    -0.090 HD
ATOM     20  H   LIG d   1      -2.197  91.215 116.459  0.00  0.00    -0.090 HD
ATOM     21  H   LIG d   1      -3.080  90.145 117.331  0.00  0.00    -0.090 HD
ENDBRANCH   5  18
BRANCH   3  22
ATOM     22  C   LIG d   1      -7.331  90.661 115.486  0.00  0.00     0.382 C 
ATOM     23  O   LIG d   1      -8.280  91.265 114.930  0.00  0.00    -0.241 OA
ATOM     24  O   LIG d   1      -7.213  89.431 115.331  0.00  0.00    -0.241 OA
ENDBRANCH   3  22
TORSDOF 7
ENDMDL
MODEL 5
REMARK VINA RESULT:      -5.3      2.659      6.390
REMARK  7 active torsions:
REMARK  status: ('A' for Active; 'I' for Inactive)
REMARK    1  A    between atoms: C_2  and  C_3 
REMARK    2  A    between atoms: C_3  and  O_6 
REMARK    3  A    between atoms: C_3  and  C_4 
REMARK    4  A    between atoms: C_7  and  O_6 
REMARK    5  A    between atoms: C_9  and  C_10 
REMARK    6  A    between atoms: N_15  and  C_14 
REMARK    7  A    between atoms: N_20  and  C_19 
REMARK       I    between atoms: C_22  and  N_20 
ROOT
ATOM      1  C   LIG d   1      -9.010  75.347 118.232  0.00  0.00     0.161 C 
ATOM      2  C   LIG d   1      -9.901  76.129 118.987  0.00  0.00     0.016 C 
ATOM      3  C   LIG d   1      -9.808  77.536 119.087  0.00  0.00     0.038 C 
ATOM      4  C   LIG d   1      -8.903  78.276 118.312  0.00  0.00     0.028 C 
ATOM      5  C   LIG d   1      -7.655  77.491 117.922  0.00  0.00    -0.047 C 
ATOM      6  C   LIG d   1      -8.085  76.147 117.292  0.00  0.00     0.091 C 
ENDROOT
BRANCH   1   7
ATOM      7  O   LIG d   1      -9.742  74.353 117.489  0.00  0.00    -0.368 OA
BRANCH   7   8
ATOM      8  C   LIG d   1      -9.878  73.056 118.121  0.00  0.00     0.119 C 
BRANCH   8   9
ATOM      9  C   LIG d   1      -8.771  72.147 117.553  0.00  0.00     0.028 C 
ATOM     10  C   LIG d   1      -9.336  70.891 116.869  0.00  0.00     0.006 C 
ENDBRANCH   8   9
BRANCH   8  11
ATOM     11  C   LIG d   1     -11.197  72.381 117.730  0.00  0.00     0.028 C 
ATOM     12  C   LIG d   1     -12.428  73.109 118.293  0.00  0.00     0.006 C 
ENDBRANCH   8  11
ENDBRANCH   7   8
ENDBRANCH   1   7
BRANCH   6  13
ATOM     13  N   LIG d   1      -6.924  75.280 116.959  0.00  0.00    -0.311 N 
ATOM     14  C   LIG d   1      -6.378  75.220 115.745  0.00  0.00     0.210 C 
ATOM     15  C   LIG d   1      -5.202  74.247 115.613  0.00  0.00     0.109 C 
ATOM     16  O   LIG d   1      -6.735  75.904 114.774  0.00  0.00    -0.276 OA
ATOM     17  H   LIG d   1      -6.551  74.714 117.696  0.00  0.00     0.149 HD
ENDBRANCH   6  13
BRANCH   5  18
ATOM     18  N   LIG d   1      -6.866  78.334 117.005  0.00  0.00     0.381 N 
ATOM     19  H   LIG d   1      -7.457  78.694 116.282  0.00  0.00    -0.090 HD
ATOM     20  H   LIG d   1      -6.153  77.770 116.577  0.00  0.00    -0.090 HD
ATOM     21  H   LIG d   1      -6.448  79.086 117.507  0.00  0.00    -0.090 HD
ENDBRANCH   5  18
BRANCH   3  22
ATOM     22  C   LIG d   1     -10.601  78.214 120.000  0.00  0.00     0.382 C 
ATOM     23  O   LIG d   1     -10.525  79.463 120.092  0.00  0.00    -0.241 OA
ATOM     24  O   LIG d   1     -11.359  77.588 120.765  0.00  0.00    -0.241 OA
ENDBRANCH   3  22
TORSDOF 7
ENDMDL
MODEL 6
REMARK VINA RESULT:      -5.3      2.543      5.106
REMARK  7 active torsions:
REMARK  status: ('A' for Active; 'I' for Inactive)
REMARK    1  A    between atoms: C_2  and  C_3 
REMARK    2  A    between atoms: C_3  and  O_6 
REMARK    3  A    between atoms: C_3  and  C_4 
REMARK    4  A    between atoms: C_7  and  O_6 
REMARK    5  A    between atoms: C_9  and  C_10 
REMARK    6  A    between atoms: N_15  and  C_14 
REMARK    7  A    between atoms: N_20  and  C_19 
REMARK       I    between atoms: C_22  and  N_20 
ROOT
ATOM      1  C   LIG d   1      -8.150  75.611 117.104  0.00  0.00     0.161 C 
ATOM      2  C   LIG d   1      -7.297  76.720 116.970  0.00  0.00     0.016 C 
ATOM      3  C   LIG d   1      -7.523  77.958 117.615  0.00  0.00     0.038 C 
ATOM      4  C   LIG d   1      -8.543  78.124 118.563  0.00  0.00     0.028 C 
ATOM      5  C   LIG d   1      -9.728  77.188 118.349  0.00  0.00    -0.047 C 
ATOM      6  C   LIG d   1      -9.206  75.739 118.221  0.00  0.00     0.091 C 
ENDROOT
BRANCH   1   7
ATOM      7  O   LIG d   1      -7.369  74.414 117.287  0.00  0.00    -0.368 OA
BRANCH   7   8
ATOM      8  C   LIG d   1      -6.721  73.888 116.102  0.00  0.00     0.119 C 
BRANCH   8   9
ATOM      9  C   LIG d   1      -6.960  72.366 116.081  0.00  0.00     0.028 C 
ATOM     10  C   LIG d   1      -8.118  71.940 117.000  0.00  0.00     0.006 C 
ENDBRANCH   8   9
BRANCH   8  11
ATOM     11  C   LIG d   1      -5.201  74.059 116.176  0.00  0.00     0.028 C 
ATOM     12  C   LIG d   1      -4.606  74.659 114.892  0.00  0.00     0.006 C 
ENDBRANCH   8  11
ENDBRANCH   7   8
ENDBRANCH   1   7
BRANCH   6  13
ATOM     13  N   LIG d   1     -10.293  74.769 117.926  0.00  0.00    -0.311 N 
ATOM     14  C   LIG d   1     -10.731  73.869 118.804  0.00  0.00     0.210 C 
ATOM     15  C   LIG d   1     -11.845  72.952 118.290  0.00  0.00     0.109 C 
ATOM     16  O   LIG d   1     -10.325  73.765 119.972  0.00  0.00    -0.276 OA
ATOM     17  H   LIG d   1     -10.700  74.805 117.012  0.00  0.00     0.149 HD
ENDBRANCH   6  13
BRANCH   5  18
ATOM     18  N   LIG d   1     -10.652  77.372 119.484  0.00  0.00     0.381 N 
ATOM     19  H   LIG d   1     -11.096  78.266 119.418  0.00  0.00    -0.090 HD
ATOM     20  H   LIG d   1     -10.126  77.344 120.340  0.00  0.00    -0.090 HD
ATOM     21  H   LIG d   1     -11.340  76.651 119.484  0.00  0.00    -0.090 HD
ENDBRANCH   5  18
BRANCH   3  22
ATOM     22  C   LIG d   1      -6.747  79.058 117.282  0.00  0.00     0.382 C 
ATOM     23  O   LIG d   1      -6.017  79.024 116.262  0.00  0.00    -0.241 OA
ATOM     24  O   LIG d   1      -6.735  80.066 118.013  0.00  0.00    -0.241 OA
ENDBRANCH   3  22
TORSDOF 7
ENDMDL
MODEL 7
REMARK VINA RESULT:      -5.0     17.192     19.146
REMARK  7 active torsions:
REMARK  status: ('A' for Active; 'I' for Inactive)
REMARK    1  A    between atoms: C_2  and  C_3 
REMARK    2  A    between atoms: C_3  and  O_6 
REMARK    3  A    between atoms: C_3  and  C_4 
REMARK    4  A    between atoms: C_7  and  O_6 
REMARK    5  A    between atoms: C_9  and  C_10 
REMARK    6  A    between atoms: N_15  and  C_14 
REMARK    7  A    between atoms: N_20  and  C_19 
REMARK       I    between atoms: C_22  and  N_20 
ROOT
ATOM      1  C   LIG d   1      -4.054  91.618 117.736  0.00  0.00     0.161 C 
ATOM      2  C   LIG d   1      -4.769  90.941 116.735  0.00  0.00     0.016 C 
ATOM      3  C   LIG d   1      -5.996  91.405 116.206  0.00  0.00     0.038 C 
ATOM      4  C   LIG d   1      -6.518  92.664 116.539  0.00  0.00     0.028 C 
ATOM      5  C   LIG d   1      -6.089  93.152 117.918  0.00  0.00    -0.047 C 
ATOM      6  C   LIG d   1      -4.551  93.049 118.032  0.00  0.00     0.091 C 
ENDROOT
BRANCH   1   7
ATOM      7  O   LIG d   1      -2.650  91.634 117.409  0.00  0.00    -0.368 OA
BRANCH   7   8
ATOM      8  C   LIG d   1      -1.874  90.504 117.877  0.00  0.00     0.119 C 
BRANCH   8   9
ATOM      9  C   LIG d   1      -2.119  90.371 119.393  0.00  0.00     0.028 C 
ATOM     10  C   LIG d   1      -2.522  88.943 119.799  0.00  0.00     0.006 C 
ENDBRANCH   8   9
BRANCH   8  11
ATOM     11  C   LIG d   1      -0.371  90.761 117.731  0.00  0.00     0.028 C 
ATOM     12  C   LIG d   1      -0.036  92.250 117.552  0.00  0.00     0.006 C 
ENDBRANCH   8  11
ENDBRANCH   7   8
ENDBRANCH   1   7
BRANCH   6  13
ATOM     13  N   LIG d   1      -4.056  93.428 119.381  0.00  0.00    -0.311 N 
ATOM     14  C   LIG d   1      -3.003  94.220 119.579  0.00  0.00     0.210 C 
ATOM     15  C   LIG d   1      -2.649  94.468 121.049  0.00  0.00     0.109 C 
ATOM     16  O   LIG d   1      -2.349  94.766 118.678  0.00  0.00    -0.276 OA
ATOM     17  H   LIG d   1      -4.547  93.054 120.169  0.00  0.00     0.149 HD
ENDBRANCH   6  13
BRANCH   5  18
ATOM     18  N   LIG d   1      -6.590  94.531 118.078  0.00  0.00     0.381 N 
ATOM     19  H   LIG d   1      -7.222  94.750 117.335  0.00  0.00    -0.090 HD
ATOM     20  H   LIG d   1      -5.813  95.166 118.029  0.00  0.00    -0.090 HD
ATOM     21  H   LIG d   1      -7.051  94.626 118.956  0.00  0.00    -0.090 HD
ENDBRANCH   5  18
BRANCH   3  22
ATOM     22  C   LIG d   1      -6.734  90.587 115.364  0.00  0.00     0.382 C 
ATOM     23  O   LIG d   1      -7.892  90.925 115.018  0.00  0.00    -0.241 OA
ATOM     24  O   LIG d   1      -6.274  89.495 114.982  0.00  0.00    -0.241 OA
ENDBRANCH   3  22
TORSDOF 7
ENDMDL
MODEL 8
REMARK VINA RESULT:      -5.0      2.761      5.082
REMARK  7 active torsions:
REMARK  status: ('A' for Active; 'I' for Inactive)
REMARK    1  A    between atoms: C_2  and  C_3 
REMARK    2  A    between atoms: C_3  and  O_6 
REMARK    3  A    between atoms: C_3  and  C_4 
REMARK    4  A    between atoms: C_7  and  O_6 
REMARK    5  A    between atoms: C_9  and  C_10 
REMARK    6  A    between atoms: N_15  and  C_14 
REMARK    7  A    between atoms: N_20  and  C_19 
REMARK       I    between atoms: C_22  and  N_20 
ROOT
ATOM      1  C   LIG d   1     -10.094  75.733 118.134  0.00  0.00     0.161 C 
ATOM      2  C   LIG d   1      -9.630  74.426 117.908  0.00  0.00     0.016 C 
ATOM      3  C   LIG d   1      -8.275  74.116 117.647  0.00  0.00     0.038 C 
ATOM      4  C   LIG d   1      -7.261  75.080 117.745  0.00  0.00     0.028 C 
ATOM      5  C   LIG d   1      -7.747  76.499 117.473  0.00  0.00    -0.047 C 
ATOM      6  C   LIG d   1      -8.985  76.784 118.355  0.00  0.00     0.091 C 
ENDROOT
BRANCH   1   7
ATOM      7  O   LIG d   1     -11.017  75.739 119.240  0.00  0.00    -0.368 OA
BRANCH   7   8
ATOM      8  C   LIG d   1     -11.178  74.483 119.943  0.00  0.00     0.119 C 
BRANCH   8   9
ATOM      9  C   LIG d   1     -12.676  74.121 119.908  0.00  0.00     0.028 C 
ATOM     10  C   LIG d   1     -12.999  73.062 118.842  0.00  0.00     0.006 C 
ENDBRANCH   8   9
BRANCH   8  11
ATOM     11  C   LIG d   1     -10.830  74.626 121.428  0.00  0.00     0.028 C 
ATOM     12  C   LIG d   1      -9.756  73.627 121.887  0.00  0.00     0.006 C 
ENDBRANCH   8  11
ENDBRANCH   7   8
ENDBRANCH   1   7
BRANCH   6  13
ATOM     13  N   LIG d   1      -9.574  78.122 118.089  0.00  0.00    -0.311 N 
ATOM     14  C   LIG d   1      -9.255  79.214 118.782  0.00  0.00     0.210 C 
ATOM     15  C   LIG d   1      -9.994  80.487 118.359  0.00  0.00     0.109 C 
ATOM     16  O   LIG d   1      -8.406  79.255 119.685  0.00  0.00    -0.276 OA
ATOM     17  H   LIG d   1     -10.249  78.185 117.353  0.00  0.00     0.149 HD
ENDBRANCH   6  13
BRANCH   5  18
ATOM     18  N   LIG d   1      -6.622  77.415 117.744  0.00  0.00     0.381 N 
ATOM     19  H   LIG d   1      -6.032  77.474 116.938  0.00  0.00    -0.090 HD
ATOM     20  H   LIG d   1      -6.080  77.047 118.506  0.00  0.00    -0.090 HD
ATOM     21  H   LIG d   1      -6.968  78.319 117.979  0.00  0.00    -0.090 HD
ENDBRANCH   5  18
BRANCH   3  22
ATOM     22  C   LIG d   1      -7.930  72.834 117.245  0.00  0.00     0.382 C 
ATOM     23  O   LIG d   1      -8.535  71.843 117.720  0.00  0.00    -0.241 OA
ATOM     24  O   LIG d   1      -6.990  72.655 116.446  0.00  0.00    -0.241 OA
ENDBRANCH   3  22
TORSDOF 7
ENDMDL
MODEL 9
REMARK VINA RESULT:      -5.0      2.724      4.669
REMARK  7 active torsions:
REMARK  status: ('A' for Active; 'I' for Inactive)
REMARK    1  A    between atoms: C_2  and  C_3 
REMARK    2  A    between atoms: C_3  and  O_6 
REMARK    3  A    between atoms: C_3  and  C_4 
REMARK    4  A    between atoms: C_7  and  O_6 
REMARK    5  A    between atoms: C_9  and  C_10 
REMARK    6  A    between atoms: N_15  and  C_14 
REMARK    7  A    between atoms: N_20  and  C_19 
REMARK       I    between atoms: C_22  and  N_20 
ROOT
ATOM      1  C   LIG d   1      -8.118  74.844 117.749  0.00  0.00     0.161 C 
ATOM      2  C   LIG d   1      -8.229  73.459 117.538  0.00  0.00     0.016 C 
ATOM      3  C   LIG d   1      -7.454  72.751 116.591  0.00  0.00     0.038 C 
ATOM      4  C   LIG d   1      -6.402  73.359 115.891  0.00  0.00     0.028 C 
ATOM      5  C   LIG d   1      -6.587  74.861 115.702  0.00  0.00    -0.047 C 
ATOM      6  C   LIG d   1      -6.897  75.504 117.073  0.00  0.00     0.091 C 
ENDROOT
BRANCH   1   7
ATOM      7  O   LIG d   1      -8.121  75.125 119.162  0.00  0.00    -0.368 OA
BRANCH   7   8
ATOM      8  C   LIG d   1      -9.260  75.870 119.661  0.00  0.00     0.119 C 
BRANCH   8   9
ATOM      9  C   LIG d   1      -8.812  76.597 120.943  0.00  0.00     0.028 C 
ATOM     10  C   LIG d   1      -7.283  76.740 121.033  0.00  0.00     0.006 C 
ENDBRANCH   8   9
BRANCH   8  11
ATOM     11  C   LIG d   1     -10.389  74.933 120.100  0.00  0.00     0.028 C 
ATOM     12  C   LIG d   1      -9.920  73.859 121.094  0.00  0.00     0.006 C 
ENDBRANCH   8  11
ENDBRANCH   7   8
ENDBRANCH   1   7
BRANCH   6  13
ATOM     13  N   LIG d   1      -7.176  76.960 116.966  0.00  0.00    -0.311 N 
ATOM     14  C   LIG d   1      -6.423  77.895 117.544  0.00  0.00     0.210 C 
ATOM     15  C   LIG d   1      -6.899  79.335 117.324  0.00  0.00     0.109 C 
ATOM     16  O   LIG d   1      -5.389  77.671 118.190  0.00  0.00    -0.276 OA
ATOM     17  H   LIG d   1      -7.979  77.233 116.434  0.00  0.00     0.149 HD
ENDBRANCH   6  13
BRANCH   5  18
ATOM     18  N   LIG d   1      -5.357  75.388 115.082  0.00  0.00     0.381 N 
ATOM     19  H   LIG d   1      -5.038  74.757 114.374  0.00  0.00    -0.090 HD
ATOM     20  H   LIG d   1      -4.643  75.460 115.785  0.00  0.00    -0.090 HD
ATOM     21  H   LIG d   1      -5.533  76.284 114.683  0.00  0.00    -0.090 HD
ENDBRANCH   5  18
BRANCH   3  22
ATOM     22  C   LIG d   1      -7.757  71.428 116.307  0.00  0.00     0.382 C 
ATOM     23  O   LIG d   1      -7.178  70.842 115.361  0.00  0.00    -0.241 OA
ATOM     24  O   LIG d   1      -8.633  70.827 116.957  0.00  0.00    -0.241 OA
ENDBRANCH   3  22
TORSDOF 7
ENDMDL
