MODEL 1
REMARK VINA RESULT:      -6.2      0.000      0.000
REMARK  7 active torsions:
REMARK  status: ('A' for Active; 'I' for Inactive)
REMARK    1  A    between atoms: C_2  and  C_3 
REMARK    2  A    between atoms: C_3  and  O_6 
REMARK    3  A    between atoms: C_3  and  C_4 
REMARK    4  A    between atoms: C_7  and  O_6 
REMARK    5  A    between atoms: C_9  and  C_10 
REMARK    6  A    between atoms: N_15  and  C_14 
REMARK    7  A    between atoms: N_20  and  C_19 
REMARK       I    between atoms: C_22  and  N_20 
ROOT
ATOM      1  C   LIG d   1       1.358  82.851 111.833  0.00  0.00     0.161 C 
ATOM      2  C   LIG d   1       2.401  82.483 110.967  0.00  0.00     0.016 C 
ATOM      3  C   LIG d   1       2.440  81.249 110.276  0.00  0.00     0.038 C 
ATOM      4  C   LIG d   1       1.357  80.358 110.289  0.00  0.00     0.028 C 
ATOM      5  C   LIG d   1       0.502  80.461 111.548  0.00  0.00    -0.047 C 
ATOM      6  C   LIG d   1       0.114  81.940 111.772  0.00  0.00     0.091 C 
ENDROOT
BRANCH   1   7
ATOM      7  O   LIG d   1       0.986  84.223 111.593  0.00  0.00    -0.368 OA
BRANCH   7   8
ATOM      8  C   LIG d   1       1.696  84.899 110.526  0.00  0.00     0.119 C 
BRANCH   8   9
ATOM      9  C   LIG d   1       2.272  86.204 111.108  0.00  0.00     0.028 C 
ATOM     10  C   LIG d   1       3.752  86.067 111.504  0.00  0.00     0.006 C 
ENDBRANCH   8   9
BRANCH   8  11
ATOM     11  C   LIG d   1       0.740  85.338 109.412  0.00  0.00     0.028 C 
ATOM     12  C   LIG d   1      -0.635  85.771 109.943  0.00  0.00     0.006 C 
ENDBRANCH   8  11
ENDBRANCH   7   8
ENDBRANCH   1   7
BRANCH   6  13
ATOM     13  N   LIG d   1      -0.652  82.141 113.029  0.00  0.00    -0.311 N 
ATOM     14  C   LIG d   1      -1.976  82.021 113.108  0.00  0.00     0.210 C 
ATOM     15  C   LIG d   1      -2.569  82.290 114.495  0.00  0.00     0.109 C 
ATOM     16  O   LIG d   1      -2.713  81.687 112.168  0.00  0.00    -0.276 OA
ATOM     17  H   LIG d   1      -0.130  82.384 113.848  0.00  0.00     0.149 HD
ENDBRANCH   6  13
BRANCH   5  18
ATOM     18  N   LIG d   1      -0.665  79.577 111.367  0.00  0.00     0.381 N 
ATOM     19  H   LIG d   1      -0.848  79.452 110.391  0.00  0.00    -0.090 HD
ATOM     20  H   LIG d   1      -1.469  80.012 111.785  0.00  0.00    -0.090 HD
ATOM     21  H   LIG d   1      -0.495  78.695 111.797  0.00  0.00    -0.090 HD
ENDBRANCH   5  18
BRANCH   3  22
ATOM     22  C   LIG d   1       3.590  80.879 109.595  0.00  0.00     0.382 C 
ATOM     23  O   LIG d   1       3.786  79.674 109.305  0.00  0.00    -0.241 OA
ATOM     24  O   LIG d   1       4.454  81.728 109.307  0.00  0.00    -0.241 OA
ENDBRANCH   3  22
TORSDOF 7
ENDMDL
MODEL 2
REMARK VINA RESULT:      -6.0      2.134      4.981
REMARK  7 active torsions:
REMARK  status: ('A' for Active; 'I' for Inactive)
REMARK    1  A    between atoms: C_2  and  C_3 
REMARK    2  A    between atoms: C_3  and  O_6 
REMARK    3  A    between atoms: C_3  and  C_4 
REMARK    4  A    between atoms: C_7  and  O_6 
REMARK    5  A    between atoms: C_9  and  C_10 
REMARK    6  A    between atoms: N_15  and  C_14 
REMARK    7  A    between atoms: N_20  and  C_19 
REMARK       I    between atoms: C_22  and  N_20 
ROOT
ATOM      1  C   LIG d   1       0.381  82.955 112.127  0.00  0.00     0.161 C 
ATOM      2  C   LIG d   1      -0.856  82.592 112.685  0.00  0.00     0.016 C 
ATOM      3  C   LIG d   1      -1.462  81.332 112.479  0.00  0.00     0.038 C 
ATOM      4  C   LIG d   1      -0.797  80.287 111.819  0.00  0.00     0.028 C 
ATOM      5  C   LIG d   1       0.237  80.771 110.808  0.00  0.00    -0.047 C 
ATOM      6  C   LIG d   1       1.173  81.791 111.497  0.00  0.00     0.091 C 
ENDROOT
BRANCH   1   7
ATOM      7  O   LIG d   1       1.184  83.630 113.116  0.00  0.00    -0.368 OA
BRANCH   7   8
ATOM      8  C   LIG d   1       1.006  85.065 113.210  0.00  0.00     0.119 C 
BRANCH   8   9
ATOM      9  C   LIG d   1       2.395  85.714 113.060  0.00  0.00     0.028 C 
ATOM     10  C   LIG d   1       3.528  84.675 113.022  0.00  0.00     0.006 C 
ENDBRANCH   8   9
BRANCH   8  11
ATOM     11  C   LIG d   1       0.515  85.475 114.602  0.00  0.00     0.028 C 
ATOM     12  C   LIG d   1       0.814  84.416 115.675  0.00  0.00     0.006 C 
ENDBRANCH   8  11
ENDBRANCH   7   8
ENDBRANCH   1   7
BRANCH   6  13
ATOM     13  N   LIG d   1       2.163  82.377 110.556  0.00  0.00    -0.311 N 
ATOM     14  C   LIG d   1       3.342  81.818 110.289  0.00  0.00     0.210 C 
ATOM     15  C   LIG d   1       4.220  82.598 109.305  0.00  0.00     0.109 C 
ATOM     16  O   LIG d   1       3.731  80.734 110.750  0.00  0.00    -0.276 OA
ATOM     17  H   LIG d   1       1.915  83.240 110.113  0.00  0.00     0.149 HD
ENDBRANCH   6  13
BRANCH   5  18
ATOM     18  N   LIG d   1       0.950  79.585 110.297  0.00  0.00     0.381 N 
ATOM     19  H   LIG d   1       1.102  79.679 109.313  0.00  0.00    -0.090 HD
ATOM     20  H   LIG d   1       0.380  78.772 110.452  0.00  0.00    -0.090 HD
ATOM     21  H   LIG d   1       1.822  79.483 110.767  0.00  0.00    -0.090 HD
ENDBRANCH   5  18
BRANCH   3  22
ATOM     22  C   LIG d   1      -2.766  81.119 112.901  0.00  0.00     0.382 C 
ATOM     23  O   LIG d   1      -3.725  81.522 112.200  0.00  0.00    -0.241 OA
ATOM     24  O   LIG d   1      -2.994  80.569 113.995  0.00  0.00    -0.241 OA
ENDBRANCH   3  22
TORSDOF 7
ENDMDL
MODEL 3
REMARK VINA RESULT:      -5.9      2.663      4.593
REMARK  7 active torsions:
REMARK  status: ('A' for Active; 'I' for Inactive)
REMARK    1  A    between atoms: C_2  and  C_3 
REMARK    2  A    between atoms: C_3  and  O_6 
REMARK    3  A    between atoms: C_3  and  C_4 
REMARK    4  A    between atoms: C_7  and  O_6 
REMARK    5  A    between atoms: C_9  and  C_10 
REMARK    6  A    between atoms: N_15  and  C_14 
REMARK    7  A    between atoms: N_20  and  C_19 
REMARK       I    between atoms: C_22  and  N_20 
ROOT
ATOM      1  C   LIG d   1      -0.115  84.086 113.062  0.00  0.00     0.161 C 
ATOM      2  C   LIG d   1       0.589  85.216 112.614  0.00  0.00     0.016 C 
ATOM      3  C   LIG d   1       1.156  85.318 111.323  0.00  0.00     0.038 C 
ATOM      4  C   LIG d   1       0.926  84.351 110.333  0.00  0.00     0.028 C 
ATOM      5  C   LIG d   1       0.647  82.962 110.897  0.00  0.00    -0.047 C 
ATOM      6  C   LIG d   1      -0.472  83.067 111.959  0.00  0.00     0.091 C 
ENDROOT
BRANCH   1   7
ATOM      7  O   LIG d   1      -1.304  84.498 113.766  0.00  0.00    -0.368 OA
BRANCH   7   8
ATOM      8  C   LIG d   1      -1.305  84.277 115.198  0.00  0.00     0.119 C 
BRANCH   8   9
ATOM      9  C   LIG d   1       0.098  83.775 115.590  0.00  0.00     0.028 C 
ATOM     10  C   LIG d   1       0.829  84.750 116.529  0.00  0.00     0.006 C 
ENDBRANCH   8   9
BRANCH   8  11
ATOM     11  C   LIG d   1      -2.263  83.147 115.587  0.00  0.00     0.028 C 
ATOM     12  C   LIG d   1      -1.585  82.056 116.431  0.00  0.00     0.006 C 
ENDBRANCH   8  11
ENDBRANCH   7   8
ENDBRANCH   1   7
BRANCH   6  13
ATOM     13  N   LIG d   1      -0.749  81.766 112.621  0.00  0.00    -0.311 N 
ATOM     14  C   LIG d   1      -1.957  81.206 112.662  0.00  0.00     0.210 C 
ATOM     15  C   LIG d   1      -2.026  79.873 113.413  0.00  0.00     0.109 C 
ATOM     16  O   LIG d   1      -2.970  81.672 112.120  0.00  0.00    -0.276 OA
ATOM     17  H   LIG d   1       0.024  81.303 113.060  0.00  0.00     0.149 HD
ENDBRANCH   6  13
BRANCH   5  18
ATOM     18  N   LIG d   1       0.290  82.085 109.766  0.00  0.00     0.381 N 
ATOM     19  H   LIG d   1      -0.095  82.632 109.022  0.00  0.00    -0.090 HD
ATOM     20  H   LIG d   1      -0.409  81.430 110.070  0.00  0.00    -0.090 HD
ATOM     21  H   LIG d   1       1.097  81.596 109.446  0.00  0.00    -0.090 HD
ENDBRANCH   5  18
BRANCH   3  22
ATOM     22  C   LIG d   1       1.997  86.379 111.024  0.00  0.00     0.382 C 
ATOM     23  O   LIG d   1       3.238  86.201 110.976  0.00  0.00    -0.241 OA
ATOM     24  O   LIG d   1       1.534  87.522 110.846  0.00  0.00    -0.241 OA
ENDBRANCH   3  22
TORSDOF 7
ENDMDL
MODEL 4
REMARK VINA RESULT:      -5.7      2.908      5.573
REMARK  7 active torsions:
REMARK  status: ('A' for Active; 'I' for Inactive)
REMARK    1  A    between atoms: C_2  and  C_3 
REMARK    2  A    between atoms: C_3  and  O_6 
REMARK    3  A    between atoms: C_3  and  C_4 
REMARK    4  A    between atoms: C_7  and  O_6 
REMARK    5  A    between atoms: C_9  and  C_10 
REMARK    6  A    between atoms: N_15  and  C_14 
REMARK    7  A    between atoms: N_20  and  C_19 
REMARK       I    between atoms: C_22  and  N_20 
ROOT
ATOM      1  C   LIG d   1       1.474  84.704 113.433  0.00  0.00     0.161 C 
ATOM      2  C   LIG d   1       2.210  85.894 113.562  0.00  0.00     0.016 C 
ATOM      3  C   LIG d   1       2.922  86.489 112.496  0.00  0.00     0.038 C 
ATOM      4  C   LIG d   1       2.823  86.012 111.180  0.00  0.00     0.028 C 
ATOM      5  C   LIG d   1       2.500  84.523 111.099  0.00  0.00    -0.047 C 
ATOM      6  C   LIG d   1       1.264  84.229 111.980  0.00  0.00     0.091 C 
ENDROOT
BRANCH   1   7
ATOM      7  O   LIG d   1       0.207  84.837 114.105  0.00  0.00    -0.368 OA
BRANCH   7   8
ATOM      8  C   LIG d   1      -0.040  83.909 115.190  0.00  0.00     0.119 C 
BRANCH   8   9
ATOM      9  C   LIG d   1      -1.567  83.799 115.367  0.00  0.00     0.028 C 
ATOM     10  C   LIG d   1      -2.110  82.425 114.940  0.00  0.00     0.006 C 
ENDBRANCH   8   9
BRANCH   8  11
ATOM     11  C   LIG d   1       0.485  84.456 116.521  0.00  0.00     0.028 C 
ATOM     12  C   LIG d   1      -0.066  83.694 117.737  0.00  0.00     0.006 C 
ENDBRANCH   8  11
ENDBRANCH   7   8
ENDBRANCH   1   7
BRANCH   6  13
ATOM     13  N   LIG d   1       0.930  82.782 112.024  0.00  0.00    -0.311 N 
ATOM     14  C   LIG d   1      -0.266  82.295 111.699  0.00  0.00     0.210 C 
ATOM     15  C   LIG d   1      -0.404  80.775 111.833  0.00  0.00     0.109 C 
ATOM     16  O   LIG d   1      -1.216  82.973 111.281  0.00  0.00    -0.276 OA
ATOM     17  H   LIG d   1       1.653  82.156 112.321  0.00  0.00     0.149 HD
ENDBRANCH   6  13
BRANCH   5  18
ATOM     18  N   LIG d   1       2.289  84.190 109.678  0.00  0.00     0.381 N 
ATOM     19  H   LIG d   1       3.158  83.924 109.260  0.00  0.00    -0.090 HD
ATOM     20  H   LIG d   1       1.946  85.005 109.200  0.00  0.00    -0.090 HD
ATOM     21  H   LIG d   1       1.631  83.447 109.595  0.00  0.00    -0.090 HD
ENDBRANCH   5  18
BRANCH   3  22
ATOM     22  C   LIG d   1       3.777  87.551 112.748  0.00  0.00     0.382 C 
ATOM     23  O   LIG d   1       3.308  88.673 113.060  0.00  0.00    -0.241 OA
ATOM     24  O   LIG d   1       5.008  87.414 112.624  0.00  0.00    -0.241 OA
ENDBRANCH   3  22
TORSDOF 7
ENDMDL
MODEL 5
REMARK VINA RESULT:      -5.4      3.454      6.079
REMARK  7 active torsions:
REMARK  status: ('A' for Active; 'I' for Inactive)
REMARK    1  A    between atoms: C_2  and  C_3 
REMARK    2  A    between atoms: C_3  and  O_6 
REMARK    3  A    between atoms: C_3  and  C_4 
REMARK    4  A    between atoms: C_7  and  O_6 
REMARK    5  A    between atoms: C_9  and  C_10 
REMARK    6  A    between atoms: N_15  and  C_14 
REMARK    7  A    between atoms: N_20  and  C_19 
REMARK       I    between atoms: C_22  and  N_20 
ROOT
ATOM      1  C   LIG d   1       2.256  84.677 112.828  0.00  0.00     0.161 C 
ATOM      2  C   LIG d   1       1.102  83.911 113.066  0.00  0.00     0.016 C 
ATOM      3  C   LIG d   1       0.143  84.236 114.053  0.00  0.00     0.038 C 
ATOM      4  C   LIG d   1       0.197  85.440 114.772  0.00  0.00     0.028 C 
ATOM      5  C   LIG d   1       1.609  85.994 114.920  0.00  0.00    -0.047 C 
ATOM      6  C   LIG d   1       2.274  86.053 113.526  0.00  0.00     0.091 C 
ENDROOT
BRANCH   1   7
ATOM      7  O   LIG d   1       2.455  84.832 111.409  0.00  0.00    -0.368 OA
BRANCH   7   8
ATOM      8  C   LIG d   1       1.279  84.665 110.578  0.00  0.00     0.119 C 
BRANCH   8   9
ATOM      9  C   LIG d   1       1.715  83.915 109.305  0.00  0.00     0.028 C 
ATOM     10  C   LIG d   1       2.991  83.084 109.521  0.00  0.00     0.006 C 
ENDBRANCH   8   9
BRANCH   8  11
ATOM     11  C   LIG d   1       0.746  86.016 110.091  0.00  0.00     0.028 C 
ATOM     12  C   LIG d   1      -0.543  86.443 110.812  0.00  0.00     0.006 C 
ENDBRANCH   8  11
ENDBRANCH   7   8
ENDBRANCH   1   7
BRANCH   6  13
ATOM     13  N   LIG d   1       3.689  86.505 113.591  0.00  0.00    -0.311 N 
ATOM     14  C   LIG d   1       4.071  87.755 113.336  0.00  0.00     0.210 C 
ATOM     15  C   LIG d   1       5.579  88.004 113.440  0.00  0.00     0.109 C 
ATOM     16  O   LIG d   1       3.301  88.689 113.065  0.00  0.00    -0.276 OA
ATOM     17  H   LIG d   1       4.376  85.819 113.834  0.00  0.00     0.149 HD
ENDBRANCH   6  13
BRANCH   5  18
ATOM     18  N   LIG d   1       1.504  87.316 115.566  0.00  0.00     0.381 N 
ATOM     19  H   LIG d   1       2.146  87.371 116.332  0.00  0.00    -0.090 HD
ATOM     20  H   LIG d   1       0.573  87.428 115.927  0.00  0.00    -0.090 HD
ATOM     21  H   LIG d   1       1.701  88.035 114.906  0.00  0.00    -0.090 HD
ENDBRANCH   5  18
BRANCH   3  22
ATOM     22  C   LIG d   1      -0.863  83.332 114.358  0.00  0.00     0.382 C 
ATOM     23  O   LIG d   1      -1.953  83.740 114.826  0.00  0.00    -0.241 OA
ATOM     24  O   LIG d   1      -0.678  82.108 114.211  0.00  0.00    -0.241 OA
ENDBRANCH   3  22
TORSDOF 7
ENDMDL
MODEL 6
REMARK VINA RESULT:      -5.4      2.870      5.733
REMARK  7 active torsions:
REMARK  status: ('A' for Active; 'I' for Inactive)
REMARK    1  A    between atoms: C_2  and  C_3 
REMARK    2  A    between atoms: C_3  and  O_6 
REMARK    3  A    between atoms: C_3  and  C_4 
REMARK    4  A    between atoms: C_7  and  O_6 
REMARK    5  A    between atoms: C_9  and  C_10 
REMARK    6  A    between atoms: N_15  and  C_14 
REMARK    7  A    between atoms: N_20  and  C_19 
REMARK       I    between atoms: C_22  and  N_20 
ROOT
ATOM      1  C   LIG d   1       0.188  83.672 113.840  0.00  0.00     0.161 C 
ATOM      2  C   LIG d   1      -0.955  82.871 114.004  0.00  0.00     0.016 C 
ATOM      3  C   LIG d   1      -1.508  82.084 112.968  0.00  0.00     0.038 C 
ATOM      4  C   LIG d   1      -0.863  81.926 111.732  0.00  0.00     0.028 C 
ATOM      5  C   LIG d   1       0.019  83.111 111.353  0.00  0.00    -0.047 C 
ATOM      6  C   LIG d   1       0.968  83.426 112.532  0.00  0.00     0.091 C 
ENDROOT
BRANCH   1   7
ATOM      7  O   LIG d   1       1.058  83.519 114.979  0.00  0.00    -0.368 OA
BRANCH   7   8
ATOM      8  C   LIG d   1       0.841  84.441 116.075  0.00  0.00     0.119 C 
BRANCH   8   9
ATOM      9  C   LIG d   1       2.090  85.337 116.182  0.00  0.00     0.028 C 
ATOM     10  C   LIG d   1       1.937  86.653 115.401  0.00  0.00     0.006 C 
ENDBRANCH   8   9
BRANCH   8  11
ATOM     11  C   LIG d   1       0.755  83.704 117.415  0.00  0.00     0.028 C 
ATOM     12  C   LIG d   1      -0.679  83.283 117.773  0.00  0.00     0.006 C 
ENDBRANCH   8  11
ENDBRANCH   7   8
ENDBRANCH   1   7
BRANCH   6  13
ATOM     13  N   LIG d   1       1.809  84.625 112.278  0.00  0.00    -0.311 N 
ATOM     14  C   LIG d   1       3.065  84.561 111.840  0.00  0.00     0.210 C 
ATOM     15  C   LIG d   1       3.759  85.915 111.663  0.00  0.00     0.109 C 
ATOM     16  O   LIG d   1       3.660  83.512 111.550  0.00  0.00    -0.276 OA
ATOM     17  H   LIG d   1       1.394  85.519 112.457  0.00  0.00     0.149 HD
ENDBRANCH   6  13
BRANCH   5  18
ATOM     18  N   LIG d   1       0.736  82.755 110.114  0.00  0.00     0.381 N 
ATOM     19  H   LIG d   1       0.617  83.479 109.434  0.00  0.00    -0.090 HD
ATOM     20  H   LIG d   1       0.343  81.907 109.744  0.00  0.00    -0.090 HD
ATOM     21  H   LIG d   1       1.705  82.625 110.305  0.00  0.00    -0.090 HD
ENDBRANCH   5  18
BRANCH   3  22
ATOM     22  C   LIG d   1      -2.741  81.476 113.150  0.00  0.00     0.382 C 
ATOM     23  O   LIG d   1      -3.014  80.930 114.246  0.00  0.00    -0.241 OA
ATOM     24  O   LIG d   1      -3.565  81.428 112.218  0.00  0.00    -0.241 OA
ENDBRANCH   3  22
TORSDOF 7
ENDMDL
MODEL 7
REMARK VINA RESULT:      -5.4      7.587     10.818
REMARK  7 active torsions:
REMARK  status: ('A' for Active; 'I' for Inactive)
REMARK    1  A    between atoms: C_2  and  C_3 
REMARK    2  A    between atoms: C_3  and  O_6 
REMARK    3  A    between atoms: C_3  and  C_4 
REMARK    4  A    between atoms: C_7  and  O_6 
REMARK    5  A    between atoms: C_9  and  C_10 
REMARK    6  A    between atoms: N_15  and  C_14 
REMARK    7  A    between atoms: N_20  and  C_19 
REMARK       I    between atoms: C_22  and  N_20 
ROOT
ATOM      1  C   LIG d   1      -3.642  75.289 115.741  0.00  0.00     0.161 C 
ATOM      2  C   LIG d   1      -4.577  74.326 116.158  0.00  0.00     0.016 C 
ATOM      3  C   LIG d   1      -5.808  74.101 115.499  0.00  0.00     0.038 C 
ATOM      4  C   LIG d   1      -6.123  74.724 114.282  0.00  0.00     0.028 C 
ATOM      5  C   LIG d   1      -5.433  76.071 114.095  0.00  0.00    -0.047 C 
ATOM      6  C   LIG d   1      -3.918  75.900 114.351  0.00  0.00     0.091 C 
ENDROOT
BRANCH   1   7
ATOM      7  O   LIG d   1      -2.314  74.732 115.789  0.00  0.00    -0.368 OA
BRANCH   7   8
ATOM      8  C   LIG d   1      -1.400  75.342 116.733  0.00  0.00     0.119 C 
BRANCH   8   9
ATOM      9  C   LIG d   1      -0.207  75.896 115.931  0.00  0.00     0.028 C 
ATOM     10  C   LIG d   1      -0.057  75.218 114.559  0.00  0.00     0.006 C 
ENDBRANCH   8   9
BRANCH   8  11
ATOM     11  C   LIG d   1      -0.802  74.300 117.683  0.00  0.00     0.028 C 
ATOM     12  C   LIG d   1       0.272  74.887 118.611  0.00  0.00     0.006 C 
ENDBRANCH   8  11
ENDBRANCH   7   8
ENDBRANCH   1   7
BRANCH   6  13
ATOM     13  N   LIG d   1      -3.181  77.187 114.271  0.00  0.00    -0.311 N 
ATOM     14  C   LIG d   1      -2.618  77.642 113.153  0.00  0.00     0.210 C 
ATOM     15  C   LIG d   1      -1.889  78.981 113.294  0.00  0.00     0.109 C 
ATOM     16  O   LIG d   1      -2.682  77.078 112.050  0.00  0.00    -0.276 OA
ATOM     17  H   LIG d   1      -3.108  77.724 115.113  0.00  0.00     0.149 HD
ENDBRANCH   6  13
BRANCH   5  18
ATOM     18  N   LIG d   1      -5.739  76.542 112.731  0.00  0.00     0.381 N 
ATOM     19  H   LIG d   1      -6.300  77.370 112.776  0.00  0.00    -0.090 HD
ATOM     20  H   LIG d   1      -6.264  75.832 112.251  0.00  0.00    -0.090 HD
ATOM     21  H   LIG d   1      -4.894  76.731 112.238  0.00  0.00    -0.090 HD
ENDBRANCH   5  18
BRANCH   3  22
ATOM     22  C   LIG d   1      -6.757  73.274 116.081  0.00  0.00     0.382 C 
ATOM     23  O   LIG d   1      -6.547  72.040 116.163  0.00  0.00    -0.241 OA
ATOM     24  O   LIG d   1      -7.840  73.740 116.483  0.00  0.00    -0.241 OA
ENDBRANCH   3  22
TORSDOF 7
ENDMDL
MODEL 8
REMARK VINA RESULT:      -5.3      3.479      5.883
REMARK  7 active torsions:
REMARK  status: ('A' for Active; 'I' for Inactive)
REMARK    1  A    between atoms: C_2  and  C_3 
REMARK    2  A    between atoms: C_3  and  O_6 
REMARK    3  A    between atoms: C_3  and  C_4 
REMARK    4  A    between atoms: C_7  and  O_6 
REMARK    5  A    between atoms: C_9  and  C_10 
REMARK    6  A    between atoms: N_15  and  C_14 
REMARK    7  A    between atoms: N_20  and  C_19 
REMARK       I    between atoms: C_22  and  N_20 
ROOT
ATOM      1  C   LIG d   1       2.482  85.737 112.823  0.00  0.00     0.161 C 
ATOM      2  C   LIG d   1       3.317  86.850 112.624  0.00  0.00     0.016 C 
ATOM      3  C   LIG d   1       3.946  87.549 113.679  0.00  0.00     0.038 C 
ATOM      4  C   LIG d   1       3.905  87.088 115.003  0.00  0.00     0.028 C 
ATOM      5  C   LIG d   1       2.663  86.261 115.318  0.00  0.00    -0.047 C 
ATOM      6  C   LIG d   1       2.514  85.152 114.251  0.00  0.00     0.091 C 
ENDROOT
BRANCH   1   7
ATOM      7  O   LIG d   1       2.792  84.714 111.856  0.00  0.00    -0.368 OA
BRANCH   7   8
ATOM      8  C   LIG d   1       2.267  84.919 110.521  0.00  0.00     0.119 C 
BRANCH   8   9
ATOM      9  C   LIG d   1       0.781  85.305 110.663  0.00  0.00     0.028 C 
ATOM     10  C   LIG d   1       0.119  85.596 109.306  0.00  0.00     0.006 C 
ENDBRANCH   8   9
BRANCH   8  11
ATOM     11  C   LIG d   1       2.272  83.617 109.714  0.00  0.00     0.028 C 
ATOM     12  C   LIG d   1       3.634  82.906 109.741  0.00  0.00     0.006 C 
ENDBRANCH   8  11
ENDBRANCH   7   8
ENDBRANCH   1   7
BRANCH   6  13
ATOM     13  N   LIG d   1       1.278  84.349 114.436  0.00  0.00    -0.311 N 
ATOM     14  C   LIG d   1       0.054  84.875 114.428  0.00  0.00     0.210 C 
ATOM     15  C   LIG d   1      -1.082  83.873 114.657  0.00  0.00     0.109 C 
ATOM     16  O   LIG d   1      -0.200  86.071 114.220  0.00  0.00    -0.276 OA
ATOM     17  H   LIG d   1       1.390  83.365 114.579  0.00  0.00     0.149 HD
ENDBRANCH   6  13
BRANCH   5  18
ATOM     18  N   LIG d   1       2.815  85.731 116.686  0.00  0.00     0.381 N 
ATOM     19  H   LIG d   1       2.097  86.103 117.275  0.00  0.00    -0.090 HD
ATOM     20  H   LIG d   1       3.705  86.023 117.050  0.00  0.00    -0.090 HD
ATOM     21  H   LIG d   1       2.763  84.736 116.673  0.00  0.00    -0.090 HD
ENDBRANCH   5  18
BRANCH   3  22
ATOM     22  C   LIG d   1       4.594  88.747 113.418  0.00  0.00     0.382 C 
ATOM     23  O   LIG d   1       5.778  88.742 113.001  0.00  0.00    -0.241 OA
ATOM     24  O   LIG d   1       4.026  89.834 113.637  0.00  0.00    -0.241 OA
ENDBRANCH   3  22
TORSDOF 7
ENDMDL
MODEL 9
REMARK VINA RESULT:      -5.2      5.731      8.737
REMARK  7 active torsions:
REMARK  status: ('A' for Active; 'I' for Inactive)
REMARK    1  A    between atoms: C_2  and  C_3 
REMARK    2  A    between atoms: C_3  and  O_6 
REMARK    3  A    between atoms: C_3  and  C_4 
REMARK    4  A    between atoms: C_7  and  O_6 
REMARK    5  A    between atoms: C_9  and  C_10 
REMARK    6  A    between atoms: N_15  and  C_14 
REMARK    7  A    between atoms: N_20  and  C_19 
REMARK       I    between atoms: C_22  and  N_20 
ROOT
ATOM      1  C   LIG d   1       3.311  87.334 115.390  0.00  0.00     0.161 C 
ATOM      2  C   LIG d   1       3.493  88.076 116.569  0.00  0.00     0.016 C 
ATOM      3  C   LIG d   1       4.446  89.113 116.697  0.00  0.00     0.038 C 
ATOM      4  C   LIG d   1       5.183  89.582 115.600  0.00  0.00     0.028 C 
ATOM      5  C   LIG d   1       5.395  88.529 114.517  0.00  0.00    -0.047 C 
ATOM      6  C   LIG d   1       4.029  87.906 114.149  0.00  0.00     0.091 C 
ENDROOT
BRANCH   1   7
ATOM      7  O   LIG d   1       1.903  87.175 115.125  0.00  0.00    -0.368 OA
BRANCH   7   8
ATOM      8  C   LIG d   1       1.397  85.818 115.163  0.00  0.00     0.119 C 
BRANCH   8   9
ATOM      9  C   LIG d   1      -0.036  85.842 114.597  0.00  0.00     0.028 C 
ATOM     10  C   LIG d   1      -0.097  85.371 113.134  0.00  0.00     0.006 C 
ENDBRANCH   8   9
BRANCH   8  11
ATOM     11  C   LIG d   1       1.256  85.316 116.603  0.00  0.00     0.028 C 
ATOM     12  C   LIG d   1       0.293  84.125 116.727  0.00  0.00     0.006 C 
ENDBRANCH   8  11
ENDBRANCH   7   8
ENDBRANCH   1   7
BRANCH   6  13
ATOM     13  N   LIG d   1       4.156  86.807 113.157  0.00  0.00    -0.311 N 
ATOM     14  C   LIG d   1       3.390  86.707 112.071  0.00  0.00     0.210 C 
ATOM     15  C   LIG d   1       3.673  85.486 111.191  0.00  0.00     0.109 C 
ATOM     16  O   LIG d   1       2.526  87.531 111.737  0.00  0.00    -0.276 OA
ATOM     17  H   LIG d   1       4.854  86.111 113.334  0.00  0.00     0.149 HD
ENDBRANCH   6  13
BRANCH   5  18
ATOM     18  N   LIG d   1       6.056  89.189 113.376  0.00  0.00     0.381 N 
ATOM     19  H   LIG d   1       6.758  88.586 112.996  0.00  0.00    -0.090 HD
ATOM     20  H   LIG d   1       6.503  90.028 113.700  0.00  0.00    -0.090 HD
ATOM     21  H   LIG d   1       5.384  89.412 112.675  0.00  0.00    -0.090 HD
ENDBRANCH   5  18
BRANCH   3  22
ATOM     22  C   LIG d   1       4.698  89.664 117.944  0.00  0.00     0.382 C 
ATOM     23  O   LIG d   1       3.974  90.594 118.376  0.00  0.00    -0.241 OA
ATOM     24  O   LIG d   1       5.666  89.274 118.624  0.00  0.00    -0.241 OA
ENDBRANCH   3  22
TORSDOF 7
ENDMDL
