MODEL 1
REMARK VINA RESULT:      -6.7      0.000      0.000
REMARK  7 active torsions:
REMARK  status: ('A' for Active; 'I' for Inactive)
REMARK    1  A    between atoms: C_2  and  C_3 
REMARK    2  A    between atoms: C_3  and  O_6 
REMARK    3  A    between atoms: C_3  and  C_4 
REMARK    4  A    between atoms: C_7  and  O_6 
REMARK    5  A    between atoms: C_9  and  C_10 
REMARK    6  A    between atoms: N_15  and  C_14 
REMARK    7  A    between atoms: N_20  and  C_19 
REMARK       I    between atoms: C_22  and  N_20 
ROOT
ATOM      1  C   LIG d   1       1.385  81.329 111.776  0.00  0.00     0.161 C 
ATOM      2  C   LIG d   1       2.517  81.856 111.132  0.00  0.00     0.016 C 
ATOM      3  C   LIG d   1       2.732  81.765 109.738  0.00  0.00     0.038 C 
ATOM      4  C   LIG d   1       1.750  81.269 108.867  0.00  0.00     0.028 C 
ATOM      5  C   LIG d   1       0.808  80.266 109.525  0.00  0.00    -0.047 C 
ATOM      6  C   LIG d   1       0.252  80.882 110.829  0.00  0.00     0.091 C 
ENDROOT
BRANCH   1   7
ATOM      7  O   LIG d   1       0.887  82.275 112.742  0.00  0.00    -0.368 OA
BRANCH   7   8
ATOM      8  C   LIG d   1       1.091  83.675 112.427  0.00  0.00     0.119 C 
BRANCH   8   9
ATOM      9  C   LIG d   1       1.491  84.390 113.732  0.00  0.00     0.028 C 
ATOM     10  C   LIG d   1       0.997  85.846 113.779  0.00  0.00     0.006 C 
ENDBRANCH   8   9
BRANCH   8  11
ATOM     11  C   LIG d   1      -0.215  84.341 111.983  0.00  0.00     0.028 C 
ATOM     12  C   LIG d   1      -0.290  84.549 110.462  0.00  0.00     0.006 C 
ENDBRANCH   8  11
ENDBRANCH   7   8
ENDBRANCH   1   7
BRANCH   6  13
ATOM     13  N   LIG d   1      -0.614  79.935 111.579  0.00  0.00    -0.311 N 
ATOM     14  C   LIG d   1      -1.741  80.298 112.189  0.00  0.00     0.210 C 
ATOM     15  C   LIG d   1      -2.472  79.169 112.922  0.00  0.00     0.109 C 
ATOM     16  O   LIG d   1      -2.222  81.441 112.165  0.00  0.00    -0.276 OA
ATOM     17  H   LIG d   1      -0.315  78.981 111.623  0.00  0.00     0.149 HD
ENDBRANCH   6  13
BRANCH   5  18
ATOM     18  N   LIG d   1      -0.245  79.936 108.546  0.00  0.00     0.381 N 
ATOM     19  H   LIG d   1       0.010  80.283 107.643  0.00  0.00    -0.090 HD
ATOM     20  H   LIG d   1      -1.100  80.384 108.825  0.00  0.00    -0.090 HD
ATOM     21  H   LIG d   1      -0.377  78.950 108.506  0.00  0.00    -0.090 HD
ENDBRANCH   5  18
BRANCH   3  22
ATOM     22  C   LIG d   1       3.957  82.137 109.205  0.00  0.00     0.382 C 
ATOM     23  O   LIG d   1       4.385  83.304 109.372  0.00  0.00    -0.241 OA
ATOM     24  O   LIG d   1       4.620  81.332 108.523  0.00  0.00    -0.241 OA
ENDBRANCH   3  22
TORSDOF 7
ENDMDL
MODEL 2
REMARK VINA RESULT:      -6.5      2.426      4.861
REMARK  7 active torsions:
REMARK  status: ('A' for Active; 'I' for Inactive)
REMARK    1  A    between atoms: C_2  and  C_3 
REMARK    2  A    between atoms: C_3  and  O_6 
REMARK    3  A    between atoms: C_3  and  C_4 
REMARK    4  A    between atoms: C_7  and  O_6 
REMARK    5  A    between atoms: C_9  and  C_10 
REMARK    6  A    between atoms: N_15  and  C_14 
REMARK    7  A    between atoms: N_20  and  C_19 
REMARK       I    between atoms: C_22  and  N_20 
ROOT
ATOM      1  C   LIG d   1       0.995  84.042 109.796  0.00  0.00     0.161 C 
ATOM      2  C   LIG d   1       0.659  85.157 110.582  0.00  0.00     0.016 C 
ATOM      3  C   LIG d   1      -0.128  85.075 111.754  0.00  0.00     0.038 C 
ATOM      4  C   LIG d   1      -0.508  83.843 112.306  0.00  0.00     0.028 C 
ATOM      5  C   LIG d   1      -0.620  82.726 111.275  0.00  0.00    -0.047 C 
ATOM      6  C   LIG d   1       0.682  82.677 110.444  0.00  0.00     0.091 C 
ENDROOT
BRANCH   1   7
ATOM      7  O   LIG d   1       2.384  84.111 109.418  0.00  0.00    -0.368 OA
BRANCH   7   8
ATOM      8  C   LIG d   1       3.329  83.545 110.359  0.00  0.00     0.119 C 
BRANCH   8   9
ATOM      9  C   LIG d   1       3.968  84.714 111.134  0.00  0.00     0.028 C 
ATOM     10  C   LIG d   1       3.725  84.615 112.649  0.00  0.00     0.006 C 
ENDBRANCH   8   9
BRANCH   8  11
ATOM     11  C   LIG d   1       4.490  82.855 109.636  0.00  0.00     0.028 C 
ATOM     12  C   LIG d   1       4.122  82.403 108.214  0.00  0.00     0.006 C 
ENDBRANCH   8  11
ENDBRANCH   7   8
ENDBRANCH   1   7
BRANCH   6  13
ATOM     13  N   LIG d   1       0.623  81.666 109.356  0.00  0.00    -0.311 N 
ATOM     14  C   LIG d   1       1.361  80.557 109.346  0.00  0.00     0.210 C 
ATOM     15  C   LIG d   1       1.161  79.659 108.120  0.00  0.00     0.109 C 
ATOM     16  O   LIG d   1       2.138  80.216 110.250  0.00  0.00    -0.276 OA
ATOM     17  H   LIG d   1      -0.004  81.848 108.598  0.00  0.00     0.149 HD
ENDBRANCH   6  13
BRANCH   5  18
ATOM     18  N   LIG d   1      -0.888  81.472 112.004  0.00  0.00     0.381 N 
ATOM     19  H   LIG d   1      -0.985  80.716 111.355  0.00  0.00    -0.090 HD
ATOM     20  H   LIG d   1      -1.752  81.567 112.509  0.00  0.00    -0.090 HD
ATOM     21  H   LIG d   1      -0.144  81.281 112.639  0.00  0.00    -0.090 HD
ENDBRANCH   5  18
BRANCH   3  22
ATOM     22  C   LIG d   1      -0.575  86.237 112.363  0.00  0.00     0.382 C 
ATOM     23  O   LIG d   1       0.004  86.671 113.388  0.00  0.00    -0.241 OA
ATOM     24  O   LIG d   1      -1.579  86.833 111.928  0.00  0.00    -0.241 OA
ENDBRANCH   3  22
TORSDOF 7
ENDMDL
MODEL 3
REMARK VINA RESULT:      -6.3      2.996      6.050
REMARK  7 active torsions:
REMARK  status: ('A' for Active; 'I' for Inactive)
REMARK    1  A    between atoms: C_2  and  C_3 
REMARK    2  A    between atoms: C_3  and  O_6 
REMARK    3  A    between atoms: C_3  and  C_4 
REMARK    4  A    between atoms: C_7  and  O_6 
REMARK    5  A    between atoms: C_9  and  C_10 
REMARK    6  A    between atoms: N_15  and  C_14 
REMARK    7  A    between atoms: N_20  and  C_19 
REMARK       I    between atoms: C_22  and  N_20 
ROOT
ATOM      1  C   LIG d   1       2.290  83.626 111.298  0.00  0.00     0.161 C 
ATOM      2  C   LIG d   1       1.318  82.617 111.193  0.00  0.00     0.016 C 
ATOM      3  C   LIG d   1       0.020  82.726 111.744  0.00  0.00     0.038 C 
ATOM      4  C   LIG d   1      -0.446  83.922 112.311  0.00  0.00     0.028 C 
ATOM      5  C   LIG d   1       0.665  84.792 112.888  0.00  0.00    -0.047 C 
ATOM      6  C   LIG d   1       1.763  84.980 111.817  0.00  0.00     0.091 C 
ENDROOT
BRANCH   1   7
ATOM      7  O   LIG d   1       2.954  83.799 110.031  0.00  0.00    -0.368 OA
BRANCH   7   8
ATOM      8  C   LIG d   1       2.580  82.871 108.983  0.00  0.00     0.119 C 
BRANCH   8   9
ATOM      9  C   LIG d   1       3.879  82.343 108.345  0.00  0.00     0.028 C 
ATOM     10  C   LIG d   1       4.206  80.906 108.782  0.00  0.00     0.006 C 
ENDBRANCH   8   9
BRANCH   8  11
ATOM     11  C   LIG d   1       1.831  83.581 107.851  0.00  0.00     0.028 C 
ATOM     12  C   LIG d   1       1.220  84.921 108.290  0.00  0.00     0.006 C 
ENDBRANCH   8  11
ENDBRANCH   7   8
ENDBRANCH   1   7
BRANCH   6  13
ATOM     13  N   LIG d   1       2.927  85.750 112.327  0.00  0.00    -0.311 N 
ATOM     14  C   LIG d   1       3.218  86.988 111.932  0.00  0.00     0.210 C 
ATOM     15  C   LIG d   1       4.474  87.592 112.568  0.00  0.00     0.109 C 
ATOM     16  O   LIG d   1       2.537  87.655 111.138  0.00  0.00    -0.276 OA
ATOM     17  H   LIG d   1       3.516  85.296 112.998  0.00  0.00     0.149 HD
ENDBRANCH   6  13
BRANCH   5  18
ATOM     18  N   LIG d   1       0.056  86.064 113.321  0.00  0.00     0.381 N 
ATOM     19  H   LIG d   1      -0.940  86.006 113.244  0.00  0.00    -0.090 HD
ATOM     20  H   LIG d   1       0.376  86.800 112.717  0.00  0.00    -0.090 HD
ATOM     21  H   LIG d   1       0.312  86.262 114.263  0.00  0.00    -0.090 HD
ENDBRANCH   5  18
BRANCH   3  22
ATOM     22  C   LIG d   1      -0.813  81.618 111.765  0.00  0.00     0.382 C 
ATOM     23  O   LIG d   1      -0.411  80.523 111.303  0.00  0.00    -0.241 OA
ATOM     24  O   LIG d   1      -1.976  81.710 112.201  0.00  0.00    -0.241 OA
ENDBRANCH   3  22
TORSDOF 7
ENDMDL
MODEL 4
REMARK VINA RESULT:      -5.9      3.194      5.769
REMARK  7 active torsions:
REMARK  status: ('A' for Active; 'I' for Inactive)
REMARK    1  A    between atoms: C_2  and  C_3 
REMARK    2  A    between atoms: C_3  and  O_6 
REMARK    3  A    between atoms: C_3  and  C_4 
REMARK    4  A    between atoms: C_7  and  O_6 
REMARK    5  A    between atoms: C_9  and  C_10 
REMARK    6  A    between atoms: N_15  and  C_14 
REMARK    7  A    between atoms: N_20  and  C_19 
REMARK       I    between atoms: C_22  and  N_20 
ROOT
ATOM      1  C   LIG d   1       2.273  85.775 110.896  0.00  0.00     0.161 C 
ATOM      2  C   LIG d   1       1.153  86.377 111.492  0.00  0.00     0.016 C 
ATOM      3  C   LIG d   1      -0.081  85.712 111.677  0.00  0.00     0.038 C 
ATOM      4  C   LIG d   1      -0.232  84.342 111.414  0.00  0.00     0.028 C 
ATOM      5  C   LIG d   1       0.721  83.823 110.343  0.00  0.00    -0.047 C 
ATOM      6  C   LIG d   1       2.162  84.248 110.705  0.00  0.00     0.091 C 
ENDROOT
BRANCH   1   7
ATOM      7  O   LIG d   1       3.460  86.100 111.648  0.00  0.00    -0.368 OA
BRANCH   7   8
ATOM      8  C   LIG d   1       3.252  86.827 112.884  0.00  0.00     0.119 C 
BRANCH   8   9
ATOM      9  C   LIG d   1       3.933  88.201 112.733  0.00  0.00     0.028 C 
ATOM     10  C   LIG d   1       5.468  88.100 112.749  0.00  0.00     0.006 C 
ENDBRANCH   8   9
BRANCH   8  11
ATOM     11  C   LIG d   1       3.965  86.148 114.056  0.00  0.00     0.028 C 
ATOM     12  C   LIG d   1       3.946  84.614 113.957  0.00  0.00     0.006 C 
ENDBRANCH   8  11
ENDBRANCH   7   8
ENDBRANCH   1   7
BRANCH   6  13
ATOM     13  N   LIG d   1       3.148  83.852 109.665  0.00  0.00    -0.311 N 
ATOM     14  C   LIG d   1       3.898  82.755 109.746  0.00  0.00     0.210 C 
ATOM     15  C   LIG d   1       4.864  82.544 108.576  0.00  0.00     0.109 C 
ATOM     16  O   LIG d   1       3.832  81.919 110.660  0.00  0.00    -0.276 OA
ATOM     17  H   LIG d   1       3.243  84.458 108.873  0.00  0.00     0.149 HD
ENDBRANCH   6  13
BRANCH   5  18
ATOM     18  N   LIG d   1       0.551  82.359 110.268  0.00  0.00     0.381 N 
ATOM     19  H   LIG d   1       0.873  81.937 111.116  0.00  0.00    -0.090 HD
ATOM     20  H   LIG d   1       1.107  82.006 109.509  0.00  0.00    -0.090 HD
ATOM     21  H   LIG d   1      -0.408  82.134 110.120  0.00  0.00    -0.090 HD
ENDBRANCH   5  18
BRANCH   3  22
ATOM     22  C   LIG d   1      -1.193  86.429 112.093  0.00  0.00     0.382 C 
ATOM     23  O   LIG d   1      -1.827  87.135 111.272  0.00  0.00    -0.241 OA
ATOM     24  O   LIG d   1      -1.543  86.414 113.288  0.00  0.00    -0.241 OA
ENDBRANCH   3  22
TORSDOF 7
ENDMDL
MODEL 5
REMARK VINA RESULT:      -5.2      4.059      5.997
REMARK  7 active torsions:
REMARK  status: ('A' for Active; 'I' for Inactive)
REMARK    1  A    between atoms: C_2  and  C_3 
REMARK    2  A    between atoms: C_3  and  O_6 
REMARK    3  A    between atoms: C_3  and  C_4 
REMARK    4  A    between atoms: C_7  and  O_6 
REMARK    5  A    between atoms: C_9  and  C_10 
REMARK    6  A    between atoms: N_15  and  C_14 
REMARK    7  A    between atoms: N_20  and  C_19 
REMARK       I    between atoms: C_22  and  N_20 
ROOT
ATOM      1  C   LIG d   1       3.169  85.890 110.681  0.00  0.00     0.161 C 
ATOM      2  C   LIG d   1       3.163  84.568 110.206  0.00  0.00     0.016 C 
ATOM      3  C   LIG d   1       3.443  83.447 111.021  0.00  0.00     0.038 C 
ATOM      4  C   LIG d   1       3.601  83.562 112.410  0.00  0.00     0.028 C 
ATOM      5  C   LIG d   1       4.115  84.929 112.851  0.00  0.00    -0.047 C 
ATOM      6  C   LIG d   1       3.230  86.026 112.217  0.00  0.00     0.091 C 
ENDROOT
BRANCH   1   7
ATOM      7  O   LIG d   1       2.029  86.601 110.160  0.00  0.00    -0.368 OA
BRANCH   7   8
ATOM      8  C   LIG d   1       0.736  85.989 110.389  0.00  0.00     0.119 C 
BRANCH   8   9
ATOM      9  C   LIG d   1      -0.012  85.968 109.042  0.00  0.00     0.028 C 
ATOM     10  C   LIG d   1       0.893  85.539 107.875  0.00  0.00     0.006 C 
ENDBRANCH   8   9
BRANCH   8  11
ATOM     11  C   LIG d   1      -0.129  86.844 111.320  0.00  0.00     0.028 C 
ATOM     12  C   LIG d   1      -0.443  86.144 112.652  0.00  0.00     0.006 C 
ENDBRANCH   8  11
ENDBRANCH   7   8
ENDBRANCH   1   7
BRANCH   6  13
ATOM     13  N   LIG d   1       3.714  87.396 112.528  0.00  0.00    -0.311 N 
ATOM     14  C   LIG d   1       3.237  88.132 113.530  0.00  0.00     0.210 C 
ATOM     15  C   LIG d   1       3.861  89.524 113.665  0.00  0.00     0.109 C 
ATOM     16  O   LIG d   1       2.378  87.752 114.340  0.00  0.00    -0.276 OA
ATOM     17  H   LIG d   1       4.433  87.770 111.940  0.00  0.00     0.149 HD
ENDBRANCH   6  13
BRANCH   5  18
ATOM     18  N   LIG d   1       4.101  84.956 114.326  0.00  0.00     0.381 N 
ATOM     19  H   LIG d   1       4.512  85.807 114.653  0.00  0.00    -0.090 HD
ATOM     20  H   LIG d   1       4.651  84.188 114.670  0.00  0.00    -0.090 HD
ATOM     21  H   LIG d   1       3.166  84.880 114.659  0.00  0.00    -0.090 HD
ENDBRANCH   5  18
BRANCH   3  22
ATOM     22  C   LIG d   1       3.608  82.199 110.440  0.00  0.00     0.382 C 
ATOM     23  O   LIG d   1       3.029  81.199 110.929  0.00  0.00    -0.241 OA
ATOM     24  O   LIG d   1       4.362  82.053 109.460  0.00  0.00    -0.241 OA
ENDBRANCH   3  22
TORSDOF 7
ENDMDL
MODEL 6
REMARK VINA RESULT:      -4.9      2.567      3.852
REMARK  7 active torsions:
REMARK  status: ('A' for Active; 'I' for Inactive)
REMARK    1  A    between atoms: C_2  and  C_3 
REMARK    2  A    between atoms: C_3  and  O_6 
REMARK    3  A    between atoms: C_3  and  C_4 
REMARK    4  A    between atoms: C_7  and  O_6 
REMARK    5  A    between atoms: C_9  and  C_10 
REMARK    6  A    between atoms: N_15  and  C_14 
REMARK    7  A    between atoms: N_20  and  C_19 
REMARK       I    between atoms: C_22  and  N_20 
ROOT
ATOM      1  C   LIG d   1       2.169  83.354 111.512  0.00  0.00     0.161 C 
ATOM      2  C   LIG d   1       2.720  82.306 110.756  0.00  0.00     0.016 C 
ATOM      3  C   LIG d   1       1.982  81.173 110.343  0.00  0.00     0.038 C 
ATOM      4  C   LIG d   1       0.595  81.082 110.532  0.00  0.00     0.028 C 
ATOM      5  C   LIG d   1       0.093  81.879 111.731  0.00  0.00    -0.047 C 
ATOM      6  C   LIG d   1       0.630  83.325 111.633  0.00  0.00     0.091 C 
ENDROOT
BRANCH   1   7
ATOM      7  O   LIG d   1       2.606  84.621 110.984  0.00  0.00    -0.368 OA
BRANCH   7   8
ATOM      8  C   LIG d   1       3.094  85.582 111.952  0.00  0.00     0.119 C 
BRANCH   8   9
ATOM      9  C   LIG d   1       4.183  86.425 111.261  0.00  0.00     0.028 C 
ATOM     10  C   LIG d   1       4.772  87.499 112.190  0.00  0.00     0.006 C 
ENDBRANCH   8   9
BRANCH   8  11
ATOM     11  C   LIG d   1       3.799  84.886 113.120  0.00  0.00     0.028 C 
ATOM     12  C   LIG d   1       3.188  85.244 114.484  0.00  0.00     0.006 C 
ENDBRANCH   8  11
ENDBRANCH   7   8
ENDBRANCH   1   7
BRANCH   6  13
ATOM     13  N   LIG d   1       0.256  84.150 112.810  0.00  0.00    -0.311 N 
ATOM     14  C   LIG d   1      -0.376  85.319 112.716  0.00  0.00     0.210 C 
ATOM     15  C   LIG d   1      -0.650  86.016 114.052  0.00  0.00     0.109 C 
ATOM     16  O   LIG d   1      -0.765  85.828 111.654  0.00  0.00    -0.276 OA
ATOM     17  H   LIG d   1       0.506  83.797 113.713  0.00  0.00     0.149 HD
ENDBRANCH   6  13
BRANCH   5  18
ATOM     18  N   LIG d   1      -1.380  81.808 111.729  0.00  0.00     0.381 N 
ATOM     19  H   LIG d   1      -1.761  82.672 112.059  0.00  0.00    -0.090 HD
ATOM     20  H   LIG d   1      -1.671  81.076 112.353  0.00  0.00    -0.090 HD
ATOM     21  H   LIG d   1      -1.711  81.620 110.808  0.00  0.00    -0.090 HD
ENDBRANCH   5  18
BRANCH   3  22
ATOM     22  C   LIG d   1       2.641  80.096 109.769  0.00  0.00     0.382 C 
ATOM     23  O   LIG d   1       1.983  79.131 109.311  0.00  0.00    -0.241 OA
ATOM     24  O   LIG d   1       3.886  80.058 109.743  0.00  0.00    -0.241 OA
ENDBRANCH   3  22
TORSDOF 7
ENDMDL
MODEL 7
REMARK VINA RESULT:      -4.8      1.434      2.070
REMARK  7 active torsions:
REMARK  status: ('A' for Active; 'I' for Inactive)
REMARK    1  A    between atoms: C_2  and  C_3 
REMARK    2  A    between atoms: C_3  and  O_6 
REMARK    3  A    between atoms: C_3  and  C_4 
REMARK    4  A    between atoms: C_7  and  O_6 
REMARK    5  A    between atoms: C_9  and  C_10 
REMARK    6  A    between atoms: N_15  and  C_14 
REMARK    7  A    between atoms: N_20  and  C_19 
REMARK       I    between atoms: C_22  and  N_20 
ROOT
ATOM      1  C   LIG d   1       0.755  82.640 110.967  0.00  0.00     0.161 C 
ATOM      2  C   LIG d   1       1.677  83.082 110.004  0.00  0.00     0.016 C 
ATOM      3  C   LIG d   1       2.207  82.246 108.993  0.00  0.00     0.038 C 
ATOM      4  C   LIG d   1       1.732  80.943 108.784  0.00  0.00     0.028 C 
ATOM      5  C   LIG d   1       1.170  80.294 110.045  0.00  0.00    -0.047 C 
ATOM      6  C   LIG d   1       0.142  81.252 110.687  0.00  0.00     0.091 C 
ENDROOT
BRANCH   1   7
ATOM      7  O   LIG d   1      -0.285  83.623 111.134  0.00  0.00    -0.368 OA
BRANCH   7   8
ATOM      8  C   LIG d   1      -0.050  84.635 112.144  0.00  0.00     0.119 C 
BRANCH   8   9
ATOM      9  C   LIG d   1      -0.204  86.010 111.466  0.00  0.00     0.028 C 
ATOM     10  C   LIG d   1      -0.771  85.902 110.041  0.00  0.00     0.006 C 
ENDBRANCH   8   9
BRANCH   8  11
ATOM     11  C   LIG d   1       1.395  84.591 112.651  0.00  0.00     0.028 C 
ATOM     12  C   LIG d   1       1.492  84.683 114.182  0.00  0.00     0.006 C 
ENDBRANCH   8  11
ENDBRANCH   7   8
ENDBRANCH   1   7
BRANCH   6  13
ATOM     13  N   LIG d   1      -0.395  80.730 111.971  0.00  0.00    -0.311 N 
ATOM     14  C   LIG d   1      -1.329  79.784 112.044  0.00  0.00     0.210 C 
ATOM     15  C   LIG d   1      -1.755  79.405 113.466  0.00  0.00     0.109 C 
ATOM     16  O   LIG d   1      -1.823  79.200 111.068  0.00  0.00    -0.276 OA
ATOM     17  H   LIG d   1      -0.027  81.126 112.814  0.00  0.00     0.149 HD
ENDBRANCH   6  13
BRANCH   5  18
ATOM     18  N   LIG d   1       0.587  78.996 109.655  0.00  0.00     0.381 N 
ATOM     19  H   LIG d   1       0.141  79.079 108.763  0.00  0.00    -0.090 HD
ATOM     20  H   LIG d   1      -0.108  78.736 110.332  0.00  0.00    -0.090 HD
ATOM     21  H   LIG d   1       1.299  78.300 109.615  0.00  0.00    -0.090 HD
ENDBRANCH   5  18
BRANCH   3  22
ATOM     22  C   LIG d   1       3.252  82.701 108.204  0.00  0.00     0.382 C 
ATOM     23  O   LIG d   1       4.415  82.755 108.673  0.00  0.00    -0.241 OA
ATOM     24  O   LIG d   1       3.040  83.100 107.043  0.00  0.00    -0.241 OA
ENDBRANCH   3  22
TORSDOF 7
ENDMDL
MODEL 8
REMARK VINA RESULT:      -4.1     28.053     29.955
REMARK  7 active torsions:
REMARK  status: ('A' for Active; 'I' for Inactive)
REMARK    1  A    between atoms: C_2  and  C_3 
REMARK    2  A    between atoms: C_3  and  O_6 
REMARK    3  A    between atoms: C_3  and  C_4 
REMARK    4  A    between atoms: C_7  and  O_6 
REMARK    5  A    between atoms: C_9  and  C_10 
REMARK    6  A    between atoms: N_15  and  C_14 
REMARK    7  A    between atoms: N_20  and  C_19 
REMARK       I    between atoms: C_22  and  N_20 
ROOT
ATOM      1  C   LIG d   1     -26.684  70.563 110.275  0.00  0.00     0.161 C 
ATOM      2  C   LIG d   1     -26.071  71.819 110.417  0.00  0.00     0.016 C 
ATOM      3  C   LIG d   1     -26.335  72.915 109.563  0.00  0.00     0.038 C 
ATOM      4  C   LIG d   1     -27.350  72.873 108.596  0.00  0.00     0.028 C 
ATOM      5  C   LIG d   1     -27.644  71.467 108.086  0.00  0.00    -0.047 C 
ATOM      6  C   LIG d   1     -27.876  70.533 109.296  0.00  0.00     0.091 C 
ENDROOT
BRANCH   1   7
ATOM      7  O   LIG d   1     -27.085  70.067 111.568  0.00  0.00    -0.368 OA
BRANCH   7   8
ATOM      8  C   LIG d   1     -26.311  68.961 112.094  0.00  0.00     0.119 C 
BRANCH   8   9
ATOM      9  C   LIG d   1     -25.526  69.485 113.313  0.00  0.00     0.028 C 
ATOM     10  C   LIG d   1     -26.214  70.686 113.982  0.00  0.00     0.006 C 
ENDBRANCH   8   9
BRANCH   8  11
ATOM     11  C   LIG d   1     -25.247  68.500 111.094  0.00  0.00     0.028 C 
ATOM     12  C   LIG d   1     -23.849  68.384 111.722  0.00  0.00     0.006 C 
ENDBRANCH   8  11
ENDBRANCH   7   8
ENDBRANCH   1   7
BRANCH   6  13
ATOM     13  N   LIG d   1     -28.088  69.119 108.888  0.00  0.00    -0.311 N 
ATOM     14  C   LIG d   1     -27.321  68.490 107.999  0.00  0.00     0.210 C 
ATOM     15  C   LIG d   1     -27.725  67.041 107.708  0.00  0.00     0.109 C 
ATOM     16  O   LIG d   1     -26.326  68.984 107.448  0.00  0.00    -0.276 OA
ATOM     17  H   LIG d   1     -28.854  68.633 109.310  0.00  0.00     0.149 HD
ENDBRANCH   6  13
BRANCH   5  18
ATOM     18  N   LIG d   1     -28.812  71.553 107.189  0.00  0.00     0.381 N 
ATOM     19  H   LIG d   1     -29.105  70.633 106.925  0.00  0.00    -0.090 HD
ATOM     20  H   LIG d   1     -28.548  72.050 106.358  0.00  0.00    -0.090 HD
ATOM     21  H   LIG d   1     -29.559  72.028 107.647  0.00  0.00    -0.090 HD
ENDBRANCH   5  18
BRANCH   3  22
ATOM     22  C   LIG d   1     -25.551  74.055 109.646  0.00  0.00     0.382 C 
ATOM     23  O   LIG d   1     -25.993  75.079 110.220  0.00  0.00    -0.241 OA
ATOM     24  O   LIG d   1     -24.424  74.088 109.115  0.00  0.00    -0.241 OA
ENDBRANCH   3  22
TORSDOF 7
ENDMDL
MODEL 9
REMARK VINA RESULT:      -4.0     27.914     30.713
REMARK  7 active torsions:
REMARK  status: ('A' for Active; 'I' for Inactive)
REMARK    1  A    between atoms: C_2  and  C_3 
REMARK    2  A    between atoms: C_3  and  O_6 
REMARK    3  A    between atoms: C_3  and  C_4 
REMARK    4  A    between atoms: C_7  and  O_6 
REMARK    5  A    between atoms: C_9  and  C_10 
REMARK    6  A    between atoms: N_15  and  C_14 
REMARK    7  A    between atoms: N_20  and  C_19 
REMARK       I    between atoms: C_22  and  N_20 
ROOT
ATOM      1  C   LIG d   1     -27.168  70.906 109.569  0.00  0.00     0.161 C 
ATOM      2  C   LIG d   1     -26.455  72.089 109.311  0.00  0.00     0.016 C 
ATOM      3  C   LIG d   1     -26.111  73.024 110.314  0.00  0.00     0.038 C 
ATOM      4  C   LIG d   1     -26.328  72.766 111.675  0.00  0.00     0.028 C 
ATOM      5  C   LIG d   1     -27.495  71.819 111.933  0.00  0.00    -0.047 C 
ATOM      6  C   LIG d   1     -27.316  70.553 111.064  0.00  0.00     0.091 C 
ENDROOT
BRANCH   1   7
ATOM      7  O   LIG d   1     -26.571  69.809 108.851  0.00  0.00    -0.368 OA
BRANCH   7   8
ATOM      8  C   LIG d   1     -27.274  69.364 107.665  0.00  0.00     0.119 C 
BRANCH   8   9
ATOM      9  C   LIG d   1     -28.753  69.763 107.827  0.00  0.00     0.028 C 
ATOM     10  C   LIG d   1     -29.689  68.543 107.870  0.00  0.00     0.006 C 
ENDBRANCH   8   9
BRANCH   8  11
ATOM     11  C   LIG d   1     -27.275  67.836 107.557  0.00  0.00     0.028 C 
ATOM     12  C   LIG d   1     -25.867  67.252 107.361  0.00  0.00     0.006 C 
ENDBRANCH   8  11
ENDBRANCH   7   8
ENDBRANCH   1   7
BRANCH   6  13
ATOM     13  N   LIG d   1     -28.458  69.611 111.192  0.00  0.00    -0.311 N 
ATOM     14  C   LIG d   1     -28.310  68.296 111.341  0.00  0.00     0.210 C 
ATOM     15  C   LIG d   1     -29.619  67.504 111.434  0.00  0.00     0.109 C 
ATOM     16  O   LIG d   1     -27.220  67.713 111.436  0.00  0.00    -0.276 OA
ATOM     17  H   LIG d   1     -29.379  70.003 111.157  0.00  0.00     0.149 HD
ENDBRANCH   6  13
BRANCH   5  18
ATOM     18  N   LIG d   1     -27.521  71.527 113.379  0.00  0.00     0.381 N 
ATOM     19  H   LIG d   1     -28.268  70.894 113.584  0.00  0.00    -0.090 HD
ATOM     20  H   LIG d   1     -27.687  72.383 113.880  0.00  0.00    -0.090 HD
ATOM     21  H   LIG d   1     -26.652  71.131 113.663  0.00  0.00    -0.090 HD
ENDBRANCH   5  18
BRANCH   3  22
ATOM     22  C   LIG d   1     -25.579  74.253 109.953  0.00  0.00     0.382 C 
ATOM     23  O   LIG d   1     -26.151  75.312 110.307  0.00  0.00    -0.241 OA
ATOM     24  O   LIG d   1     -24.559  74.316 109.241  0.00  0.00    -0.241 OA
ENDBRANCH   3  22
TORSDOF 7
ENDMDL
