MODEL 1
REMARK VINA RESULT:      -6.7      0.000      0.000
REMARK  7 active torsions:
REMARK  status: ('A' for Active; 'I' for Inactive)
REMARK    1  A    between atoms: C_2  and  C_3 
REMARK    2  A    between atoms: C_3  and  O_6 
REMARK    3  A    between atoms: C_3  and  C_4 
REMARK    4  A    between atoms: C_7  and  O_6 
REMARK    5  A    between atoms: C_9  and  C_10 
REMARK    6  A    between atoms: N_15  and  C_14 
REMARK    7  A    between atoms: N_20  and  C_19 
REMARK       I    between atoms: C_22  and  N_20 
ROOT
ATOM      1  C   LIG d   1       1.121  84.222 109.449  0.00  0.00     0.161 C 
ATOM      2  C   LIG d   1       0.723  85.502 109.869  0.00  0.00     0.016 C 
ATOM      3  C   LIG d   1      -0.199  85.726 110.917  0.00  0.00     0.038 C 
ATOM      4  C   LIG d   1      -0.674  84.680 111.722  0.00  0.00     0.028 C 
ATOM      5  C   LIG d   1      -0.691  83.330 111.014  0.00  0.00    -0.047 C 
ATOM      6  C   LIG d   1       0.699  83.073 110.389  0.00  0.00     0.091 C 
ENDROOT
BRANCH   1   7
ATOM      7  O   LIG d   1       2.547  84.199 109.238  0.00  0.00    -0.368 OA
BRANCH   7   8
ATOM      8  C   LIG d   1       3.357  83.872 110.394  0.00  0.00     0.119 C 
BRANCH   8   9
ATOM      9  C   LIG d   1       4.014  85.177 110.882  0.00  0.00     0.028 C 
ATOM     10  C   LIG d   1       4.437  85.105 112.360  0.00  0.00     0.006 C 
ENDBRANCH   8   9
BRANCH   8  11
ATOM     11  C   LIG d   1       4.520  82.949 110.017  0.00  0.00     0.028 C 
ATOM     12  C   LIG d   1       4.380  82.362 108.603  0.00  0.00     0.006 C 
ENDBRANCH   8  11
ENDBRANCH   7   8
ENDBRANCH   1   7
BRANCH   6  13
ATOM     13  N   LIG d   1       0.744  81.811 109.605  0.00  0.00    -0.311 N 
ATOM     14  C   LIG d   1       1.410  80.727 109.999  0.00  0.00     0.210 C 
ATOM     15  C   LIG d   1       1.342  79.540 109.033  0.00  0.00     0.109 C 
ATOM     16  O   LIG d   1       2.022  80.624 111.073  0.00  0.00    -0.276 OA
ATOM     17  H   LIG d   1       0.248  81.797 108.736  0.00  0.00     0.149 HD
ENDBRANCH   6  13
BRANCH   5  18
ATOM     18  N   LIG d   1      -1.075  82.310 112.008  0.00  0.00     0.381 N 
ATOM     19  H   LIG d   1      -0.260  81.828 112.331  0.00  0.00    -0.090 HD
ATOM     20  H   LIG d   1      -1.684  81.641 111.569  0.00  0.00    -0.090 HD
ATOM     21  H   LIG d   1      -1.542  82.741 112.776  0.00  0.00    -0.090 HD
ENDBRANCH   5  18
BRANCH   3  22
ATOM     22  C   LIG d   1      -0.687  87.004 111.142  0.00  0.00     0.382 C 
ATOM     23  O   LIG d   1       0.091  87.916 111.513  0.00  0.00    -0.241 OA
ATOM     24  O   LIG d   1      -1.903  87.247 111.022  0.00  0.00    -0.241 OA
ENDBRANCH   3  22
TORSDOF 7
ENDMDL
MODEL 2
REMARK VINA RESULT:      -6.4      2.614      4.447
REMARK  7 active torsions:
REMARK  status: ('A' for Active; 'I' for Inactive)
REMARK    1  A    between atoms: C_2  and  C_3 
REMARK    2  A    between atoms: C_3  and  O_6 
REMARK    3  A    between atoms: C_3  and  C_4 
REMARK    4  A    between atoms: C_7  and  O_6 
REMARK    5  A    between atoms: C_9  and  C_10 
REMARK    6  A    between atoms: N_15  and  C_14 
REMARK    7  A    between atoms: N_20  and  C_19 
REMARK       I    between atoms: C_22  and  N_20 
ROOT
ATOM      1  C   LIG d   1      -0.098  82.830 111.164  0.00  0.00     0.161 C 
ATOM      2  C   LIG d   1      -1.211  82.525 111.965  0.00  0.00     0.016 C 
ATOM      3  C   LIG d   1      -1.710  81.213 112.136  0.00  0.00     0.038 C 
ATOM      4  C   LIG d   1      -1.035  80.091 111.635  0.00  0.00     0.028 C 
ATOM      5  C   LIG d   1      -0.192  80.393 110.400  0.00  0.00    -0.047 C 
ATOM      6  C   LIG d   1       0.719  81.606 110.699  0.00  0.00     0.091 C 
ENDROOT
BRANCH   1   7
ATOM      7  O   LIG d   1       0.754  83.770 111.848  0.00  0.00    -0.368 OA
BRANCH   7   8
ATOM      8  C   LIG d   1       0.815  85.103 111.283  0.00  0.00     0.119 C 
BRANCH   8   9
ATOM      9  C   LIG d   1       0.086  86.051 112.255  0.00  0.00     0.028 C 
ATOM     10  C   LIG d   1      -1.144  86.716 111.614  0.00  0.00     0.006 C 
ENDBRANCH   8   9
BRANCH   8  11
ATOM     11  C   LIG d   1       0.032  85.188 109.970  0.00  0.00     0.028 C 
ATOM     12  C   LIG d   1       0.932  85.475 108.757  0.00  0.00     0.006 C 
ENDBRANCH   8  11
ENDBRANCH   7   8
ENDBRANCH   1   7
BRANCH   6  13
ATOM     13  N   LIG d   1       1.516  82.021 109.515  0.00  0.00    -0.311 N 
ATOM     14  C   LIG d   1       2.843  82.134 109.528  0.00  0.00     0.210 C 
ATOM     15  C   LIG d   1       3.466  82.595 108.206  0.00  0.00     0.109 C 
ATOM     16  O   LIG d   1       3.566  81.865 110.499  0.00  0.00    -0.276 OA
ATOM     17  H   LIG d   1       1.012  82.228 108.675  0.00  0.00     0.149 HD
ENDBRANCH   6  13
BRANCH   5  18
ATOM     18  N   LIG d   1       0.564  79.171 110.066  0.00  0.00     0.381 N 
ATOM     19  H   LIG d   1       1.506  79.409 109.829  0.00  0.00    -0.090 HD
ATOM     20  H   LIG d   1       0.138  78.733 109.268  0.00  0.00    -0.090 HD
ATOM     21  H   LIG d   1       0.557  78.544 110.841  0.00  0.00    -0.090 HD
ENDBRANCH   5  18
BRANCH   3  22
ATOM     22  C   LIG d   1      -2.922  81.018 112.783  0.00  0.00     0.382 C 
ATOM     23  O   LIG d   1      -3.306  79.856 113.057  0.00  0.00    -0.241 OA
ATOM     24  O   LIG d   1      -3.655  81.987 113.056  0.00  0.00    -0.241 OA
ENDBRANCH   3  22
TORSDOF 7
ENDMDL
MODEL 3
REMARK VINA RESULT:      -6.4      1.654      2.590
REMARK  7 active torsions:
REMARK  status: ('A' for Active; 'I' for Inactive)
REMARK    1  A    between atoms: C_2  and  C_3 
REMARK    2  A    between atoms: C_3  and  O_6 
REMARK    3  A    between atoms: C_3  and  C_4 
REMARK    4  A    between atoms: C_7  and  O_6 
REMARK    5  A    between atoms: C_9  and  C_10 
REMARK    6  A    between atoms: N_15  and  C_14 
REMARK    7  A    between atoms: N_20  and  C_19 
REMARK       I    between atoms: C_22  and  N_20 
ROOT
ATOM      1  C   LIG d   1       2.511  85.115 110.034  0.00  0.00     0.161 C 
ATOM      2  C   LIG d   1       1.444  85.947 110.414  0.00  0.00     0.016 C 
ATOM      3  C   LIG d   1       0.148  85.466 110.706  0.00  0.00     0.038 C 
ATOM      4  C   LIG d   1      -0.134  84.094 110.786  0.00  0.00     0.028 C 
ATOM      5  C   LIG d   1       0.782  83.237 109.918  0.00  0.00    -0.047 C 
ATOM      6  C   LIG d   1       2.252  83.605 110.223  0.00  0.00     0.091 C 
ENDROOT
BRANCH   1   7
ATOM      7  O   LIG d   1       3.710  85.509 110.730  0.00  0.00    -0.368 OA
BRANCH   7   8
ATOM      8  C   LIG d   1       3.523  86.081 112.048  0.00  0.00     0.119 C 
BRANCH   8   9
ATOM      9  C   LIG d   1       4.547  87.222 112.207  0.00  0.00     0.028 C 
ATOM     10  C   LIG d   1       3.899  88.528 112.696  0.00  0.00     0.006 C 
ENDBRANCH   8   9
BRANCH   8  11
ATOM     11  C   LIG d   1       3.866  85.072 113.148  0.00  0.00     0.028 C 
ATOM     12  C   LIG d   1       2.621  84.521 113.861  0.00  0.00     0.006 C 
ENDBRANCH   8  11
ENDBRANCH   7   8
ENDBRANCH   1   7
BRANCH   6  13
ATOM     13  N   LIG d   1       3.212  82.873 109.357  0.00  0.00    -0.311 N 
ATOM     14  C   LIG d   1       3.782  81.721 109.706  0.00  0.00     0.210 C 
ATOM     15  C   LIG d   1       4.757  81.143 108.674  0.00  0.00     0.109 C 
ATOM     16  O   LIG d   1       3.549  81.106 110.757  0.00  0.00    -0.276 OA
ATOM     17  H   LIG d   1       3.434  83.285 108.472  0.00  0.00     0.149 HD
ENDBRANCH   6  13
BRANCH   5  18
ATOM     18  N   LIG d   1       0.470  81.823 110.202  0.00  0.00     0.381 N 
ATOM     19  H   LIG d   1       1.018  81.230 109.611  0.00  0.00    -0.090 HD
ATOM     20  H   LIG d   1      -0.501  81.658 110.002  0.00  0.00    -0.090 HD
ATOM     21  H   LIG d   1       0.659  81.617 111.158  0.00  0.00    -0.090 HD
ENDBRANCH   5  18
BRANCH   3  22
ATOM     22  C   LIG d   1      -0.895  86.363 110.884  0.00  0.00     0.382 C 
ATOM     23  O   LIG d   1      -0.908  87.117 111.886  0.00  0.00    -0.241 OA
ATOM     24  O   LIG d   1      -1.844  86.397 110.078  0.00  0.00    -0.241 OA
ENDBRANCH   3  22
TORSDOF 7
ENDMDL
MODEL 4
REMARK VINA RESULT:      -6.4      2.477      4.689
REMARK  7 active torsions:
REMARK  status: ('A' for Active; 'I' for Inactive)
REMARK    1  A    between atoms: C_2  and  C_3 
REMARK    2  A    between atoms: C_3  and  O_6 
REMARK    3  A    between atoms: C_3  and  C_4 
REMARK    4  A    between atoms: C_7  and  O_6 
REMARK    5  A    between atoms: C_9  and  C_10 
REMARK    6  A    between atoms: N_15  and  C_14 
REMARK    7  A    between atoms: N_20  and  C_19 
REMARK       I    between atoms: C_22  and  N_20 
ROOT
ATOM      1  C   LIG d   1       1.274  82.625 111.657  0.00  0.00     0.161 C 
ATOM      2  C   LIG d   1       1.977  83.017 110.506  0.00  0.00     0.016 C 
ATOM      3  C   LIG d   1       1.829  82.384 109.251  0.00  0.00     0.038 C 
ATOM      4  C   LIG d   1       0.849  81.406 109.024  0.00  0.00     0.028 C 
ATOM      5  C   LIG d   1       0.466  80.630 110.280  0.00  0.00    -0.047 C 
ATOM      6  C   LIG d   1       0.119  81.633 111.403  0.00  0.00     0.091 C 
ENDROOT
BRANCH   1   7
ATOM      7  O   LIG d   1       0.789  83.790 112.354  0.00  0.00    -0.368 OA
BRANCH   7   8
ATOM      8  C   LIG d   1       0.659  84.997 111.564  0.00  0.00     0.119 C 
BRANCH   8   9
ATOM      9  C   LIG d   1       1.393  86.124 112.317  0.00  0.00     0.028 C 
ATOM     10  C   LIG d   1       2.153  87.066 111.367  0.00  0.00     0.006 C 
ENDBRANCH   8   9
BRANCH   8  11
ATOM     11  C   LIG d   1      -0.801  85.451 111.477  0.00  0.00     0.028 C 
ATOM     12  C   LIG d   1      -1.148  86.084 110.120  0.00  0.00     0.006 C 
ENDBRANCH   8  11
ENDBRANCH   7   8
ENDBRANCH   1   7
BRANCH   6  13
ATOM     13  N   LIG d   1      -0.185  80.958 112.692  0.00  0.00    -0.311 N 
ATOM     14  C   LIG d   1      -1.411  80.576 113.048  0.00  0.00     0.210 C 
ATOM     15  C   LIG d   1      -1.507  79.916 114.427  0.00  0.00     0.109 C 
ATOM     16  O   LIG d   1      -2.422  80.693 112.339  0.00  0.00    -0.276 OA
ATOM     17  H   LIG d   1       0.582  80.796 113.314  0.00  0.00     0.149 HD
ENDBRANCH   6  13
BRANCH   5  18
ATOM     18  N   LIG d   1      -0.658  79.742 109.929  0.00  0.00     0.381 N 
ATOM     19  H   LIG d   1      -1.155  80.118 109.147  0.00  0.00    -0.090 HD
ATOM     20  H   LIG d   1      -1.289  79.693 110.710  0.00  0.00    -0.090 HD
ATOM     21  H   LIG d   1      -0.319  78.832 109.710  0.00  0.00    -0.090 HD
ENDBRANCH   5  18
BRANCH   3  22
ATOM     22  C   LIG d   1       2.696  82.700 108.215  0.00  0.00     0.382 C 
ATOM     23  O   LIG d   1       2.241  83.115 107.122  0.00  0.00    -0.241 OA
ATOM     24  O   LIG d   1       3.923  82.534 108.345  0.00  0.00    -0.241 OA
ENDBRANCH   3  22
TORSDOF 7
ENDMDL
MODEL 5
REMARK VINA RESULT:      -6.2      2.698      3.845
REMARK  7 active torsions:
REMARK  status: ('A' for Active; 'I' for Inactive)
REMARK    1  A    between atoms: C_2  and  C_3 
REMARK    2  A    between atoms: C_3  and  O_6 
REMARK    3  A    between atoms: C_3  and  C_4 
REMARK    4  A    between atoms: C_7  and  O_6 
REMARK    5  A    between atoms: C_9  and  C_10 
REMARK    6  A    between atoms: N_15  and  C_14 
REMARK    7  A    between atoms: N_20  and  C_19 
REMARK       I    between atoms: C_22  and  N_20 
ROOT
ATOM      1  C   LIG d   1       2.631  84.730 111.063  0.00  0.00     0.161 C 
ATOM      2  C   LIG d   1       3.428  85.884 111.139  0.00  0.00     0.016 C 
ATOM      3  C   LIG d   1       3.678  86.579 112.345  0.00  0.00     0.038 C 
ATOM      4  C   LIG d   1       3.267  86.077 113.589  0.00  0.00     0.028 C 
ATOM      5  C   LIG d   1       2.031  85.187 113.505  0.00  0.00    -0.047 C 
ATOM      6  C   LIG d   1       2.265  84.105 112.426  0.00  0.00     0.091 C 
ENDROOT
BRANCH   1   7
ATOM      7  O   LIG d   1       3.267  83.751 110.218  0.00  0.00    -0.368 OA
BRANCH   7   8
ATOM      8  C   LIG d   1       2.415  83.102 109.242  0.00  0.00     0.119 C 
BRANCH   8   9
ATOM      9  C   LIG d   1       3.332  82.422 108.206  0.00  0.00     0.028 C 
ATOM     10  C   LIG d   1       4.763  82.221 108.732  0.00  0.00     0.006 C 
ENDBRANCH   8   9
BRANCH   8  11
ATOM     11  C   LIG d   1       1.595  84.124 108.449  0.00  0.00     0.028 C 
ATOM     12  C   LIG d   1       1.485  83.772 106.958  0.00  0.00     0.006 C 
ENDBRANCH   8  11
ENDBRANCH   7   8
ENDBRANCH   1   7
BRANCH   6  13
ATOM     13  N   LIG d   1       1.073  83.243 112.220  0.00  0.00    -0.311 N 
ATOM     14  C   LIG d   1       1.125  81.912 112.199  0.00  0.00     0.210 C 
ATOM     15  C   LIG d   1      -0.218  81.216 111.953  0.00  0.00     0.109 C 
ATOM     16  O   LIG d   1       2.150  81.241 112.394  0.00  0.00    -0.276 OA
ATOM     17  H   LIG d   1       0.194  83.704 112.085  0.00  0.00     0.149 HD
ENDBRANCH   6  13
BRANCH   5  18
ATOM     18  N   LIG d   1       1.796  84.623 114.847  0.00  0.00     0.381 N 
ATOM     19  H   LIG d   1       1.678  85.364 115.510  0.00  0.00    -0.090 HD
ATOM     20  H   LIG d   1       2.598  84.083 115.118  0.00  0.00    -0.090 HD
ATOM     21  H   LIG d   1       0.985  84.045 114.837  0.00  0.00    -0.090 HD
ENDBRANCH   5  18
BRANCH   3  22
ATOM     22  C   LIG d   1       4.312  87.812 112.309  0.00  0.00     0.382 C 
ATOM     23  O   LIG d   1       3.643  88.865 112.443  0.00  0.00    -0.241 OA
ATOM     24  O   LIG d   1       5.537  87.886 112.099  0.00  0.00    -0.241 OA
ENDBRANCH   3  22
TORSDOF 7
ENDMDL
MODEL 6
REMARK VINA RESULT:      -5.7      2.160      5.343
REMARK  7 active torsions:
REMARK  status: ('A' for Active; 'I' for Inactive)
REMARK    1  A    between atoms: C_2  and  C_3 
REMARK    2  A    between atoms: C_3  and  O_6 
REMARK    3  A    between atoms: C_3  and  C_4 
REMARK    4  A    between atoms: C_7  and  O_6 
REMARK    5  A    between atoms: C_9  and  C_10 
REMARK    6  A    between atoms: N_15  and  C_14 
REMARK    7  A    between atoms: N_20  and  C_19 
REMARK       I    between atoms: C_22  and  N_20 
ROOT
ATOM      1  C   LIG d   1       2.003  83.886 111.310  0.00  0.00     0.161 C 
ATOM      2  C   LIG d   1       2.943  82.884 111.015  0.00  0.00     0.016 C 
ATOM      3  C   LIG d   1       3.243  82.462 109.700  0.00  0.00     0.038 C 
ATOM      4  C   LIG d   1       2.731  83.123 108.574  0.00  0.00     0.028 C 
ATOM      5  C   LIG d   1       1.393  83.807 108.830  0.00  0.00    -0.047 C 
ATOM      6  C   LIG d   1       1.516  84.695 110.090  0.00  0.00     0.091 C 
ENDROOT
BRANCH   1   7
ATOM      7  O   LIG d   1       2.532  84.770 112.318  0.00  0.00    -0.368 OA
BRANCH   7   8
ATOM      8  C   LIG d   1       3.966  84.974 112.299  0.00  0.00     0.119 C 
BRANCH   8   9
ATOM      9  C   LIG d   1       4.422  85.191 113.755  0.00  0.00     0.028 C 
ATOM     10  C   LIG d   1       3.390  84.684 114.776  0.00  0.00     0.006 C 
ENDBRANCH   8   9
BRANCH   8  11
ATOM     11  C   LIG d   1       4.336  86.264 111.561  0.00  0.00     0.028 C 
ATOM     12  C   LIG d   1       4.868  87.357 112.502  0.00  0.00     0.006 C 
ENDBRANCH   8  11
ENDBRANCH   7   8
ENDBRANCH   1   7
BRANCH   6  13
ATOM     13  N   LIG d   1       0.228  85.336 110.460  0.00  0.00    -0.311 N 
ATOM     14  C   LIG d   1       0.133  86.588 110.906  0.00  0.00     0.210 C 
ATOM     15  C   LIG d   1      -1.288  87.046 111.250  0.00  0.00     0.109 C 
ATOM     16  O   LIG d   1       1.087  87.372 111.018  0.00  0.00    -0.276 OA
ATOM     17  H   LIG d   1      -0.601  84.781 110.370  0.00  0.00     0.149 HD
ENDBRANCH   6  13
BRANCH   5  18
ATOM     18  N   LIG d   1       1.043  84.570 107.617  0.00  0.00     0.381 N 
ATOM     19  H   LIG d   1       1.230  85.542 107.763  0.00  0.00    -0.090 HD
ATOM     20  H   LIG d   1       0.060  84.462 107.437  0.00  0.00    -0.090 HD
ATOM     21  H   LIG d   1       1.570  84.236 106.840  0.00  0.00    -0.090 HD
ENDBRANCH   5  18
BRANCH   3  22
ATOM     22  C   LIG d   1       4.034  81.340 109.502  0.00  0.00     0.382 C 
ATOM     23  O   LIG d   1       4.753  81.253 108.478  0.00  0.00    -0.241 OA
ATOM     24  O   LIG d   1       4.005  80.395 110.313  0.00  0.00    -0.241 OA
ENDBRANCH   3  22
TORSDOF 7
ENDMDL
MODEL 7
REMARK VINA RESULT:      -5.4      2.371      4.960
REMARK  7 active torsions:
REMARK  status: ('A' for Active; 'I' for Inactive)
REMARK    1  A    between atoms: C_2  and  C_3 
REMARK    2  A    between atoms: C_3  and  O_6 
REMARK    3  A    between atoms: C_3  and  C_4 
REMARK    4  A    between atoms: C_7  and  O_6 
REMARK    5  A    between atoms: C_9  and  C_10 
REMARK    6  A    between atoms: N_15  and  C_14 
REMARK    7  A    between atoms: N_20  and  C_19 
REMARK       I    between atoms: C_22  and  N_20 
ROOT
ATOM      1  C   LIG d   1       2.966  84.784 111.186  0.00  0.00     0.161 C 
ATOM      2  C   LIG d   1       3.125  84.262 109.891  0.00  0.00     0.016 C 
ATOM      3  C   LIG d   1       2.104  83.571 109.200  0.00  0.00     0.038 C 
ATOM      4  C   LIG d   1       0.797  83.485 109.701  0.00  0.00     0.028 C 
ATOM      5  C   LIG d   1       0.725  83.557 111.223  0.00  0.00    -0.047 C 
ATOM      6  C   LIG d   1       1.513  84.797 111.704  0.00  0.00     0.091 C 
ENDROOT
BRANCH   1   7
ATOM      7  O   LIG d   1       3.534  86.107 111.253  0.00  0.00    -0.368 OA
BRANCH   7   8
ATOM      8  C   LIG d   1       4.779  86.230 111.984  0.00  0.00     0.119 C 
BRANCH   8   9
ATOM      9  C   LIG d   1       4.940  84.960 112.842  0.00  0.00     0.028 C 
ATOM     10  C   LIG d   1       4.976  85.270 114.348  0.00  0.00     0.006 C 
ENDBRANCH   8   9
BRANCH   8  11
ATOM     11  C   LIG d   1       4.727  87.390 112.982  0.00  0.00     0.028 C 
ATOM     12  C   LIG d   1       5.871  88.397 112.786  0.00  0.00     0.006 C 
ENDBRANCH   8  11
ENDBRANCH   7   8
ENDBRANCH   1   7
BRANCH   6  13
ATOM     13  N   LIG d   1       1.564  84.896 113.186  0.00  0.00    -0.311 N 
ATOM     14  C   LIG d   1       1.493  86.051 113.846  0.00  0.00     0.210 C 
ATOM     15  C   LIG d   1       1.586  85.930 115.371  0.00  0.00     0.109 C 
ATOM     16  O   LIG d   1       1.330  87.160 113.316  0.00  0.00    -0.276 OA
ATOM     17  H   LIG d   1       1.665  84.041 113.697  0.00  0.00     0.149 HD
ENDBRANCH   6  13
BRANCH   5  18
ATOM     18  N   LIG d   1      -0.700  83.596 111.601  0.00  0.00     0.381 N 
ATOM     19  H   LIG d   1      -0.791  83.482 112.591  0.00  0.00    -0.090 HD
ATOM     20  H   LIG d   1      -1.176  82.834 111.151  0.00  0.00    -0.090 HD
ATOM     21  H   LIG d   1      -1.104  84.462 111.320  0.00  0.00    -0.090 HD
ENDBRANCH   5  18
BRANCH   3  22
ATOM     22  C   LIG d   1       2.397  82.921 108.011  0.00  0.00     0.382 C 
ATOM     23  O   LIG d   1       3.203  81.959 108.004  0.00  0.00    -0.241 OA
ATOM     24  O   LIG d   1       1.901  83.312 106.938  0.00  0.00    -0.241 OA
ENDBRANCH   3  22
TORSDOF 7
ENDMDL
MODEL 8
REMARK VINA RESULT:      -5.4      2.748      4.174
REMARK  7 active torsions:
REMARK  status: ('A' for Active; 'I' for Inactive)
REMARK    1  A    between atoms: C_2  and  C_3 
REMARK    2  A    between atoms: C_3  and  O_6 
REMARK    3  A    between atoms: C_3  and  C_4 
REMARK    4  A    between atoms: C_7  and  O_6 
REMARK    5  A    between atoms: C_9  and  C_10 
REMARK    6  A    between atoms: N_15  and  C_14 
REMARK    7  A    between atoms: N_20  and  C_19 
REMARK       I    between atoms: C_22  and  N_20 
ROOT
ATOM      1  C   LIG d   1       1.072  82.429 111.552  0.00  0.00     0.161 C 
ATOM      2  C   LIG d   1      -0.162  82.200 112.182  0.00  0.00     0.016 C 
ATOM      3  C   LIG d   1      -0.960  81.058 111.938  0.00  0.00     0.038 C 
ATOM      4  C   LIG d   1      -0.503  79.987 111.156  0.00  0.00     0.028 C 
ATOM      5  C   LIG d   1       0.517  80.400 110.100  0.00  0.00    -0.047 C 
ATOM      6  C   LIG d   1       1.639  81.219 110.780  0.00  0.00     0.091 C 
ENDROOT
BRANCH   1   7
ATOM      7  O   LIG d   1       2.033  82.902 112.517  0.00  0.00    -0.368 OA
BRANCH   7   8
ATOM      8  C   LIG d   1       2.621  84.198 112.247  0.00  0.00     0.119 C 
BRANCH   8   9
ATOM      9  C   LIG d   1       3.047  84.803 113.599  0.00  0.00     0.028 C 
ATOM     10  C   LIG d   1       4.517  85.257 113.602  0.00  0.00     0.006 C 
ENDBRANCH   8   9
BRANCH   8  11
ATOM     11  C   LIG d   1       1.586  85.172 111.676  0.00  0.00     0.028 C 
ATOM     12  C   LIG d   1       2.146  86.032 110.532  0.00  0.00     0.006 C 
ENDBRANCH   8  11
ENDBRANCH   7   8
ENDBRANCH   1   7
BRANCH   6  13
ATOM     13  N   LIG d   1       2.635  81.734 109.804  0.00  0.00    -0.311 N 
ATOM     14  C   LIG d   1       3.717  81.052 109.432  0.00  0.00     0.210 C 
ATOM     15  C   LIG d   1       4.623  81.774 108.431  0.00  0.00     0.109 C 
ATOM     16  O   LIG d   1       3.994  79.904 109.811  0.00  0.00    -0.276 OA
ATOM     17  H   LIG d   1       2.471  82.645 109.423  0.00  0.00     0.149 HD
ENDBRANCH   6  13
BRANCH   5  18
ATOM     18  N   LIG d   1       1.011  79.171 109.452  0.00  0.00     0.381 N 
ATOM     19  H   LIG d   1       1.947  78.982 109.751  0.00  0.00    -0.090 HD
ATOM     20  H   LIG d   1       1.019  79.309 108.457  0.00  0.00    -0.090 HD
ATOM     21  H   LIG d   1       0.420  78.403 109.683  0.00  0.00    -0.090 HD
ENDBRANCH   5  18
BRANCH   3  22
ATOM     22  C   LIG d   1      -2.248  80.998 112.449  0.00  0.00     0.382 C 
ATOM     23  O   LIG d   1      -2.782  79.885 112.673  0.00  0.00    -0.241 OA
ATOM     24  O   LIG d   1      -2.898  82.042 112.647  0.00  0.00    -0.241 OA
ENDBRANCH   3  22
TORSDOF 7
ENDMDL
MODEL 9
REMARK VINA RESULT:      -5.2      3.153      4.920
REMARK  7 active torsions:
REMARK  status: ('A' for Active; 'I' for Inactive)
REMARK    1  A    between atoms: C_2  and  C_3 
REMARK    2  A    between atoms: C_3  and  O_6 
REMARK    3  A    between atoms: C_3  and  C_4 
REMARK    4  A    between atoms: C_7  and  O_6 
REMARK    5  A    between atoms: C_9  and  C_10 
REMARK    6  A    between atoms: N_15  and  C_14 
REMARK    7  A    between atoms: N_20  and  C_19 
REMARK       I    between atoms: C_22  and  N_20 
ROOT
ATOM      1  C   LIG d   1       3.272  84.776 111.546  0.00  0.00     0.161 C 
ATOM      2  C   LIG d   1       3.984  84.927 112.748  0.00  0.00     0.016 C 
ATOM      3  C   LIG d   1       3.981  86.118 113.510  0.00  0.00     0.038 C 
ATOM      4  C   LIG d   1       3.138  87.195 113.198  0.00  0.00     0.028 C 
ATOM      5  C   LIG d   1       2.784  87.278 111.717  0.00  0.00    -0.047 C 
ATOM      6  C   LIG d   1       2.259  85.902 111.248  0.00  0.00     0.091 C 
ENDROOT
BRANCH   1   7
ATOM      7  O   LIG d   1       2.615  83.493 111.526  0.00  0.00    -0.368 OA
BRANCH   7   8
ATOM      8  C   LIG d   1       2.701  82.752 110.284  0.00  0.00     0.119 C 
BRANCH   8   9
ATOM      9  C   LIG d   1       2.315  81.292 110.588  0.00  0.00     0.028 C 
ATOM     10  C   LIG d   1       1.324  81.179 111.758  0.00  0.00     0.006 C 
ENDBRANCH   8   9
BRANCH   8  11
ATOM     11  C   LIG d   1       4.143  82.692 109.771  0.00  0.00     0.028 C 
ATOM     12  C   LIG d   1       4.421  81.442 108.920  0.00  0.00     0.006 C 
ENDBRANCH   8  11
ENDBRANCH   7   8
ENDBRANCH   1   7
BRANCH   6  13
ATOM     13  N   LIG d   1       1.969  85.871 109.791  0.00  0.00    -0.311 N 
ATOM     14  C   LIG d   1       0.747  85.698 109.291  0.00  0.00     0.210 C 
ATOM     15  C   LIG d   1       0.671  85.679 107.761  0.00  0.00     0.109 C 
ATOM     16  O   LIG d   1      -0.286  85.590 109.968  0.00  0.00    -0.276 OA
ATOM     17  H   LIG d   1       2.745  85.982 109.169  0.00  0.00     0.149 HD
ENDBRANCH   6  13
BRANCH   5  18
ATOM     18  N   LIG d   1       1.794  88.360 111.555  0.00  0.00     0.381 N 
ATOM     19  H   LIG d   1       0.949  87.990 111.166  0.00  0.00    -0.090 HD
ATOM     20  H   LIG d   1       2.161  89.045 110.919  0.00  0.00    -0.090 HD
ATOM     21  H   LIG d   1       1.604  88.783 112.437  0.00  0.00    -0.090 HD
ENDBRANCH   5  18
BRANCH   3  22
ATOM     22  C   LIG d   1       4.857  86.254 114.575  0.00  0.00     0.382 C 
ATOM     23  O   LIG d   1       5.144  85.259 115.282  0.00  0.00    -0.241 OA
ATOM     24  O   LIG d   1       5.330  87.370 114.866  0.00  0.00    -0.241 OA
ENDBRANCH   3  22
TORSDOF 7
ENDMDL
