MODEL 1
REMARK VINA RESULT:      -5.6      0.000      0.000
REMARK  7 active torsions:
REMARK  status: ('A' for Active; 'I' for Inactive)
REMARK    1  A    between atoms: C_2  and  C_3 
REMARK    2  A    between atoms: C_3  and  O_6 
REMARK    3  A    between atoms: C_3  and  C_4 
REMARK    4  A    between atoms: C_7  and  O_6 
REMARK    5  A    between atoms: C_9  and  C_10 
REMARK    6  A    between atoms: N_15  and  C_14 
REMARK    7  A    between atoms: N_20  and  C_19 
REMARK       I    between atoms: C_22  and  N_20 
ROOT
ATOM      1  C   LIG d   1      -6.114  92.848 118.002  0.00  0.00     0.161 C 
ATOM      2  C   LIG d   1      -6.987  92.091 117.203  0.00  0.00     0.016 C 
ATOM      3  C   LIG d   1      -6.552  91.072 116.325  0.00  0.00     0.038 C 
ATOM      4  C   LIG d   1      -5.219  90.636 116.298  0.00  0.00     0.028 C 
ATOM      5  C   LIG d   1      -4.221  91.710 116.717  0.00  0.00    -0.047 C 
ATOM      6  C   LIG d   1      -4.669  92.311 118.069  0.00  0.00     0.091 C 
ENDROOT
BRANCH   1   7
ATOM      7  O   LIG d   1      -6.659  92.984 119.329  0.00  0.00    -0.368 OA
BRANCH   7   8
ATOM      8  C   LIG d   1      -7.111  94.309 119.701  0.00  0.00     0.119 C 
BRANCH   8   9
ATOM      9  C   LIG d   1      -8.639  94.350 119.504  0.00  0.00     0.028 C 
ATOM     10  C   LIG d   1      -9.044  95.072 118.207  0.00  0.00     0.006 C 
ENDBRANCH   8   9
BRANCH   8  11
ATOM     11  C   LIG d   1      -6.551  95.374 118.753  0.00  0.00     0.028 C 
ATOM     12  C   LIG d   1      -5.655  96.397 119.469  0.00  0.00     0.006 C 
ENDBRANCH   8  11
ENDBRANCH   7   8
ENDBRANCH   1   7
BRANCH   6  13
ATOM     13  N   LIG d   1      -3.793  93.429 118.510  0.00  0.00    -0.311 N 
ATOM     14  C   LIG d   1      -3.114  93.419 119.656  0.00  0.00     0.210 C 
ATOM     15  C   LIG d   1      -2.288  94.680 119.927  0.00  0.00     0.109 C 
ATOM     16  O   LIG d   1      -3.093  92.473 120.457  0.00  0.00    -0.276 OA
ATOM     17  H   LIG d   1      -3.728  94.223 117.904  0.00  0.00     0.149 HD
ENDBRANCH   6  13
BRANCH   5  18
ATOM     18  N   LIG d   1      -2.888  91.082 116.776  0.00  0.00     0.381 N 
ATOM     19  H   LIG d   1      -2.669  90.841 117.722  0.00  0.00    -0.090 HD
ATOM     20  H   LIG d   1      -2.203  91.741 116.452  0.00  0.00    -0.090 HD
ATOM     21  H   LIG d   1      -2.870  90.266 116.205  0.00  0.00    -0.090 HD
ENDBRANCH   5  18
BRANCH   3  22
ATOM     22  C   LIG d   1      -7.449  90.506 115.432  0.00  0.00     0.382 C 
ATOM     23  O   LIG d   1      -8.365  89.760 115.853  0.00  0.00    -0.241 OA
ATOM     24  O   LIG d   1      -7.326  90.696 114.207  0.00  0.00    -0.241 OA
ENDBRANCH   3  22
TORSDOF 7
ENDMDL
MODEL 2
REMARK VINA RESULT:      -5.4      2.318      4.393
REMARK  7 active torsions:
REMARK  status: ('A' for Active; 'I' for Inactive)
REMARK    1  A    between atoms: C_2  and  C_3 
REMARK    2  A    between atoms: C_3  and  O_6 
REMARK    3  A    between atoms: C_3  and  C_4 
REMARK    4  A    between atoms: C_7  and  O_6 
REMARK    5  A    between atoms: C_9  and  C_10 
REMARK    6  A    between atoms: N_15  and  C_14 
REMARK    7  A    between atoms: N_20  and  C_19 
REMARK       I    between atoms: C_22  and  N_20 
ROOT
ATOM      1  C   LIG d   1      -4.423  91.708 117.667  0.00  0.00     0.161 C 
ATOM      2  C   LIG d   1      -4.848  91.513 116.342  0.00  0.00     0.016 C 
ATOM      3  C   LIG d   1      -6.136  91.868 115.878  0.00  0.00     0.038 C 
ATOM      4  C   LIG d   1      -7.040  92.585 116.676  0.00  0.00     0.028 C 
ATOM      5  C   LIG d   1      -6.843  92.355 118.171  0.00  0.00    -0.047 C 
ATOM      6  C   LIG d   1      -5.357  92.590 118.523  0.00  0.00     0.091 C 
ENDROOT
BRANCH   1   7
ATOM      7  O   LIG d   1      -3.084  92.240 117.677  0.00  0.00    -0.368 OA
BRANCH   7   8
ATOM      8  C   LIG d   1      -2.013  91.267 117.759  0.00  0.00     0.119 C 
BRANCH   8   9
ATOM      9  C   LIG d   1      -2.412  90.228 118.824  0.00  0.00     0.028 C 
ATOM     10  C   LIG d   1      -2.209  88.783 118.339  0.00  0.00     0.006 C 
ENDBRANCH   8   9
BRANCH   8  11
ATOM     11  C   LIG d   1      -0.720  91.904 118.279  0.00  0.00     0.028 C 
ATOM     12  C   LIG d   1      -0.848  92.417 119.723  0.00  0.00     0.006 C 
ENDBRANCH   8  11
ENDBRANCH   7   8
ENDBRANCH   1   7
BRANCH   6  13
ATOM     13  N   LIG d   1      -5.060  92.304 119.951  0.00  0.00    -0.311 N 
ATOM     14  C   LIG d   1      -4.396  93.143 120.744  0.00  0.00     0.210 C 
ATOM     15  C   LIG d   1      -4.181  92.645 122.176  0.00  0.00     0.109 C 
ATOM     16  O   LIG d   1      -3.993  94.266 120.405  0.00  0.00    -0.276 OA
ATOM     17  H   LIG d   1      -5.379  91.428 120.316  0.00  0.00     0.149 HD
ENDBRANCH   6  13
BRANCH   5  18
ATOM     18  N   LIG d   1      -7.758  93.265 118.886  0.00  0.00     0.381 N 
ATOM     19  H   LIG d   1      -8.703  92.961 118.764  0.00  0.00    -0.090 HD
ATOM     20  H   LIG d   1      -7.670  94.187 118.495  0.00  0.00    -0.090 HD
ATOM     21  H   LIG d   1      -7.530  93.285 119.855  0.00  0.00    -0.090 HD
ENDBRANCH   5  18
BRANCH   3  22
ATOM     22  C   LIG d   1      -6.545  91.469 114.615  0.00  0.00     0.382 C 
ATOM     23  O   LIG d   1      -6.597  92.304 113.680  0.00  0.00    -0.241 OA
ATOM     24  O   LIG d   1      -6.905  90.295 114.409  0.00  0.00    -0.241 OA
ENDBRANCH   3  22
TORSDOF 7
ENDMDL
MODEL 3
REMARK VINA RESULT:      -5.3     16.075     17.870
REMARK  7 active torsions:
REMARK  status: ('A' for Active; 'I' for Inactive)
REMARK    1  A    between atoms: C_2  and  C_3 
REMARK    2  A    between atoms: C_3  and  O_6 
REMARK    3  A    between atoms: C_3  and  C_4 
REMARK    4  A    between atoms: C_7  and  O_6 
REMARK    5  A    between atoms: C_9  and  C_10 
REMARK    6  A    between atoms: N_15  and  C_14 
REMARK    7  A    between atoms: N_20  and  C_19 
REMARK       I    between atoms: C_22  and  N_20 
ROOT
ATOM      1  C   LIG d   1      -2.994  75.814 116.218  0.00  0.00     0.161 C 
ATOM      2  C   LIG d   1      -3.180  76.531 115.024  0.00  0.00     0.016 C 
ATOM      3  C   LIG d   1      -2.117  77.083 114.273  0.00  0.00     0.038 C 
ATOM      4  C   LIG d   1      -0.774  76.824 114.588  0.00  0.00     0.028 C 
ATOM      5  C   LIG d   1      -0.545  76.530 116.067  0.00  0.00    -0.047 C 
ATOM      6  C   LIG d   1      -1.530  75.427 116.518  0.00  0.00     0.091 C 
ENDROOT
BRANCH   1   7
ATOM      7  O   LIG d   1      -3.832  74.642 116.220  0.00  0.00    -0.368 OA
BRANCH   7   8
ATOM      8  C   LIG d   1      -5.152  74.801 115.644  0.00  0.00     0.119 C 
BRANCH   8   9
ATOM      9  C   LIG d   1      -6.035  75.500 116.695  0.00  0.00     0.028 C 
ATOM     10  C   LIG d   1      -6.594  76.843 116.194  0.00  0.00     0.006 C 
ENDBRANCH   8   9
BRANCH   8  11
ATOM     11  C   LIG d   1      -5.817  73.445 115.392  0.00  0.00     0.028 C 
ATOM     12  C   LIG d   1      -6.880  73.098 116.446  0.00  0.00     0.006 C 
ENDBRANCH   8  11
ENDBRANCH   7   8
ENDBRANCH   1   7
BRANCH   6  13
ATOM     13  N   LIG d   1      -1.431  75.138 117.972  0.00  0.00    -0.311 N 
ATOM     14  C   LIG d   1      -1.140  73.934 118.462  0.00  0.00     0.210 C 
ATOM     15  C   LIG d   1      -1.107  73.849 119.991  0.00  0.00     0.109 C 
ATOM     16  O   LIG d   1      -0.874  72.937 117.775  0.00  0.00    -0.276 OA
ATOM     17  H   LIG d   1      -1.600  75.899 118.601  0.00  0.00     0.149 HD
ENDBRANCH   6  13
BRANCH   5  18
ATOM     18  N   LIG d   1       0.869  76.144 116.230  0.00  0.00     0.381 N 
ATOM     19  H   LIG d   1       0.950  75.147 116.233  0.00  0.00    -0.090 HD
ATOM     20  H   LIG d   1       1.200  76.489 117.114  0.00  0.00    -0.090 HD
ATOM     21  H   LIG d   1       1.415  76.527 115.490  0.00  0.00    -0.090 HD
ENDBRANCH   5  18
BRANCH   3  22
ATOM     22  C   LIG d   1      -2.393  77.937 113.216  0.00  0.00     0.382 C 
ATOM     23  O   LIG d   1      -2.754  79.117 113.441  0.00  0.00    -0.241 OA
ATOM     24  O   LIG d   1      -2.327  77.529 112.041  0.00  0.00    -0.241 OA
ENDBRANCH   3  22
TORSDOF 7
ENDMDL
MODEL 4
REMARK VINA RESULT:      -5.2      2.181      4.261
REMARK  7 active torsions:
REMARK  status: ('A' for Active; 'I' for Inactive)
REMARK    1  A    between atoms: C_2  and  C_3 
REMARK    2  A    between atoms: C_3  and  O_6 
REMARK    3  A    between atoms: C_3  and  C_4 
REMARK    4  A    between atoms: C_7  and  O_6 
REMARK    5  A    between atoms: C_9  and  C_10 
REMARK    6  A    between atoms: N_15  and  C_14 
REMARK    7  A    between atoms: N_20  and  C_19 
REMARK       I    between atoms: C_22  and  N_20 
ROOT
ATOM      1  C   LIG d   1      -4.292  92.296 118.123  0.00  0.00     0.161 C 
ATOM      2  C   LIG d   1      -4.527  91.780 116.838  0.00  0.00     0.016 C 
ATOM      3  C   LIG d   1      -5.800  91.777 116.221  0.00  0.00     0.038 C 
ATOM      4  C   LIG d   1      -6.902  92.431 116.791  0.00  0.00     0.028 C 
ATOM      5  C   LIG d   1      -6.831  92.524 118.312  0.00  0.00    -0.047 C 
ATOM      6  C   LIG d   1      -5.460  93.113 118.715  0.00  0.00     0.091 C 
ENDROOT
BRANCH   1   7
ATOM      7  O   LIG d   1      -3.082  93.079 118.122  0.00  0.00    -0.368 OA
BRANCH   7   8
ATOM      8  C   LIG d   1      -2.018  92.609 118.985  0.00  0.00     0.119 C 
BRANCH   8   9
ATOM      9  C   LIG d   1      -1.667  93.754 119.954  0.00  0.00     0.028 C 
ATOM     10  C   LIG d   1      -2.288  95.095 119.526  0.00  0.00     0.006 C 
ENDBRANCH   8   9
BRANCH   8  11
ATOM     11  C   LIG d   1      -0.735  92.341 118.192  0.00  0.00     0.028 C 
ATOM     12  C   LIG d   1      -0.719  90.951 117.536  0.00  0.00     0.006 C 
ENDBRANCH   8  11
ENDBRANCH   7   8
ENDBRANCH   1   7
BRANCH   6  13
ATOM     13  N   LIG d   1      -5.274  93.160 120.189  0.00  0.00    -0.311 N 
ATOM     14  C   LIG d   1      -5.560  94.229 120.930  0.00  0.00     0.210 C 
ATOM     15  C   LIG d   1      -5.276  94.073 122.427  0.00  0.00     0.109 C 
ATOM     16  O   LIG d   1      -6.053  95.281 120.494  0.00  0.00    -0.276 OA
ATOM     17  H   LIG d   1      -4.908  92.339 120.629  0.00  0.00     0.149 HD
ENDBRANCH   6  13
BRANCH   5  18
ATOM     18  N   LIG d   1      -7.969  93.347 118.762  0.00  0.00     0.381 N 
ATOM     19  H   LIG d   1      -8.826  92.946 118.437  0.00  0.00    -0.090 HD
ATOM     20  H   LIG d   1      -7.881  94.267 118.366  0.00  0.00    -0.090 HD
ATOM     21  H   LIG d   1      -7.976  93.404 119.756  0.00  0.00    -0.090 HD
ENDBRANCH   5  18
BRANCH   3  22
ATOM     22  C   LIG d   1      -5.988  91.079 115.037  0.00  0.00     0.382 C 
ATOM     23  O   LIG d   1      -5.674  89.866 114.968  0.00  0.00    -0.241 OA
ATOM     24  O   LIG d   1      -6.426  91.658 114.025  0.00  0.00    -0.241 OA
ENDBRANCH   3  22
TORSDOF 7
ENDMDL
MODEL 5
REMARK VINA RESULT:      -5.2      2.662      6.470
REMARK  7 active torsions:
REMARK  status: ('A' for Active; 'I' for Inactive)
REMARK    1  A    between atoms: C_2  and  C_3 
REMARK    2  A    between atoms: C_3  and  O_6 
REMARK    3  A    between atoms: C_3  and  C_4 
REMARK    4  A    between atoms: C_7  and  O_6 
REMARK    5  A    between atoms: C_9  and  C_10 
REMARK    6  A    between atoms: N_15  and  C_14 
REMARK    7  A    between atoms: N_20  and  C_19 
REMARK       I    between atoms: C_22  and  N_20 
ROOT
ATOM      1  C   LIG d   1      -3.758  92.314 117.769  0.00  0.00     0.161 C 
ATOM      2  C   LIG d   1      -3.276  92.558 119.066  0.00  0.00     0.016 C 
ATOM      3  C   LIG d   1      -4.118  92.780 120.180  0.00  0.00     0.038 C 
ATOM      4  C   LIG d   1      -5.509  92.623 120.101  0.00  0.00     0.028 C 
ATOM      5  C   LIG d   1      -6.069  92.874 118.705  0.00  0.00    -0.047 C 
ATOM      6  C   LIG d   1      -5.272  92.028 117.685  0.00  0.00     0.091 C 
ENDROOT
BRANCH   1   7
ATOM      7  O   LIG d   1      -3.011  91.240 117.164  0.00  0.00    -0.368 OA
BRANCH   7   8
ATOM      8  C   LIG d   1      -2.154  90.481 118.052  0.00  0.00     0.119 C 
BRANCH   8   9
ATOM      9  C   LIG d   1      -0.742  90.469 117.435  0.00  0.00     0.028 C 
ATOM     10  C   LIG d   1       0.285  91.215 118.303  0.00  0.00     0.006 C 
ENDBRANCH   8   9
BRANCH   8  11
ATOM     11  C   LIG d   1      -2.580  89.011 118.116  0.00  0.00     0.028 C 
ATOM     12  C   LIG d   1      -2.162  88.327 119.427  0.00  0.00     0.006 C 
ENDBRANCH   8  11
ENDBRANCH   7   8
ENDBRANCH   1   7
BRANCH   6  13
ATOM     13  N   LIG d   1      -5.700  92.278 116.284  0.00  0.00    -0.311 N 
ATOM     14  C   LIG d   1      -6.226  91.339 115.500  0.00  0.00     0.210 C 
ATOM     15  C   LIG d   1      -6.580  91.804 114.083  0.00  0.00     0.109 C 
ATOM     16  O   LIG d   1      -6.464  90.174 115.853  0.00  0.00    -0.276 OA
ATOM     17  H   LIG d   1      -5.572  93.205 115.927  0.00  0.00     0.149 HD
ENDBRANCH   6  13
BRANCH   5  18
ATOM     18  N   LIG d   1      -7.506  92.541 118.734  0.00  0.00     0.381 N 
ATOM     19  H   LIG d   1      -7.933  92.809 117.870  0.00  0.00    -0.090 HD
ATOM     20  H   LIG d   1      -7.944  93.057 119.477  0.00  0.00    -0.090 HD
ATOM     21  H   LIG d   1      -7.626  91.563 118.884  0.00  0.00    -0.090 HD
ENDBRANCH   5  18
BRANCH   3  22
ATOM     22  C   LIG d   1      -3.570  93.204 121.381  0.00  0.00     0.382 C 
ATOM     23  O   LIG d   1      -3.592  92.447 122.382  0.00  0.00    -0.241 OA
ATOM     24  O   LIG d   1      -3.094  94.350 121.490  0.00  0.00    -0.241 OA
ENDBRANCH   3  22
TORSDOF 7
ENDMDL
MODEL 6
REMARK VINA RESULT:      -5.1      2.287      4.145
REMARK  7 active torsions:
REMARK  status: ('A' for Active; 'I' for Inactive)
REMARK    1  A    between atoms: C_2  and  C_3 
REMARK    2  A    between atoms: C_3  and  O_6 
REMARK    3  A    between atoms: C_3  and  C_4 
REMARK    4  A    between atoms: C_7  and  O_6 
REMARK    5  A    between atoms: C_9  and  C_10 
REMARK    6  A    between atoms: N_15  and  C_14 
REMARK    7  A    between atoms: N_20  and  C_19 
REMARK       I    between atoms: C_22  and  N_20 
ROOT
ATOM      1  C   LIG d   1      -5.326  91.931 118.633  0.00  0.00     0.161 C 
ATOM      2  C   LIG d   1      -5.142  91.536 117.297  0.00  0.00     0.016 C 
ATOM      3  C   LIG d   1      -5.994  91.937 116.242  0.00  0.00     0.038 C 
ATOM      4  C   LIG d   1      -7.007  92.889 116.429  0.00  0.00     0.028 C 
ATOM      5  C   LIG d   1      -7.547  92.928 117.855  0.00  0.00    -0.047 C 
ATOM      6  C   LIG d   1      -6.360  93.058 118.837  0.00  0.00     0.091 C 
ENDROOT
BRANCH   1   7
ATOM      7  O   LIG d   1      -4.059  92.302 119.212  0.00  0.00    -0.368 OA
BRANCH   7   8
ATOM      8  C   LIG d   1      -3.451  93.510 118.693  0.00  0.00     0.119 C 
BRANCH   8   9
ATOM      9  C   LIG d   1      -1.973  93.194 118.396  0.00  0.00     0.028 C 
ATOM     10  C   LIG d   1      -1.633  91.711 118.622  0.00  0.00     0.006 C 
ENDBRANCH   8   9
BRANCH   8  11
ATOM     11  C   LIG d   1      -3.424  94.618 119.751  0.00  0.00     0.028 C 
ATOM     12  C   LIG d   1      -3.301  94.073 121.182  0.00  0.00     0.006 C 
ENDBRANCH   8  11
ENDBRANCH   7   8
ENDBRANCH   1   7
BRANCH   6  13
ATOM     13  N   LIG d   1      -6.793  93.018 120.258  0.00  0.00    -0.311 N 
ATOM     14  C   LIG d   1      -7.047  94.109 120.978  0.00  0.00     0.210 C 
ATOM     15  C   LIG d   1      -7.461  93.845 122.429  0.00  0.00     0.109 C 
ATOM     16  O   LIG d   1      -7.000  95.270 120.544  0.00  0.00    -0.276 OA
ATOM     17  H   LIG d   1      -6.887  92.115 120.681  0.00  0.00     0.149 HD
ENDBRANCH   6  13
BRANCH   5  18
ATOM     18  N   LIG d   1      -8.496  94.054 117.943  0.00  0.00     0.381 N 
ATOM     19  H   LIG d   1      -9.365  93.797 117.520  0.00  0.00    -0.090 HD
ATOM     20  H   LIG d   1      -8.118  94.837 117.438  0.00  0.00    -0.090 HD
ATOM     21  H   LIG d   1      -8.642  94.303 118.896  0.00  0.00    -0.090 HD
ENDBRANCH   5  18
BRANCH   3  22
ATOM     22  C   LIG d   1      -5.861  91.354 114.992  0.00  0.00     0.382 C 
ATOM     23  O   LIG d   1      -5.995  92.051 113.957  0.00  0.00    -0.241 OA
ATOM     24  O   LIG d   1      -5.653  90.130 114.884  0.00  0.00    -0.241 OA
ENDBRANCH   3  22
TORSDOF 7
ENDMDL
MODEL 7
REMARK VINA RESULT:      -5.0     15.466     17.859
REMARK  7 active torsions:
REMARK  status: ('A' for Active; 'I' for Inactive)
REMARK    1  A    between atoms: C_2  and  C_3 
REMARK    2  A    between atoms: C_3  and  O_6 
REMARK    3  A    between atoms: C_3  and  C_4 
REMARK    4  A    between atoms: C_7  and  O_6 
REMARK    5  A    between atoms: C_9  and  C_10 
REMARK    6  A    between atoms: N_15  and  C_14 
REMARK    7  A    between atoms: N_20  and  C_19 
REMARK       I    between atoms: C_22  and  N_20 
ROOT
ATOM      1  C   LIG d   1      -1.279  75.535 115.036  0.00  0.00     0.161 C 
ATOM      2  C   LIG d   1      -1.192  74.584 116.066  0.00  0.00     0.016 C 
ATOM      3  C   LIG d   1      -0.446  74.785 117.250  0.00  0.00     0.038 C 
ATOM      4  C   LIG d   1       0.145  76.021 117.553  0.00  0.00     0.028 C 
ATOM      5  C   LIG d   1       0.506  76.839 116.317  0.00  0.00    -0.047 C 
ATOM      6  C   LIG d   1      -0.733  76.932 115.398  0.00  0.00     0.091 C 
ENDROOT
BRANCH   1   7
ATOM      7  O   LIG d   1      -2.642  75.634 114.576  0.00  0.00    -0.368 OA
BRANCH   7   8
ATOM      8  C   LIG d   1      -3.665  75.243 115.525  0.00  0.00     0.119 C 
BRANCH   8   9
ATOM      9  C   LIG d   1      -4.773  74.518 114.738  0.00  0.00     0.028 C 
ATOM     10  C   LIG d   1      -5.752  73.769 115.659  0.00  0.00     0.006 C 
ENDBRANCH   8   9
BRANCH   8  11
ATOM     11  C   LIG d   1      -4.343  76.467 116.148  0.00  0.00     0.028 C 
ATOM     12  C   LIG d   1      -3.851  76.760 117.574  0.00  0.00     0.006 C 
ENDBRANCH   8  11
ENDBRANCH   7   8
ENDBRANCH   1   7
BRANCH   6  13
ATOM     13  N   LIG d   1      -0.442  77.644 114.126  0.00  0.00    -0.311 N 
ATOM     14  C   LIG d   1      -0.633  78.952 113.958  0.00  0.00     0.210 C 
ATOM     15  C   LIG d   1      -0.289  79.482 112.563  0.00  0.00     0.109 C 
ATOM     16  O   LIG d   1      -1.024  79.729 114.842  0.00  0.00    -0.276 OA
ATOM     17  H   LIG d   1      -0.092  77.096 113.366  0.00  0.00     0.149 HD
ENDBRANCH   6  13
BRANCH   5  18
ATOM     18  N   LIG d   1       0.984  78.156 116.779  0.00  0.00     0.381 N 
ATOM     19  H   LIG d   1       0.249  78.634 117.260  0.00  0.00    -0.090 HD
ATOM     20  H   LIG d   1       1.247  78.705 115.979  0.00  0.00    -0.090 HD
ATOM     21  H   LIG d   1       1.768  78.041 117.384  0.00  0.00    -0.090 HD
ENDBRANCH   5  18
BRANCH   3  22
ATOM     22  C   LIG d   1      -0.251  73.730 118.128  0.00  0.00     0.382 C 
ATOM     23  O   LIG d   1      -1.063  72.773 118.147  0.00  0.00    -0.241 OA
ATOM     24  O   LIG d   1       0.700  73.743 118.931  0.00  0.00    -0.241 OA
ENDBRANCH   3  22
TORSDOF 7
ENDMDL
MODEL 8
REMARK VINA RESULT:      -5.0     16.531     18.740
REMARK  7 active torsions:
REMARK  status: ('A' for Active; 'I' for Inactive)
REMARK    1  A    between atoms: C_2  and  C_3 
REMARK    2  A    between atoms: C_3  and  O_6 
REMARK    3  A    between atoms: C_3  and  C_4 
REMARK    4  A    between atoms: C_7  and  O_6 
REMARK    5  A    between atoms: C_9  and  C_10 
REMARK    6  A    between atoms: N_15  and  C_14 
REMARK    7  A    between atoms: N_20  and  C_19 
REMARK       I    between atoms: C_22  and  N_20 
ROOT
ATOM      1  C   LIG d   1      -1.450  75.119 116.014  0.00  0.00     0.161 C 
ATOM      2  C   LIG d   1      -0.758  74.517 114.951  0.00  0.00     0.016 C 
ATOM      3  C   LIG d   1       0.581  74.073 115.046  0.00  0.00     0.038 C 
ATOM      4  C   LIG d   1       1.275  74.064 116.265  0.00  0.00     0.028 C 
ATOM      5  C   LIG d   1       0.789  75.126 117.246  0.00  0.00    -0.047 C 
ATOM      6  C   LIG d   1      -0.747  75.016 117.384  0.00  0.00     0.091 C 
ENDROOT
BRANCH   1   7
ATOM      7  O   LIG d   1      -2.785  74.581 116.095  0.00  0.00    -0.368 OA
BRANCH   7   8
ATOM      8  C   LIG d   1      -3.832  75.382 115.493  0.00  0.00     0.119 C 
BRANCH   8   9
ATOM      9  C   LIG d   1      -4.622  76.046 116.638  0.00  0.00     0.028 C 
ATOM     10  C   LIG d   1      -4.286  77.539 116.793  0.00  0.00     0.006 C 
ENDBRANCH   8   9
BRANCH   8  11
ATOM     11  C   LIG d   1      -4.848  74.506 114.754  0.00  0.00     0.028 C 
ATOM     12  C   LIG d   1      -5.791  73.754 115.707  0.00  0.00     0.006 C 
ENDBRANCH   8  11
ENDBRANCH   7   8
ENDBRANCH   1   7
BRANCH   6  13
ATOM     13  N   LIG d   1      -1.314  76.074 118.261  0.00  0.00    -0.311 N 
ATOM     14  C   LIG d   1      -1.601  75.884 119.548  0.00  0.00     0.210 C 
ATOM     15  C   LIG d   1      -2.197  77.100 120.264  0.00  0.00     0.109 C 
ATOM     16  O   LIG d   1      -1.388  74.834 120.172  0.00  0.00    -0.276 OA
ATOM     17  H   LIG d   1      -1.490  76.967 117.843  0.00  0.00     0.149 HD
ENDBRANCH   6  13
BRANCH   5  18
ATOM     18  N   LIG d   1       1.500  74.915 118.521  0.00  0.00     0.381 N 
ATOM     19  H   LIG d   1       0.862  75.012 119.285  0.00  0.00    -0.090 HD
ATOM     20  H   LIG d   1       2.214  75.616 118.615  0.00  0.00    -0.090 HD
ATOM     21  H   LIG d   1       1.911  74.007 118.535  0.00  0.00    -0.090 HD
ENDBRANCH   5  18
BRANCH   3  22
ATOM     22  C   LIG d   1       1.254  73.668 113.903  0.00  0.00     0.382 C 
ATOM     23  O   LIG d   1       0.609  73.350 112.875  0.00  0.00    -0.241 OA
ATOM     24  O   LIG d   1       2.496  73.575 113.901  0.00  0.00    -0.241 OA
ENDBRANCH   3  22
TORSDOF 7
ENDMDL
MODEL 9
REMARK VINA RESULT:      -5.0     11.220     12.365
REMARK  7 active torsions:
REMARK  status: ('A' for Active; 'I' for Inactive)
REMARK    1  A    between atoms: C_2  and  C_3 
REMARK    2  A    between atoms: C_3  and  O_6 
REMARK    3  A    between atoms: C_3  and  C_4 
REMARK    4  A    between atoms: C_7  and  O_6 
REMARK    5  A    between atoms: C_9  and  C_10 
REMARK    6  A    between atoms: N_15  and  C_14 
REMARK    7  A    between atoms: N_20  and  C_19 
REMARK       I    between atoms: C_22  and  N_20 
ROOT
ATOM      1  C   LIG d   1       3.764  87.802 115.641  0.00  0.00     0.161 C 
ATOM      2  C   LIG d   1       2.937  87.208 114.672  0.00  0.00     0.016 C 
ATOM      3  C   LIG d   1       3.217  87.238 113.287  0.00  0.00     0.038 C 
ATOM      4  C   LIG d   1       4.428  87.737 112.785  0.00  0.00     0.028 C 
ATOM      5  C   LIG d   1       5.062  88.798 113.678  0.00  0.00    -0.047 C 
ATOM      6  C   LIG d   1       5.145  88.254 115.123  0.00  0.00     0.091 C 
ENDROOT
BRANCH   1   7
ATOM      7  O   LIG d   1       3.917  86.913 116.765  0.00  0.00    -0.368 OA
BRANCH   7   8
ATOM      8  C   LIG d   1       4.025  85.502 116.451  0.00  0.00     0.119 C 
BRANCH   8   9
ATOM      9  C   LIG d   1       3.114  84.739 117.432  0.00  0.00     0.028 C 
ATOM     10  C   LIG d   1       1.819  84.244 116.767  0.00  0.00     0.006 C 
ENDBRANCH   8   9
BRANCH   8  11
ATOM     11  C   LIG d   1       5.439  84.979 116.719  0.00  0.00     0.028 C 
ATOM     12  C   LIG d   1       5.497  83.447 116.824  0.00  0.00     0.006 C 
ENDBRANCH   8  11
ENDBRANCH   7   8
ENDBRANCH   1   7
BRANCH   6  13
ATOM     13  N   LIG d   1       5.676  89.261 116.078  0.00  0.00    -0.311 N 
ATOM     14  C   LIG d   1       6.697  89.024 116.901  0.00  0.00     0.210 C 
ATOM     15  C   LIG d   1       7.072  90.192 117.818  0.00  0.00     0.109 C 
ATOM     16  O   LIG d   1       7.347  87.969 116.935  0.00  0.00    -0.276 OA
ATOM     17  H   LIG d   1       5.227  90.156 116.094  0.00  0.00     0.149 HD
ENDBRANCH   6  13
BRANCH   5  18
ATOM     18  N   LIG d   1       6.382  89.130 113.108  0.00  0.00     0.381 N 
ATOM     19  H   LIG d   1       7.087  89.039 113.812  0.00  0.00    -0.090 HD
ATOM     20  H   LIG d   1       6.370  90.084 112.795  0.00  0.00    -0.090 HD
ATOM     21  H   LIG d   1       6.586  88.524 112.344  0.00  0.00    -0.090 HD
ENDBRANCH   5  18
BRANCH   3  22
ATOM     22  C   LIG d   1       2.260  86.801 112.383  0.00  0.00     0.382 C 
ATOM     23  O   LIG d   1       2.314  85.632 111.931  0.00  0.00    -0.241 OA
ATOM     24  O   LIG d   1       1.371  87.574 111.981  0.00  0.00    -0.241 OA
ENDBRANCH   3  22
TORSDOF 7
ENDMDL
