MODEL 1
REMARK VINA RESULT:      -5.7      0.000      0.000
REMARK  7 active torsions:
REMARK  status: ('A' for Active; 'I' for Inactive)
REMARK    1  A    between atoms: C_2  and  C_3 
REMARK    2  A    between atoms: C_3  and  O_6 
REMARK    3  A    between atoms: C_3  and  C_4 
REMARK    4  A    between atoms: C_7  and  O_6 
REMARK    5  A    between atoms: C_9  and  C_10 
REMARK    6  A    between atoms: N_15  and  C_14 
REMARK    7  A    between atoms: N_20  and  C_19 
REMARK       I    between atoms: C_22  and  N_20 
ROOT
ATOM      1  C   LIG d   1      -4.397  89.971 116.930  0.00  0.00     0.161 C 
ATOM      2  C   LIG d   1      -3.860  89.052 116.014  0.00  0.00     0.016 C 
ATOM      3  C   LIG d   1      -4.596  88.504 114.938  0.00  0.00     0.038 C 
ATOM      4  C   LIG d   1      -5.883  88.957 114.614  0.00  0.00     0.028 C 
ATOM      5  C   LIG d   1      -6.648  89.515 115.809  0.00  0.00    -0.047 C 
ATOM      6  C   LIG d   1      -5.765  90.561 116.526  0.00  0.00     0.091 C 
ENDROOT
BRANCH   1   7
ATOM      7  O   LIG d   1      -3.448  91.028 117.175  0.00  0.00    -0.368 OA
BRANCH   7   8
ATOM      8  C   LIG d   1      -2.762  90.985 118.450  0.00  0.00     0.119 C 
BRANCH   8   9
ATOM      9  C   LIG d   1      -2.719  92.422 119.003  0.00  0.00     0.028 C 
ATOM     10  C   LIG d   1      -2.328  93.452 117.929  0.00  0.00     0.006 C 
ENDBRANCH   8   9
BRANCH   8  11
ATOM     11  C   LIG d   1      -1.296  90.572 118.280  0.00  0.00     0.028 C 
ATOM     12  C   LIG d   1      -1.061  89.080 118.561  0.00  0.00     0.006 C 
ENDBRANCH   8  11
ENDBRANCH   7   8
ENDBRANCH   1   7
BRANCH   6  13
ATOM     13  N   LIG d   1      -6.405  91.096 117.757  0.00  0.00    -0.311 N 
ATOM     14  C   LIG d   1      -6.359  92.379 118.109  0.00  0.00     0.210 C 
ATOM     15  C   LIG d   1      -7.067  92.715 119.425  0.00  0.00     0.109 C 
ATOM     16  O   LIG d   1      -5.826  93.278 117.439  0.00  0.00    -0.276 OA
ATOM     17  H   LIG d   1      -6.885  90.441 118.342  0.00  0.00     0.149 HD
ENDBRANCH   6  13
BRANCH   5  18
ATOM     18  N   LIG d   1      -7.915  90.076 115.305  0.00  0.00     0.381 N 
ATOM     19  H   LIG d   1      -7.733  90.909 114.781  0.00  0.00    -0.090 HD
ATOM     20  H   LIG d   1      -8.498  90.317 116.087  0.00  0.00    -0.090 HD
ATOM     21  H   LIG d   1      -8.379  89.408 114.729  0.00  0.00    -0.090 HD
ENDBRANCH   5  18
BRANCH   3  22
ATOM     22  C   LIG d   1      -4.058  87.462 114.197  0.00  0.00     0.382 C 
ATOM     23  O   LIG d   1      -3.982  87.555 112.949  0.00  0.00    -0.241 OA
ATOM     24  O   LIG d   1      -3.689  86.413 114.758  0.00  0.00    -0.241 OA
ENDBRANCH   3  22
TORSDOF 7
ENDMDL
MODEL 2
REMARK VINA RESULT:      -5.5     11.060     13.092
REMARK  7 active torsions:
REMARK  status: ('A' for Active; 'I' for Inactive)
REMARK    1  A    between atoms: C_2  and  C_3 
REMARK    2  A    between atoms: C_3  and  O_6 
REMARK    3  A    between atoms: C_3  and  C_4 
REMARK    4  A    between atoms: C_7  and  O_6 
REMARK    5  A    between atoms: C_9  and  C_10 
REMARK    6  A    between atoms: N_15  and  C_14 
REMARK    7  A    between atoms: N_20  and  C_19 
REMARK       I    between atoms: C_22  and  N_20 
ROOT
ATOM      1  C   LIG d   1      -7.154  78.595 117.923  0.00  0.00     0.161 C 
ATOM      2  C   LIG d   1      -5.929  78.107 118.407  0.00  0.00     0.016 C 
ATOM      3  C   LIG d   1      -5.258  78.658 119.523  0.00  0.00     0.038 C 
ATOM      4  C   LIG d   1      -5.846  79.645 120.328  0.00  0.00     0.028 C 
ATOM      5  C   LIG d   1      -6.853  80.514 119.583  0.00  0.00    -0.047 C 
ATOM      6  C   LIG d   1      -7.864  79.599 118.855  0.00  0.00     0.091 C 
ENDROOT
BRANCH   1   7
ATOM      7  O   LIG d   1      -8.031  77.494 117.613  0.00  0.00    -0.368 OA
BRANCH   7   8
ATOM      8  C   LIG d   1      -7.726  76.235 118.261  0.00  0.00     0.119 C 
BRANCH   8   9
ATOM      9  C   LIG d   1      -7.847  75.126 117.198  0.00  0.00     0.028 C 
ATOM     10  C   LIG d   1      -6.927  75.367 115.990  0.00  0.00     0.006 C 
ENDBRANCH   8   9
BRANCH   8  11
ATOM     11  C   LIG d   1      -8.769  75.890 119.327  0.00  0.00     0.028 C 
ATOM     12  C   LIG d   1     -10.053  76.725 119.197  0.00  0.00     0.006 C 
ENDBRANCH   8  11
ENDBRANCH   7   8
ENDBRANCH   1   7
BRANCH   6  13
ATOM     13  N   LIG d   1      -8.835  80.368 118.033  0.00  0.00    -0.311 N 
ATOM     14  C   LIG d   1     -10.055  80.694 118.454  0.00  0.00     0.210 C 
ATOM     15  C   LIG d   1     -10.902  81.471 117.441  0.00  0.00     0.109 C 
ATOM     16  O   LIG d   1     -10.506  80.442 119.582  0.00  0.00    -0.276 OA
ATOM     17  H   LIG d   1      -8.540  80.641 117.116  0.00  0.00     0.149 HD
ENDBRANCH   6  13
BRANCH   5  18
ATOM     18  N   LIG d   1      -7.488  81.407 120.571  0.00  0.00     0.381 N 
ATOM     19  H   LIG d   1      -8.337  81.779 120.195  0.00  0.00    -0.090 HD
ATOM     20  H   LIG d   1      -6.866  82.173 120.763  0.00  0.00    -0.090 HD
ATOM     21  H   LIG d   1      -7.679  80.906 121.410  0.00  0.00    -0.090 HD
ENDBRANCH   5  18
BRANCH   3  22
ATOM     22  C   LIG d   1      -3.967  78.249 119.819  0.00  0.00     0.382 C 
ATOM     23  O   LIG d   1      -3.207  77.856 118.901  0.00  0.00    -0.241 OA
ATOM     24  O   LIG d   1      -3.567  78.224 120.999  0.00  0.00    -0.241 OA
ENDBRANCH   3  22
TORSDOF 7
ENDMDL
MODEL 3
REMARK VINA RESULT:      -5.4     12.214     14.072
REMARK  7 active torsions:
REMARK  status: ('A' for Active; 'I' for Inactive)
REMARK    1  A    between atoms: C_2  and  C_3 
REMARK    2  A    between atoms: C_3  and  O_6 
REMARK    3  A    between atoms: C_3  and  C_4 
REMARK    4  A    between atoms: C_7  and  O_6 
REMARK    5  A    between atoms: C_9  and  C_10 
REMARK    6  A    between atoms: N_15  and  C_14 
REMARK    7  A    between atoms: N_20  and  C_19 
REMARK       I    between atoms: C_22  and  N_20 
ROOT
ATOM      1  C   LIG d   1      -6.423  77.814 117.289  0.00  0.00     0.161 C 
ATOM      2  C   LIG d   1      -5.786  77.128 116.242  0.00  0.00     0.016 C 
ATOM      3  C   LIG d   1      -4.441  76.695 116.300  0.00  0.00     0.038 C 
ATOM      4  C   LIG d   1      -3.683  76.788 117.477  0.00  0.00     0.028 C 
ATOM      5  C   LIG d   1      -4.122  77.926 118.392  0.00  0.00    -0.047 C 
ATOM      6  C   LIG d   1      -5.647  77.826 118.622  0.00  0.00     0.091 C 
ENDROOT
BRANCH   1   7
ATOM      7  O   LIG d   1      -7.749  77.283 117.485  0.00  0.00    -0.368 OA
BRANCH   7   8
ATOM      8  C   LIG d   1      -7.823  75.938 118.020  0.00  0.00     0.119 C 
BRANCH   8   9
ATOM      9  C   LIG d   1      -8.285  75.011 116.879  0.00  0.00     0.028 C 
ATOM     10  C   LIG d   1      -7.475  73.705 116.820  0.00  0.00     0.006 C 
ENDBRANCH   8   9
BRANCH   8  11
ATOM     11  C   LIG d   1      -8.907  75.826 119.096  0.00  0.00     0.028 C 
ATOM     12  C   LIG d   1      -9.889  77.008 119.079  0.00  0.00     0.006 C 
ENDBRANCH   8  11
ENDBRANCH   7   8
ENDBRANCH   1   7
BRANCH   6  13
ATOM     13  N   LIG d   1      -6.172  78.951 119.439  0.00  0.00    -0.311 N 
ATOM     14  C   LIG d   1      -6.791  78.783 120.606  0.00  0.00     0.210 C 
ATOM     15  C   LIG d   1      -7.272  80.074 121.275  0.00  0.00     0.109 C 
ATOM     16  O   LIG d   1      -6.958  77.689 121.167  0.00  0.00    -0.276 OA
ATOM     17  H   LIG d   1      -6.052  79.875 119.073  0.00  0.00     0.149 HD
ENDBRANCH   6  13
BRANCH   5  18
ATOM     18  N   LIG d   1      -3.341  77.821 119.639  0.00  0.00     0.381 N 
ATOM     19  H   LIG d   1      -3.953  77.886 120.428  0.00  0.00    -0.090 HD
ATOM     20  H   LIG d   1      -2.690  78.586 119.681  0.00  0.00    -0.090 HD
ATOM     21  H   LIG d   1      -2.849  76.955 119.662  0.00  0.00    -0.090 HD
ENDBRANCH   5  18
BRANCH   3  22
ATOM     22  C   LIG d   1      -3.828  76.199 115.160  0.00  0.00     0.382 C 
ATOM     23  O   LIG d   1      -4.435  75.381 114.427  0.00  0.00    -0.241 OA
ATOM     24  O   LIG d   1      -2.660  76.525 114.877  0.00  0.00    -0.241 OA
ENDBRANCH   3  22
TORSDOF 7
ENDMDL
MODEL 4
REMARK VINA RESULT:      -5.2      2.549      4.513
REMARK  7 active torsions:
REMARK  status: ('A' for Active; 'I' for Inactive)
REMARK    1  A    between atoms: C_2  and  C_3 
REMARK    2  A    between atoms: C_3  and  O_6 
REMARK    3  A    between atoms: C_3  and  C_4 
REMARK    4  A    between atoms: C_7  and  O_6 
REMARK    5  A    between atoms: C_9  and  C_10 
REMARK    6  A    between atoms: N_15  and  C_14 
REMARK    7  A    between atoms: N_20  and  C_19 
REMARK       I    between atoms: C_22  and  N_20 
ROOT
ATOM      1  C   LIG d   1      -4.055  91.020 117.159  0.00  0.00     0.161 C 
ATOM      2  C   LIG d   1      -5.164  91.548 116.477  0.00  0.00     0.016 C 
ATOM      3  C   LIG d   1      -5.810  90.882 115.410  0.00  0.00     0.038 C 
ATOM      4  C   LIG d   1      -5.483  89.566 115.050  0.00  0.00     0.028 C 
ATOM      5  C   LIG d   1      -4.041  89.190 115.376  0.00  0.00    -0.047 C 
ATOM      6  C   LIG d   1      -3.753  89.538 116.854  0.00  0.00     0.091 C 
ENDROOT
BRANCH   1   7
ATOM      7  O   LIG d   1      -4.215  91.218 118.578  0.00  0.00    -0.368 OA
BRANCH   7   8
ATOM      8  C   LIG d   1      -5.147  92.254 118.976  0.00  0.00     0.119 C 
BRANCH   8   9
ATOM      9  C   LIG d   1      -4.325  93.407 119.583  0.00  0.00     0.028 C 
ATOM     10  C   LIG d   1      -4.922  94.787 119.260  0.00  0.00     0.006 C 
ENDBRANCH   8   9
BRANCH   8  11
ATOM     11  C   LIG d   1      -6.065  91.773 120.103  0.00  0.00     0.028 C 
ATOM     12  C   LIG d   1      -5.352  91.701 121.463  0.00  0.00     0.006 C 
ENDBRANCH   8  11
ENDBRANCH   7   8
ENDBRANCH   1   7
BRANCH   6  13
ATOM     13  N   LIG d   1      -2.339  89.280 117.232  0.00  0.00    -0.311 N 
ATOM     14  C   LIG d   1      -1.929  88.151 117.808  0.00  0.00     0.210 C 
ATOM     15  C   LIG d   1      -0.433  88.099 118.133  0.00  0.00     0.109 C 
ATOM     16  O   LIG d   1      -2.655  87.176 118.050  0.00  0.00    -0.276 OA
ATOM     17  H   LIG d   1      -1.677  90.006 117.043  0.00  0.00     0.149 HD
ENDBRANCH   6  13
BRANCH   5  18
ATOM     18  N   LIG d   1      -3.876  87.755 115.077  0.00  0.00     0.381 N 
ATOM     19  H   LIG d   1      -4.603  87.452 114.460  0.00  0.00    -0.090 HD
ATOM     20  H   LIG d   1      -3.951  87.234 115.933  0.00  0.00    -0.090 HD
ATOM     21  H   LIG d   1      -2.987  87.594 114.658  0.00  0.00    -0.090 HD
ENDBRANCH   5  18
BRANCH   3  22
ATOM     22  C   LIG d   1      -6.771  91.548 114.664  0.00  0.00     0.382 C 
ATOM     23  O   LIG d   1      -6.531  92.695 114.216  0.00  0.00    -0.241 OA
ATOM     24  O   LIG d   1      -7.890  91.036 114.473  0.00  0.00    -0.241 OA
ENDBRANCH   3  22
TORSDOF 7
ENDMDL
MODEL 5
REMARK VINA RESULT:      -5.2     11.907     14.174
REMARK  7 active torsions:
REMARK  status: ('A' for Active; 'I' for Inactive)
REMARK    1  A    between atoms: C_2  and  C_3 
REMARK    2  A    between atoms: C_3  and  O_6 
REMARK    3  A    between atoms: C_3  and  C_4 
REMARK    4  A    between atoms: C_7  and  O_6 
REMARK    5  A    between atoms: C_9  and  C_10 
REMARK    6  A    between atoms: N_15  and  C_14 
REMARK    7  A    between atoms: N_20  and  C_19 
REMARK       I    between atoms: C_22  and  N_20 
ROOT
ATOM      1  C   LIG d   1      -4.304  77.262 117.367  0.00  0.00     0.161 C 
ATOM      2  C   LIG d   1      -5.603  77.423 117.876  0.00  0.00     0.016 C 
ATOM      3  C   LIG d   1      -6.752  76.870 117.264  0.00  0.00     0.038 C 
ATOM      4  C   LIG d   1      -6.661  75.987 116.178  0.00  0.00     0.028 C 
ATOM      5  C   LIG d   1      -5.414  76.201 115.326  0.00  0.00    -0.047 C 
ATOM      6  C   LIG d   1      -4.173  76.210 116.247  0.00  0.00     0.091 C 
ENDROOT
BRANCH   1   7
ATOM      7  O   LIG d   1      -3.392  76.965 118.443  0.00  0.00    -0.368 OA
BRANCH   7   8
ATOM      8  C   LIG d   1      -2.402  77.980 118.739  0.00  0.00     0.119 C 
BRANCH   8   9
ATOM      9  C   LIG d   1      -1.043  77.271 118.897  0.00  0.00     0.028 C 
ATOM     10  C   LIG d   1      -1.181  75.872 119.522  0.00  0.00     0.006 C 
ENDBRANCH   8   9
BRANCH   8  11
ATOM     11  C   LIG d   1      -2.672  78.645 120.092  0.00  0.00     0.028 C 
ATOM     12  C   LIG d   1      -3.313  80.035 119.956  0.00  0.00     0.006 C 
ENDBRANCH   8  11
ENDBRANCH   7   8
ENDBRANCH   1   7
BRANCH   6  13
ATOM     13  N   LIG d   1      -2.918  76.498 115.504  0.00  0.00    -0.311 N 
ATOM     14  C   LIG d   1      -1.821  75.749 115.600  0.00  0.00     0.210 C 
ATOM     15  C   LIG d   1      -0.632  76.234 114.765  0.00  0.00     0.109 C 
ATOM     16  O   LIG d   1      -1.730  74.711 116.273  0.00  0.00    -0.276 OA
ATOM     17  H   LIG d   1      -2.915  77.304 114.910  0.00  0.00     0.149 HD
ENDBRANCH   6  13
BRANCH   5  18
ATOM     18  N   LIG d   1      -5.376  75.127 114.314  0.00  0.00     0.381 N 
ATOM     19  H   LIG d   1      -6.250  75.088 113.829  0.00  0.00    -0.090 HD
ATOM     20  H   LIG d   1      -5.234  74.248 114.779  0.00  0.00    -0.090 HD
ATOM     21  H   LIG d   1      -4.636  75.294 113.668  0.00  0.00    -0.090 HD
ENDBRANCH   5  18
BRANCH   3  22
ATOM     22  C   LIG d   1      -8.012  77.232 117.714  0.00  0.00     0.382 C 
ATOM     23  O   LIG d   1      -8.253  78.428 118.009  0.00  0.00    -0.241 OA
ATOM     24  O   LIG d   1      -8.898  76.371 117.872  0.00  0.00    -0.241 OA
ENDBRANCH   3  22
TORSDOF 7
ENDMDL
MODEL 6
REMARK VINA RESULT:      -5.2     11.968     14.086
REMARK  7 active torsions:
REMARK  status: ('A' for Active; 'I' for Inactive)
REMARK    1  A    between atoms: C_2  and  C_3 
REMARK    2  A    between atoms: C_3  and  O_6 
REMARK    3  A    between atoms: C_3  and  C_4 
REMARK    4  A    between atoms: C_7  and  O_6 
REMARK    5  A    between atoms: C_9  and  C_10 
REMARK    6  A    between atoms: N_15  and  C_14 
REMARK    7  A    between atoms: N_20  and  C_19 
REMARK       I    between atoms: C_22  and  N_20 
ROOT
ATOM      1  C   LIG d   1      -4.428  77.471 117.401  0.00  0.00     0.161 C 
ATOM      2  C   LIG d   1      -5.021  76.790 116.325  0.00  0.00     0.016 C 
ATOM      3  C   LIG d   1      -4.374  75.760 115.605  0.00  0.00     0.038 C 
ATOM      4  C   LIG d   1      -3.139  75.233 116.012  0.00  0.00     0.028 C 
ATOM      5  C   LIG d   1      -2.282  76.229 116.785  0.00  0.00    -0.047 C 
ATOM      6  C   LIG d   1      -3.126  76.835 117.930  0.00  0.00     0.091 C 
ENDROOT
BRANCH   1   7
ATOM      7  O   LIG d   1      -5.383  77.620 118.471  0.00  0.00    -0.368 OA
BRANCH   7   8
ATOM      8  C   LIG d   1      -6.751  77.884 118.072  0.00  0.00     0.119 C 
BRANCH   8   9
ATOM      9  C   LIG d   1      -7.159  79.237 118.685  0.00  0.00     0.028 C 
ATOM     10  C   LIG d   1      -8.144  80.012 117.793  0.00  0.00     0.006 C 
ENDBRANCH   8   9
BRANCH   8  11
ATOM     11  C   LIG d   1      -7.715  76.858 118.676  0.00  0.00     0.028 C 
ATOM     12  C   LIG d   1      -8.461  76.042 117.609  0.00  0.00     0.006 C 
ENDBRANCH   8  11
ENDBRANCH   7   8
ENDBRANCH   1   7
BRANCH   6  13
ATOM     13  N   LIG d   1      -2.388  77.882 118.685  0.00  0.00    -0.311 N 
ATOM     14  C   LIG d   1      -1.736  77.644 119.822  0.00  0.00     0.210 C 
ATOM     15  C   LIG d   1      -1.060  78.867 120.448  0.00  0.00     0.109 C 
ATOM     16  O   LIG d   1      -1.627  76.529 120.354  0.00  0.00    -0.276 OA
ATOM     17  H   LIG d   1      -2.399  78.809 118.307  0.00  0.00     0.149 HD
ENDBRANCH   6  13
BRANCH   5  18
ATOM     18  N   LIG d   1      -1.087  75.509 117.266  0.00  0.00     0.381 N 
ATOM     19  H   LIG d   1      -0.683  76.002 118.038  0.00  0.00    -0.090 HD
ATOM     20  H   LIG d   1      -0.409  75.473 116.525  0.00  0.00    -0.090 HD
ATOM     21  H   LIG d   1      -1.335  74.586 117.545  0.00  0.00    -0.090 HD
ENDBRANCH   5  18
BRANCH   3  22
ATOM     22  C   LIG d   1      -4.946  75.272 114.440  0.00  0.00     0.382 C 
ATOM     23  O   LIG d   1      -4.982  75.989 113.411  0.00  0.00    -0.241 OA
ATOM     24  O   LIG d   1      -5.467  74.140 114.417  0.00  0.00    -0.241 OA
ENDBRANCH   3  22
TORSDOF 7
ENDMDL
MODEL 7
REMARK VINA RESULT:      -5.1      2.652      4.657
REMARK  7 active torsions:
REMARK  status: ('A' for Active; 'I' for Inactive)
REMARK    1  A    between atoms: C_2  and  C_3 
REMARK    2  A    between atoms: C_3  and  O_6 
REMARK    3  A    between atoms: C_3  and  C_4 
REMARK    4  A    between atoms: C_7  and  O_6 
REMARK    5  A    between atoms: C_9  and  C_10 
REMARK    6  A    between atoms: N_15  and  C_14 
REMARK    7  A    between atoms: N_20  and  C_19 
REMARK       I    between atoms: C_22  and  N_20 
ROOT
ATOM      1  C   LIG d   1      -4.609  92.290 117.193  0.00  0.00     0.161 C 
ATOM      2  C   LIG d   1      -5.761  91.661 116.691  0.00  0.00     0.016 C 
ATOM      3  C   LIG d   1      -5.807  90.296 116.329  0.00  0.00     0.038 C 
ATOM      4  C   LIG d   1      -4.739  89.424 116.587  0.00  0.00     0.028 C 
ATOM      5  C   LIG d   1      -3.383  90.121 116.626  0.00  0.00    -0.047 C 
ATOM      6  C   LIG d   1      -3.468  91.330 117.586  0.00  0.00     0.091 C 
ENDROOT
BRANCH   1   7
ATOM      7  O   LIG d   1      -4.960  93.134 118.308  0.00  0.00    -0.368 OA
BRANCH   7   8
ATOM      8  C   LIG d   1      -6.305  92.983 118.823  0.00  0.00     0.119 C 
BRANCH   8   9
ATOM      9  C   LIG d   1      -6.876  94.397 119.049  0.00  0.00     0.028 C 
ATOM     10  C   LIG d   1      -7.330  95.063 117.739  0.00  0.00     0.006 C 
ENDBRANCH   8   9
BRANCH   8  11
ATOM     11  C   LIG d   1      -6.302  92.322 120.205  0.00  0.00     0.028 C 
ATOM     12  C   LIG d   1      -7.636  92.490 120.949  0.00  0.00     0.006 C 
ENDBRANCH   8  11
ENDBRANCH   7   8
ENDBRANCH   1   7
BRANCH   6  13
ATOM     13  N   LIG d   1      -2.208  92.118 117.618  0.00  0.00    -0.311 N 
ATOM     14  C   LIG d   1      -1.238  91.914 118.508  0.00  0.00     0.210 C 
ATOM     15  C   LIG d   1      -0.033  92.850 118.376  0.00  0.00     0.109 C 
ATOM     16  O   LIG d   1      -1.247  91.025 119.373  0.00  0.00    -0.276 OA
ATOM     17  H   LIG d   1      -2.104  92.839 116.932  0.00  0.00     0.149 HD
ENDBRANCH   6  13
BRANCH   5  18
ATOM     18  N   LIG d   1      -2.379  89.123 117.039  0.00  0.00     0.381 N 
ATOM     19  H   LIG d   1      -2.604  88.774 117.950  0.00  0.00    -0.090 HD
ATOM     20  H   LIG d   1      -1.479  89.566 117.084  0.00  0.00    -0.090 HD
ATOM     21  H   LIG d   1      -2.356  88.372 116.385  0.00  0.00    -0.090 HD
ENDBRANCH   5  18
BRANCH   3  22
ATOM     22  C   LIG d   1      -6.917  89.798 115.663  0.00  0.00     0.382 C 
ATOM     23  O   LIG d   1      -7.576  90.544 114.899  0.00  0.00    -0.241 OA
ATOM     24  O   LIG d   1      -7.293  88.626 115.852  0.00  0.00    -0.241 OA
ENDBRANCH   3  22
TORSDOF 7
ENDMDL
MODEL 8
REMARK VINA RESULT:      -5.0      2.497      4.487
REMARK  7 active torsions:
REMARK  status: ('A' for Active; 'I' for Inactive)
REMARK    1  A    between atoms: C_2  and  C_3 
REMARK    2  A    between atoms: C_3  and  O_6 
REMARK    3  A    between atoms: C_3  and  C_4 
REMARK    4  A    between atoms: C_7  and  O_6 
REMARK    5  A    between atoms: C_9  and  C_10 
REMARK    6  A    between atoms: N_15  and  C_14 
REMARK    7  A    between atoms: N_20  and  C_19 
REMARK       I    between atoms: C_22  and  N_20 
ROOT
ATOM      1  C   LIG d   1      -3.340  91.491 117.515  0.00  0.00     0.161 C 
ATOM      2  C   LIG d   1      -4.422  92.299 117.128  0.00  0.00     0.016 C 
ATOM      3  C   LIG d   1      -5.450  91.860 116.262  0.00  0.00     0.038 C 
ATOM      4  C   LIG d   1      -5.546  90.525 115.842  0.00  0.00     0.028 C 
ATOM      5  C   LIG d   1      -4.202  89.806 115.798  0.00  0.00    -0.047 C 
ATOM      6  C   LIG d   1      -3.486  89.998 117.155  0.00  0.00     0.091 C 
ENDROOT
BRANCH   1   7
ATOM      7  O   LIG d   1      -3.095  91.644 118.927  0.00  0.00    -0.368 OA
BRANCH   7   8
ATOM      8  C   LIG d   1      -1.913  92.399 119.291  0.00  0.00     0.119 C 
BRANCH   8   9
ATOM      9  C   LIG d   1      -2.381  93.783 119.781  0.00  0.00     0.028 C 
ATOM     10  C   LIG d   1      -2.188  94.879 118.719  0.00  0.00     0.006 C 
ENDBRANCH   8   9
BRANCH   8  11
ATOM     11  C   LIG d   1      -1.032  92.679 118.070  0.00  0.00     0.028 C 
ATOM     12  C   LIG d   1       0.322  91.954 118.134  0.00  0.00     0.006 C 
ENDBRANCH   8  11
ENDBRANCH   7   8
ENDBRANCH   1   7
BRANCH   6  13
ATOM     13  N   LIG d   1      -2.127  89.396 117.169  0.00  0.00    -0.311 N 
ATOM     14  C   LIG d   1      -1.871  88.174 117.633  0.00  0.00     0.210 C 
ATOM     15  C   LIG d   1      -0.398  87.756 117.573  0.00  0.00     0.109 C 
ATOM     16  O   LIG d   1      -2.728  87.386 118.059  0.00  0.00    -0.276 OA
ATOM     17  H   LIG d   1      -1.377  89.956 116.812  0.00  0.00     0.149 HD
ENDBRANCH   6  13
BRANCH   5  18
ATOM     18  N   LIG d   1      -4.464  88.390 115.478  0.00  0.00     0.381 N 
ATOM     19  H   LIG d   1      -5.211  88.325 114.816  0.00  0.00    -0.090 HD
ATOM     20  H   LIG d   1      -4.745  87.913 116.317  0.00  0.00    -0.090 HD
ATOM     21  H   LIG d   1      -3.643  87.967 115.106  0.00  0.00    -0.090 HD
ENDBRANCH   5  18
BRANCH   3  22
ATOM     22  C   LIG d   1      -6.375  92.772 115.776  0.00  0.00     0.382 C 
ATOM     23  O   LIG d   1      -6.628  92.814 114.548  0.00  0.00    -0.241 OA
ATOM     24  O   LIG d   1      -6.926  93.582 116.544  0.00  0.00    -0.241 OA
ENDBRANCH   3  22
TORSDOF 7
ENDMDL
MODEL 9
REMARK VINA RESULT:      -4.9      2.096      3.018
REMARK  7 active torsions:
REMARK  status: ('A' for Active; 'I' for Inactive)
REMARK    1  A    between atoms: C_2  and  C_3 
REMARK    2  A    between atoms: C_3  and  O_6 
REMARK    3  A    between atoms: C_3  and  C_4 
REMARK    4  A    between atoms: C_7  and  O_6 
REMARK    5  A    between atoms: C_9  and  C_10 
REMARK    6  A    between atoms: N_15  and  C_14 
REMARK    7  A    between atoms: N_20  and  C_19 
REMARK       I    between atoms: C_22  and  N_20 
ROOT
ATOM      1  C   LIG d   1      -3.739  90.712 117.601  0.00  0.00     0.161 C 
ATOM      2  C   LIG d   1      -4.405  89.754 116.819  0.00  0.00     0.016 C 
ATOM      3  C   LIG d   1      -5.583  90.029 116.087  0.00  0.00     0.038 C 
ATOM      4  C   LIG d   1      -6.095  91.330 115.967  0.00  0.00     0.028 C 
ATOM      5  C   LIG d   1      -5.745  92.229 117.148  0.00  0.00    -0.047 C 
ATOM      6  C   LIG d   1      -4.220  92.163 117.394  0.00  0.00     0.091 C 
ENDROOT
BRANCH   1   7
ATOM      7  O   LIG d   1      -2.318  90.619 117.383  0.00  0.00    -0.368 OA
BRANCH   7   8
ATOM      8  C   LIG d   1      -1.554  89.966 118.427  0.00  0.00     0.119 C 
BRANCH   8   9
ATOM      9  C   LIG d   1      -0.330  90.852 118.729  0.00  0.00     0.028 C 
ATOM     10  C   LIG d   1      -0.301  91.336 120.189  0.00  0.00     0.006 C 
ENDBRANCH   8   9
BRANCH   8  11
ATOM     11  C   LIG d   1      -0.979  88.631 117.945  0.00  0.00     0.028 C 
ATOM     12  C   LIG d   1      -1.877  87.434 118.297  0.00  0.00     0.006 C 
ENDBRANCH   8  11
ENDBRANCH   7   8
ENDBRANCH   1   7
BRANCH   6  13
ATOM     13  N   LIG d   1      -3.803  92.949 118.585  0.00  0.00    -0.311 N 
ATOM     14  C   LIG d   1      -2.731  93.739 118.603  0.00  0.00     0.210 C 
ATOM     15  C   LIG d   1      -2.470  94.443 119.938  0.00  0.00     0.109 C 
ATOM     16  O   LIG d   1      -1.989  93.948 117.631  0.00  0.00    -0.276 OA
ATOM     17  H   LIG d   1      -4.367  92.863 119.408  0.00  0.00     0.149 HD
ENDBRANCH   6  13
BRANCH   5  18
ATOM     18  N   LIG d   1      -6.220  93.589 116.829  0.00  0.00     0.381 N 
ATOM     19  H   LIG d   1      -7.048  93.790 117.354  0.00  0.00    -0.090 HD
ATOM     20  H   LIG d   1      -6.449  93.632 115.851  0.00  0.00    -0.090 HD
ATOM     21  H   LIG d   1      -5.513  94.257 117.042  0.00  0.00    -0.090 HD
ENDBRANCH   5  18
BRANCH   3  22
ATOM     22  C   LIG d   1      -6.285  88.988 115.498  0.00  0.00     0.382 C 
ATOM     23  O   LIG d   1      -5.948  88.566 114.366  0.00  0.00    -0.241 OA
ATOM     24  O   LIG d   1      -7.279  88.496 116.065  0.00  0.00    -0.241 OA
ENDBRANCH   3  22
TORSDOF 7
ENDMDL
