MODEL 1
REMARK VINA RESULT:      -6.3      0.000      0.000
REMARK  7 active torsions:
REMARK  status: ('A' for Active; 'I' for Inactive)
REMARK    1  A    between atoms: C_2  and  C_3 
REMARK    2  A    between atoms: C_3  and  O_6 
REMARK    3  A    between atoms: C_3  and  C_4 
REMARK    4  A    between atoms: C_7  and  O_6 
REMARK    5  A    between atoms: C_9  and  C_10 
REMARK    6  A    between atoms: N_15  and  C_14 
REMARK    7  A    between atoms: N_20  and  C_19 
REMARK       I    between atoms: C_22  and  N_20 
ROOT
ATOM      1  C   LIG d   1       1.358  83.793 109.974  0.00  0.00     0.161 C 
ATOM      2  C   LIG d   1       1.206  85.131 110.377  0.00  0.00     0.016 C 
ATOM      3  C   LIG d   1       0.220  85.560 111.294  0.00  0.00     0.038 C 
ATOM      4  C   LIG d   1      -0.590  84.651 111.991  0.00  0.00     0.028 C 
ATOM      5  C   LIG d   1      -0.813  83.341 111.243  0.00  0.00    -0.047 C 
ATOM      6  C   LIG d   1       0.557  82.772 110.808  0.00  0.00     0.091 C 
ENDROOT
BRANCH   1   7
ATOM      7  O   LIG d   1       2.756  83.443 109.961  0.00  0.00    -0.368 OA
BRANCH   7   8
ATOM      8  C   LIG d   1       3.271  82.831 111.170  0.00  0.00     0.119 C 
BRANCH   8   9
ATOM      9  C   LIG d   1       4.384  83.748 111.715  0.00  0.00     0.028 C 
ATOM     10  C   LIG d   1       3.865  84.733 112.775  0.00  0.00     0.006 C 
ENDBRANCH   8   9
BRANCH   8  11
ATOM     11  C   LIG d   1       3.957  81.495 110.869  0.00  0.00     0.028 C 
ATOM     12  C   LIG d   1       5.228  81.656 110.021  0.00  0.00     0.006 C 
ENDBRANCH   8  11
ENDBRANCH   7   8
ENDBRANCH   1   7
BRANCH   6  13
ATOM     13  N   LIG d   1       0.425  81.534 109.996  0.00  0.00    -0.311 N 
ATOM     14  C   LIG d   1       0.362  80.313 110.526  0.00  0.00     0.210 C 
ATOM     15  C   LIG d   1       0.247  79.173 109.510  0.00  0.00     0.109 C 
ATOM     16  O   LIG d   1       0.359  80.069 111.742  0.00  0.00    -0.276 OA
ATOM     17  H   LIG d   1       0.389  81.642 109.002  0.00  0.00     0.149 HD
ENDBRANCH   6  13
BRANCH   5  18
ATOM     18  N   LIG d   1      -1.556  82.436 112.140  0.00  0.00     0.381 N 
ATOM     19  H   LIG d   1      -0.922  81.987 112.770  0.00  0.00    -0.090 HD
ATOM     20  H   LIG d   1      -2.006  81.727 111.587  0.00  0.00    -0.090 HD
ATOM     21  H   LIG d   1      -2.238  82.950 112.653  0.00  0.00    -0.090 HD
ENDBRANCH   5  18
BRANCH   3  22
ATOM     22  C   LIG d   1       0.009  86.916 111.492  0.00  0.00     0.382 C 
ATOM     23  O   LIG d   1      -1.122  87.413 111.273  0.00  0.00    -0.241 OA
ATOM     24  O   LIG d   1       0.947  87.656 111.845  0.00  0.00    -0.241 OA
ENDBRANCH   3  22
TORSDOF 7
ENDMDL
MODEL 2
REMARK VINA RESULT:      -5.9      3.419      5.129
REMARK  7 active torsions:
REMARK  status: ('A' for Active; 'I' for Inactive)
REMARK    1  A    between atoms: C_2  and  C_3 
REMARK    2  A    between atoms: C_3  and  O_6 
REMARK    3  A    between atoms: C_3  and  C_4 
REMARK    4  A    between atoms: C_7  and  O_6 
REMARK    5  A    between atoms: C_9  and  C_10 
REMARK    6  A    between atoms: N_15  and  C_14 
REMARK    7  A    between atoms: N_20  and  C_19 
REMARK       I    between atoms: C_22  and  N_20 
ROOT
ATOM      1  C   LIG d   1       3.443  86.130 111.865  0.00  0.00     0.161 C 
ATOM      2  C   LIG d   1       3.582  87.524 111.969  0.00  0.00     0.016 C 
ATOM      3  C   LIG d   1       4.380  88.155 112.951  0.00  0.00     0.038 C 
ATOM      4  C   LIG d   1       5.218  87.425 113.807  0.00  0.00     0.028 C 
ATOM      5  C   LIG d   1       4.726  86.006 114.071  0.00  0.00    -0.047 C 
ATOM      6  C   LIG d   1       4.438  85.315 112.719  0.00  0.00     0.091 C 
ENDROOT
BRANCH   1   7
ATOM      7  O   LIG d   1       3.528  85.733 110.482  0.00  0.00    -0.368 OA
BRANCH   7   8
ATOM      8  C   LIG d   1       2.283  85.339 109.854  0.00  0.00     0.119 C 
BRANCH   8   9
ATOM      9  C   LIG d   1       1.178  85.425 110.924  0.00  0.00     0.028 C 
ATOM     10  C   LIG d   1      -0.174  85.866 110.338  0.00  0.00     0.006 C 
ENDBRANCH   8   9
BRANCH   8  11
ATOM     11  C   LIG d   1       2.317  83.869 109.423  0.00  0.00     0.028 C 
ATOM     12  C   LIG d   1       3.745  83.315 109.309  0.00  0.00     0.006 C 
ENDBRANCH   8  11
ENDBRANCH   7   8
ENDBRANCH   1   7
BRANCH   6  13
ATOM     13  N   LIG d   1       3.872  83.951 112.888  0.00  0.00    -0.311 N 
ATOM     14  C   LIG d   1       4.609  82.842 112.851  0.00  0.00     0.210 C 
ATOM     15  C   LIG d   1       3.825  81.538 113.028  0.00  0.00     0.109 C 
ATOM     16  O   LIG d   1       5.842  82.817 112.720  0.00  0.00    -0.276 OA
ATOM     17  H   LIG d   1       2.884  83.881 113.030  0.00  0.00     0.149 HD
ENDBRANCH   6  13
BRANCH   5  18
ATOM     18  N   LIG d   1       5.762  85.316 114.863  0.00  0.00     0.381 N 
ATOM     19  H   LIG d   1       5.698  85.596 115.821  0.00  0.00    -0.090 HD
ATOM     20  H   LIG d   1       6.667  85.581 114.516  0.00  0.00    -0.090 HD
ATOM     21  H   LIG d   1       5.646  84.329 114.790  0.00  0.00    -0.090 HD
ENDBRANCH   5  18
BRANCH   3  22
ATOM     22  C   LIG d   1       4.313  89.531 113.111  0.00  0.00     0.382 C 
ATOM     23  O   LIG d   1       5.238  90.258 112.676  0.00  0.00    -0.241 OA
ATOM     24  O   LIG d   1       3.360  90.050 113.723  0.00  0.00    -0.241 OA
ENDBRANCH   3  22
TORSDOF 7
ENDMDL
MODEL 3
REMARK VINA RESULT:      -5.9      1.960      3.131
REMARK  7 active torsions:
REMARK  status: ('A' for Active; 'I' for Inactive)
REMARK    1  A    between atoms: C_2  and  C_3 
REMARK    2  A    between atoms: C_3  and  O_6 
REMARK    3  A    between atoms: C_3  and  C_4 
REMARK    4  A    between atoms: C_7  and  O_6 
REMARK    5  A    between atoms: C_9  and  C_10 
REMARK    6  A    between atoms: N_15  and  C_14 
REMARK    7  A    between atoms: N_20  and  C_19 
REMARK       I    between atoms: C_22  and  N_20 
ROOT
ATOM      1  C   LIG d   1       2.718  84.599 110.275  0.00  0.00     0.161 C 
ATOM      2  C   LIG d   1       1.657  85.499 110.474  0.00  0.00     0.016 C 
ATOM      3  C   LIG d   1       0.400  85.117 110.995  0.00  0.00     0.038 C 
ATOM      4  C   LIG d   1       0.165  83.828 111.497  0.00  0.00     0.028 C 
ATOM      5  C   LIG d   1       1.041  82.759 110.852  0.00  0.00    -0.047 C 
ATOM      6  C   LIG d   1       2.518  83.212 110.920  0.00  0.00     0.091 C 
ENDROOT
BRANCH   1   7
ATOM      7  O   LIG d   1       3.951  85.190 110.730  0.00  0.00    -0.368 OA
BRANCH   7   8
ATOM      8  C   LIG d   1       3.950  85.707 112.083  0.00  0.00     0.119 C 
BRANCH   8   9
ATOM      9  C   LIG d   1       4.499  87.146 112.029  0.00  0.00     0.028 C 
ATOM     10  C   LIG d   1       3.420  88.197 112.342  0.00  0.00     0.006 C 
ENDBRANCH   8   9
BRANCH   8  11
ATOM     11  C   LIG d   1       4.926  84.935 112.976  0.00  0.00     0.028 C 
ATOM     12  C   LIG d   1       5.336  85.722 114.230  0.00  0.00     0.006 C 
ENDBRANCH   8  11
ENDBRANCH   7   8
ENDBRANCH   1   7
BRANCH   6  13
ATOM     13  N   LIG d   1       3.434  82.262 110.237  0.00  0.00    -0.311 N 
ATOM     14  C   LIG d   1       4.347  81.535 110.878  0.00  0.00     0.210 C 
ATOM     15  C   LIG d   1       5.202  80.634 109.981  0.00  0.00     0.109 C 
ATOM     16  O   LIG d   1       4.509  81.526 112.108  0.00  0.00    -0.276 OA
ATOM     17  H   LIG d   1       3.350  82.183 109.242  0.00  0.00     0.149 HD
ENDBRANCH   6  13
BRANCH   5  18
ATOM     18  N   LIG d   1       0.792  81.491 111.563  0.00  0.00     0.381 N 
ATOM     19  H   LIG d   1      -0.190  81.302 111.586  0.00  0.00    -0.090 HD
ATOM     20  H   LIG d   1       1.118  81.579 112.510  0.00  0.00    -0.090 HD
ATOM     21  H   LIG d   1       1.271  80.745 111.108  0.00  0.00    -0.090 HD
ENDBRANCH   5  18
BRANCH   3  22
ATOM     22  C   LIG d   1      -0.653  86.019 110.980  0.00  0.00     0.382 C 
ATOM     23  O   LIG d   1      -1.141  86.431 112.061  0.00  0.00    -0.241 OA
ATOM     24  O   LIG d   1      -1.150  86.393 109.901  0.00  0.00    -0.241 OA
ENDBRANCH   3  22
TORSDOF 7
ENDMDL
MODEL 4
REMARK VINA RESULT:      -5.9      3.430      5.288
REMARK  7 active torsions:
REMARK  status: ('A' for Active; 'I' for Inactive)
REMARK    1  A    between atoms: C_2  and  C_3 
REMARK    2  A    between atoms: C_3  and  O_6 
REMARK    3  A    between atoms: C_3  and  C_4 
REMARK    4  A    between atoms: C_7  and  O_6 
REMARK    5  A    between atoms: C_9  and  C_10 
REMARK    6  A    between atoms: N_15  and  C_14 
REMARK    7  A    between atoms: N_20  and  C_19 
REMARK       I    between atoms: C_22  and  N_20 
ROOT
ATOM      1  C   LIG d   1       3.115  86.121 112.147  0.00  0.00     0.161 C 
ATOM      2  C   LIG d   1       3.149  87.520 112.273  0.00  0.00     0.016 C 
ATOM      3  C   LIG d   1       3.995  88.199 113.180  0.00  0.00     0.038 C 
ATOM      4  C   LIG d   1       4.980  87.528 113.919  0.00  0.00     0.028 C 
ATOM      5  C   LIG d   1       4.640  86.067 114.196  0.00  0.00    -0.047 C 
ATOM      6  C   LIG d   1       4.261  85.379 112.865  0.00  0.00     0.091 C 
ENDROOT
BRANCH   1   7
ATOM      7  O   LIG d   1       3.079  85.758 110.752  0.00  0.00    -0.368 OA
BRANCH   7   8
ATOM      8  C   LIG d   1       2.008  84.868 110.353  0.00  0.00     0.119 C 
BRANCH   8   9
ATOM      9  C   LIG d   1       2.625  83.769 109.467  0.00  0.00     0.028 C 
ATOM     10  C   LIG d   1       4.162  83.777 109.507  0.00  0.00     0.006 C 
ENDBRANCH   8   9
BRANCH   8  11
ATOM     11  C   LIG d   1       0.991  85.586 109.460  0.00  0.00     0.028 C 
ATOM     12  C   LIG d   1      -0.317  85.918 110.195  0.00  0.00     0.006 C 
ENDBRANCH   8  11
ENDBRANCH   7   8
ENDBRANCH   1   7
BRANCH   6  13
ATOM     13  N   LIG d   1       3.833  83.969 113.058  0.00  0.00    -0.311 N 
ATOM     14  C   LIG d   1       4.663  82.932 112.968  0.00  0.00     0.210 C 
ATOM     15  C   LIG d   1       4.012  81.562 113.182  0.00  0.00     0.109 C 
ATOM     16  O   LIG d   1       5.883  83.018 112.764  0.00  0.00    -0.276 OA
ATOM     17  H   LIG d   1       2.865  83.810 113.258  0.00  0.00     0.149 HD
ENDBRANCH   6  13
BRANCH   5  18
ATOM     18  N   LIG d   1       5.810  85.454 114.852  0.00  0.00     0.381 N 
ATOM     19  H   LIG d   1       6.418  86.169 115.197  0.00  0.00    -0.090 HD
ATOM     20  H   LIG d   1       6.314  84.910 114.175  0.00  0.00    -0.090 HD
ATOM     21  H   LIG d   1       5.512  84.870 115.603  0.00  0.00    -0.090 HD
ENDBRANCH   5  18
BRANCH   3  22
ATOM     22  C   LIG d   1       3.833  89.561 113.383  0.00  0.00     0.382 C 
ATOM     23  O   LIG d   1       4.432  90.381 112.646  0.00  0.00    -0.241 OA
ATOM     24  O   LIG d   1       3.130  89.980 114.322  0.00  0.00    -0.241 OA
ENDBRANCH   3  22
TORSDOF 7
ENDMDL
MODEL 5
REMARK VINA RESULT:      -5.8      2.741      4.963
REMARK  7 active torsions:
REMARK  status: ('A' for Active; 'I' for Inactive)
REMARK    1  A    between atoms: C_2  and  C_3 
REMARK    2  A    between atoms: C_3  and  O_6 
REMARK    3  A    between atoms: C_3  and  C_4 
REMARK    4  A    between atoms: C_7  and  O_6 
REMARK    5  A    between atoms: C_9  and  C_10 
REMARK    6  A    between atoms: N_15  and  C_14 
REMARK    7  A    between atoms: N_20  and  C_19 
REMARK       I    between atoms: C_22  and  N_20 
ROOT
ATOM      1  C   LIG d   1       2.043  84.679 112.796  0.00  0.00     0.161 C 
ATOM      2  C   LIG d   1       1.275  83.521 112.594  0.00  0.00     0.016 C 
ATOM      3  C   LIG d   1       0.042  83.516 111.901  0.00  0.00     0.038 C 
ATOM      4  C   LIG d   1      -0.435  84.650 111.229  0.00  0.00     0.028 C 
ATOM      5  C   LIG d   1       0.055  85.962 111.831  0.00  0.00    -0.047 C 
ATOM      6  C   LIG d   1       1.593  85.905 111.974  0.00  0.00     0.091 C 
ENDROOT
BRANCH   1   7
ATOM      7  O   LIG d   1       3.434  84.392 112.548  0.00  0.00    -0.368 OA
BRANCH   7   8
ATOM      8  C   LIG d   1       3.707  83.252 111.697  0.00  0.00     0.119 C 
BRANCH   8   9
ATOM      9  C   LIG d   1       5.019  82.611 112.190  0.00  0.00     0.028 C 
ATOM     10  C   LIG d   1       4.781  81.542 113.270  0.00  0.00     0.006 C 
ENDBRANCH   8   9
BRANCH   8  11
ATOM     11  C   LIG d   1       3.985  83.687 110.255  0.00  0.00     0.028 C 
ATOM     12  C   LIG d   1       2.814  83.387 109.306  0.00  0.00     0.006 C 
ENDBRANCH   8  11
ENDBRANCH   7   8
ENDBRANCH   1   7
BRANCH   6  13
ATOM     13  N   LIG d   1       2.147  87.116 112.633  0.00  0.00    -0.311 N 
ATOM     14  C   LIG d   1       3.237  87.751 112.204  0.00  0.00     0.210 C 
ATOM     15  C   LIG d   1       3.648  88.967 113.041  0.00  0.00     0.109 C 
ATOM     16  O   LIG d   1       3.883  87.442 111.192  0.00  0.00    -0.276 OA
ATOM     17  H   LIG d   1       1.666  87.455 113.444  0.00  0.00     0.149 HD
ENDBRANCH   6  13
BRANCH   5  18
ATOM     18  N   LIG d   1      -0.404  87.055 110.953  0.00  0.00     0.381 N 
ATOM     19  H   LIG d   1      -0.821  86.674 110.127  0.00  0.00    -0.090 HD
ATOM     20  H   LIG d   1       0.390  87.607 110.678  0.00  0.00    -0.090 HD
ATOM     21  H   LIG d   1      -1.063  87.626 111.434  0.00  0.00    -0.090 HD
ENDBRANCH   5  18
BRANCH   3  22
ATOM     22  C   LIG d   1      -0.747  82.375 111.911  0.00  0.00     0.382 C 
ATOM     23  O   LIG d   1      -0.287  81.291 111.480  0.00  0.00    -0.241 OA
ATOM     24  O   LIG d   1      -1.928  82.427 112.304  0.00  0.00    -0.241 OA
ENDBRANCH   3  22
TORSDOF 7
ENDMDL
MODEL 6
REMARK VINA RESULT:      -5.8      2.191      2.969
REMARK  7 active torsions:
REMARK  status: ('A' for Active; 'I' for Inactive)
REMARK    1  A    between atoms: C_2  and  C_3 
REMARK    2  A    between atoms: C_3  and  O_6 
REMARK    3  A    between atoms: C_3  and  C_4 
REMARK    4  A    between atoms: C_7  and  O_6 
REMARK    5  A    between atoms: C_9  and  C_10 
REMARK    6  A    between atoms: N_15  and  C_14 
REMARK    7  A    between atoms: N_20  and  C_19 
REMARK       I    between atoms: C_22  and  N_20 
ROOT
ATOM      1  C   LIG d   1       3.246  84.481 111.355  0.00  0.00     0.161 C 
ATOM      2  C   LIG d   1       3.630  85.737 111.853  0.00  0.00     0.016 C 
ATOM      3  C   LIG d   1       2.811  86.887 111.779  0.00  0.00     0.038 C 
ATOM      4  C   LIG d   1       1.482  86.823 111.335  0.00  0.00     0.028 C 
ATOM      5  C   LIG d   1       1.224  85.683 110.356  0.00  0.00    -0.047 C 
ATOM      6  C   LIG d   1       1.756  84.367 110.968  0.00  0.00     0.091 C 
ENDROOT
BRANCH   1   7
ATOM      7  O   LIG d   1       3.597  83.452 112.301  0.00  0.00    -0.368 OA
BRANCH   7   8
ATOM      8  C   LIG d   1       4.805  82.705 112.011  0.00  0.00     0.119 C 
BRANCH   8   9
ATOM      9  C   LIG d   1       4.915  82.581 110.479  0.00  0.00     0.028 C 
ATOM     10  C   LIG d   1       5.077  81.122 110.019  0.00  0.00     0.006 C 
ENDBRANCH   8   9
BRANCH   8  11
ATOM     11  C   LIG d   1       4.708  81.267 112.529  0.00  0.00     0.028 C 
ATOM     12  C   LIG d   1       5.071  81.144 114.018  0.00  0.00     0.006 C 
ENDBRANCH   8  11
ENDBRANCH   7   8
ENDBRANCH   1   7
BRANCH   6  13
ATOM     13  N   LIG d   1       1.620  83.214 110.039  0.00  0.00    -0.311 N 
ATOM     14  C   LIG d   1       1.187  82.014 110.420  0.00  0.00     0.210 C 
ATOM     15  C   LIG d   1       1.141  80.961 109.308  0.00  0.00     0.109 C 
ATOM     16  O   LIG d   1       0.805  81.730 111.565  0.00  0.00    -0.276 OA
ATOM     17  H   LIG d   1       1.879  83.365 109.084  0.00  0.00     0.149 HD
ENDBRANCH   6  13
BRANCH   5  18
ATOM     18  N   LIG d   1      -0.225  85.649 110.082  0.00  0.00     0.381 N 
ATOM     19  H   LIG d   1      -0.382  85.523 109.102  0.00  0.00    -0.090 HD
ATOM     20  H   LIG d   1      -0.628  86.527 110.356  0.00  0.00    -0.090 HD
ATOM     21  H   LIG d   1      -0.651  84.906 110.593  0.00  0.00    -0.090 HD
ENDBRANCH   5  18
BRANCH   3  22
ATOM     22  C   LIG d   1       3.334  88.126 112.115  0.00  0.00     0.382 C 
ATOM     23  O   LIG d   1       2.577  89.123 112.206  0.00  0.00    -0.241 OA
ATOM     24  O   LIG d   1       4.560  88.269 112.286  0.00  0.00    -0.241 OA
ENDBRANCH   3  22
TORSDOF 7
ENDMDL
MODEL 7
REMARK VINA RESULT:      -5.6      2.302      3.514
REMARK  7 active torsions:
REMARK  status: ('A' for Active; 'I' for Inactive)
REMARK    1  A    between atoms: C_2  and  C_3 
REMARK    2  A    between atoms: C_3  and  O_6 
REMARK    3  A    between atoms: C_3  and  C_4 
REMARK    4  A    between atoms: C_7  and  O_6 
REMARK    5  A    between atoms: C_9  and  C_10 
REMARK    6  A    between atoms: N_15  and  C_14 
REMARK    7  A    between atoms: N_20  and  C_19 
REMARK       I    between atoms: C_22  and  N_20 
ROOT
ATOM      1  C   LIG d   1       2.174  83.714 111.209  0.00  0.00     0.161 C 
ATOM      2  C   LIG d   1       1.215  84.605 110.699  0.00  0.00     0.016 C 
ATOM      3  C   LIG d   1       0.512  85.534 111.501  0.00  0.00     0.038 C 
ATOM      4  C   LIG d   1       0.832  85.740 112.851  0.00  0.00     0.028 C 
ATOM      5  C   LIG d   1       1.441  84.514 113.523  0.00  0.00    -0.047 C 
ATOM      6  C   LIG d   1       2.616  84.000 112.660  0.00  0.00     0.091 C 
ENDROOT
BRANCH   1   7
ATOM      7  O   LIG d   1       3.319  83.675 110.335  0.00  0.00    -0.368 OA
BRANCH   7   8
ATOM      8  C   LIG d   1       3.417  82.522 109.464  0.00  0.00     0.119 C 
BRANCH   8   9
ATOM      9  C   LIG d   1       2.691  81.353 110.159  0.00  0.00     0.028 C 
ATOM     10  C   LIG d   1       1.545  80.784 109.306  0.00  0.00     0.006 C 
ENDBRANCH   8   9
BRANCH   8  11
ATOM     11  C   LIG d   1       4.870  82.062 109.310  0.00  0.00     0.028 C 
ATOM     12  C   LIG d   1       5.154  80.733 110.028  0.00  0.00     0.006 C 
ENDBRANCH   8  11
ENDBRANCH   7   8
ENDBRANCH   1   7
BRANCH   6  13
ATOM     13  N   LIG d   1       3.214  82.752 113.202  0.00  0.00    -0.311 N 
ATOM     14  C   LIG d   1       4.528  82.545 113.286  0.00  0.00     0.210 C 
ATOM     15  C   LIG d   1       4.932  81.183 113.857  0.00  0.00     0.109 C 
ATOM     16  O   LIG d   1       5.396  83.373 112.971  0.00  0.00    -0.276 OA
ATOM     17  H   LIG d   1       2.582  82.039 113.510  0.00  0.00     0.149 HD
ENDBRANCH   6  13
BRANCH   5  18
ATOM     18  N   LIG d   1       1.852  84.909 114.883  0.00  0.00     0.381 N 
ATOM     19  H   LIG d   1       1.459  84.278 115.553  0.00  0.00    -0.090 HD
ATOM     20  H   LIG d   1       1.501  85.831 115.074  0.00  0.00    -0.090 HD
ATOM     21  H   LIG d   1       2.846  84.904 114.954  0.00  0.00    -0.090 HD
ENDBRANCH   5  18
BRANCH   3  22
ATOM     22  C   LIG d   1      -0.551  86.241 110.960  0.00  0.00     0.382 C 
ATOM     23  O   LIG d   1      -0.863  86.081 109.756  0.00  0.00    -0.241 OA
ATOM     24  O   LIG d   1      -1.174  87.070 111.650  0.00  0.00    -0.241 OA
ENDBRANCH   3  22
TORSDOF 7
ENDMDL
MODEL 8
REMARK VINA RESULT:      -5.5      3.370      4.380
REMARK  7 active torsions:
REMARK  status: ('A' for Active; 'I' for Inactive)
REMARK    1  A    between atoms: C_2  and  C_3 
REMARK    2  A    between atoms: C_3  and  O_6 
REMARK    3  A    between atoms: C_3  and  C_4 
REMARK    4  A    between atoms: C_7  and  O_6 
REMARK    5  A    between atoms: C_9  and  C_10 
REMARK    6  A    between atoms: N_15  and  C_14 
REMARK    7  A    between atoms: N_20  and  C_19 
REMARK       I    between atoms: C_22  and  N_20 
ROOT
ATOM      1  C   LIG d   1       4.729  85.965 112.459  0.00  0.00     0.161 C 
ATOM      2  C   LIG d   1       4.649  87.218 113.090  0.00  0.00     0.016 C 
ATOM      3  C   LIG d   1       3.628  88.159 112.824  0.00  0.00     0.038 C 
ATOM      4  C   LIG d   1       2.525  87.847 112.015  0.00  0.00     0.028 C 
ATOM      5  C   LIG d   1       2.826  86.784 110.964  0.00  0.00    -0.047 C 
ATOM      6  C   LIG d   1       3.474  85.564 111.656  0.00  0.00     0.091 C 
ENDROOT
BRANCH   1   7
ATOM      7  O   LIG d   1       5.050  84.949 113.429  0.00  0.00    -0.368 OA
BRANCH   7   8
ATOM      8  C   LIG d   1       3.949  84.114 113.865  0.00  0.00     0.119 C 
BRANCH   8   9
ATOM      9  C   LIG d   1       3.486  84.637 115.238  0.00  0.00     0.028 C 
ATOM     10  C   LIG d   1       2.138  85.374 115.161  0.00  0.00     0.006 C 
ENDBRANCH   8   9
BRANCH   8  11
ATOM     11  C   LIG d   1       4.406  82.673 114.113  0.00  0.00     0.028 C 
ATOM     12  C   LIG d   1       5.091  82.047 112.888  0.00  0.00     0.006 C 
ENDBRANCH   8  11
ENDBRANCH   7   8
ENDBRANCH   1   7
BRANCH   6  13
ATOM     13  N   LIG d   1       3.877  84.511 110.687  0.00  0.00    -0.311 N 
ATOM     14  C   LIG d   1       3.069  83.528 110.295  0.00  0.00     0.210 C 
ATOM     15  C   LIG d   1       3.690  82.536 109.306  0.00  0.00     0.109 C 
ATOM     16  O   LIG d   1       1.887  83.400 110.648  0.00  0.00    -0.276 OA
ATOM     17  H   LIG d   1       4.810  84.556 110.327  0.00  0.00     0.149 HD
ENDBRANCH   6  13
BRANCH   5  18
ATOM     18  N   LIG d   1       1.558  86.458 110.284  0.00  0.00     0.381 N 
ATOM     19  H   LIG d   1       0.821  86.387 110.958  0.00  0.00    -0.090 HD
ATOM     20  H   LIG d   1       1.653  85.568 109.827  0.00  0.00    -0.090 HD
ATOM     21  H   LIG d   1       1.339  87.162 109.614  0.00  0.00    -0.090 HD
ENDBRANCH   5  18
BRANCH   3  22
ATOM     22  C   LIG d   1       3.724  89.442 113.340  0.00  0.00     0.382 C 
ATOM     23  O   LIG d   1       3.103  89.746 114.387  0.00  0.00    -0.241 OA
ATOM     24  O   LIG d   1       4.390  90.313 112.748  0.00  0.00    -0.241 OA
ENDBRANCH   3  22
TORSDOF 7
ENDMDL
MODEL 9
REMARK VINA RESULT:      -5.2      7.478      9.931
REMARK  7 active torsions:
REMARK  status: ('A' for Active; 'I' for Inactive)
REMARK    1  A    between atoms: C_2  and  C_3 
REMARK    2  A    between atoms: C_3  and  O_6 
REMARK    3  A    between atoms: C_3  and  C_4 
REMARK    4  A    between atoms: C_7  and  O_6 
REMARK    5  A    between atoms: C_9  and  C_10 
REMARK    6  A    between atoms: N_15  and  C_14 
REMARK    7  A    between atoms: N_20  and  C_19 
REMARK       I    between atoms: C_22  and  N_20 
ROOT
ATOM      1  C   LIG d   1      -3.349  77.558 115.845  0.00  0.00     0.161 C 
ATOM      2  C   LIG d   1      -3.493  78.356 114.698  0.00  0.00     0.016 C 
ATOM      3  C   LIG d   1      -2.401  78.936 114.012  0.00  0.00     0.038 C 
ATOM      4  C   LIG d   1      -1.072  78.631 114.342  0.00  0.00     0.028 C 
ATOM      5  C   LIG d   1      -0.886  78.234 115.802  0.00  0.00    -0.047 C 
ATOM      6  C   LIG d   1      -1.901  77.123 116.154  0.00  0.00     0.091 C 
ENDROOT
BRANCH   1   7
ATOM      7  O   LIG d   1      -4.209  76.405 115.749  0.00  0.00    -0.368 OA
BRANCH   7   8
ATOM      8  C   LIG d   1      -5.625  76.649 115.933  0.00  0.00     0.119 C 
BRANCH   8   9
ATOM      9  C   LIG d   1      -5.939  76.448 117.428  0.00  0.00     0.028 C 
ATOM     10  C   LIG d   1      -6.737  77.620 118.023  0.00  0.00     0.006 C 
ENDBRANCH   8   9
BRANCH   8  11
ATOM     11  C   LIG d   1      -6.471  75.605 115.197  0.00  0.00     0.028 C 
ATOM     12  C   LIG d   1      -5.810  75.109 113.901  0.00  0.00     0.006 C 
ENDBRANCH   8  11
ENDBRANCH   7   8
ENDBRANCH   1   7
BRANCH   6  13
ATOM     13  N   LIG d   1      -1.844  76.735 117.587  0.00  0.00    -0.311 N 
ATOM     14  C   LIG d   1      -1.867  75.471 118.006  0.00  0.00     0.210 C 
ATOM     15  C   LIG d   1      -1.819  75.293 119.527  0.00  0.00     0.109 C 
ATOM     16  O   LIG d   1      -1.891  74.480 117.262  0.00  0.00    -0.276 OA
ATOM     17  H   LIG d   1      -1.792  77.476 118.258  0.00  0.00     0.149 HD
ENDBRANCH   6  13
BRANCH   5  18
ATOM     18  N   LIG d   1       0.517  77.810 115.973  0.00  0.00     0.381 N 
ATOM     19  H   LIG d   1       0.614  76.849 115.715  0.00  0.00    -0.090 HD
ATOM     20  H   LIG d   1       0.769  77.903 116.942  0.00  0.00    -0.090 HD
ATOM     21  H   LIG d   1       1.115  78.375 115.411  0.00  0.00    -0.090 HD
ENDBRANCH   5  18
BRANCH   3  22
ATOM     22  C   LIG d   1      -2.634  79.864 113.009  0.00  0.00     0.382 C 
ATOM     23  O   LIG d   1      -3.442  80.805 113.201  0.00  0.00    -0.241 OA
ATOM     24  O   LIG d   1      -2.081  79.747 111.899  0.00  0.00    -0.241 OA
ENDBRANCH   3  22
TORSDOF 7
ENDMDL
