MODEL 1
REMARK VINA RESULT:      -6.8      0.000      0.000
REMARK  7 active torsions:
REMARK  status: ('A' for Active; 'I' for Inactive)
REMARK    1  A    between atoms: C_2  and  C_3 
REMARK    2  A    between atoms: C_3  and  O_6 
REMARK    3  A    between atoms: C_3  and  C_4 
REMARK    4  A    between atoms: C_7  and  O_6 
REMARK    5  A    between atoms: C_9  and  C_10 
REMARK    6  A    between atoms: N_15  and  C_14 
REMARK    7  A    between atoms: N_20  and  C_19 
REMARK       I    between atoms: C_22  and  N_20 
ROOT
ATOM      1  C   LIG d   1       0.474  82.645 111.651  0.00  0.00     0.161 C 
ATOM      2  C   LIG d   1      -0.727  82.317 112.303  0.00  0.00     0.016 C 
ATOM      3  C   LIG d   1      -1.403  81.090 112.115  0.00  0.00     0.038 C 
ATOM      4  C   LIG d   1      -0.842  80.039 111.374  0.00  0.00     0.028 C 
ATOM      5  C   LIG d   1       0.124  80.510 110.292  0.00  0.00    -0.047 C 
ATOM      6  C   LIG d   1       1.158  81.468 110.925  0.00  0.00     0.091 C 
ENDROOT
BRANCH   1   7
ATOM      7  O   LIG d   1       1.386  83.255 112.586  0.00  0.00    -0.368 OA
BRANCH   7   8
ATOM      8  C   LIG d   1       1.566  84.687 112.458  0.00  0.00     0.119 C 
BRANCH   8   9
ATOM      9  C   LIG d   1       0.823  85.135 111.185  0.00  0.00     0.028 C 
ATOM     10  C   LIG d   1      -0.292  86.151 111.482  0.00  0.00     0.006 C 
ENDBRANCH   8   9
BRANCH   8  11
ATOM     11  C   LIG d   1       3.036  85.045 112.218  0.00  0.00     0.028 C 
ATOM     12  C   LIG d   1       3.271  85.711 110.853  0.00  0.00     0.006 C 
ENDBRANCH   8  11
ENDBRANCH   7   8
ENDBRANCH   1   7
BRANCH   6  13
ATOM     13  N   LIG d   1       2.090  82.041 109.919  0.00  0.00    -0.311 N 
ATOM     14  C   LIG d   1       3.414  82.048 110.066  0.00  0.00     0.210 C 
ATOM     15  C   LIG d   1       4.188  82.706 108.919  0.00  0.00     0.109 C 
ATOM     16  O   LIG d   1       4.022  81.542 111.021  0.00  0.00    -0.276 OA
ATOM     17  H   LIG d   1       1.683  82.445 109.098  0.00  0.00     0.149 HD
ENDBRANCH   6  13
BRANCH   5  18
ATOM     18  N   LIG d   1       0.738  79.312 109.690  0.00  0.00     0.381 N 
ATOM     19  H   LIG d   1       1.674  79.206 110.026  0.00  0.00    -0.090 HD
ATOM     20  H   LIG d   1       0.772  79.430 108.693  0.00  0.00    -0.090 HD
ATOM     21  H   LIG d   1       0.202  78.503 109.918  0.00  0.00    -0.090 HD
ENDBRANCH   5  18
BRANCH   3  22
ATOM     22  C   LIG d   1      -2.675  80.919 112.641  0.00  0.00     0.382 C 
ATOM     23  O   LIG d   1      -2.991  79.829 113.176  0.00  0.00    -0.241 OA
ATOM     24  O   LIG d   1      -3.524  81.825 112.548  0.00  0.00    -0.241 OA
ENDBRANCH   3  22
TORSDOF 7
ENDMDL
MODEL 2
REMARK VINA RESULT:      -6.6      2.826      4.614
REMARK  7 active torsions:
REMARK  status: ('A' for Active; 'I' for Inactive)
REMARK    1  A    between atoms: C_2  and  C_3 
REMARK    2  A    between atoms: C_3  and  O_6 
REMARK    3  A    between atoms: C_3  and  C_4 
REMARK    4  A    between atoms: C_7  and  O_6 
REMARK    5  A    between atoms: C_9  and  C_10 
REMARK    6  A    between atoms: N_15  and  C_14 
REMARK    7  A    between atoms: N_20  and  C_19 
REMARK       I    between atoms: C_22  and  N_20 
ROOT
ATOM      1  C   LIG d   1       1.948  84.198 111.691  0.00  0.00     0.161 C 
ATOM      2  C   LIG d   1       0.992  83.169 111.714  0.00  0.00     0.016 C 
ATOM      3  C   LIG d   1      -0.168  83.202 112.522  0.00  0.00     0.038 C 
ATOM      4  C   LIG d   1      -0.528  84.343 113.255  0.00  0.00     0.028 C 
ATOM      5  C   LIG d   1       0.662  85.208 113.655  0.00  0.00    -0.047 C 
ATOM      6  C   LIG d   1       1.515  85.499 112.399  0.00  0.00     0.091 C 
ENDROOT
BRANCH   1   7
ATOM      7  O   LIG d   1       2.336  84.474 110.330  0.00  0.00    -0.368 OA
BRANCH   7   8
ATOM      8  C   LIG d   1       1.341  84.198 109.315  0.00  0.00     0.119 C 
BRANCH   8   9
ATOM      9  C   LIG d   1       2.066  83.549 108.120  0.00  0.00     0.028 C 
ATOM     10  C   LIG d   1       3.187  82.594 108.562  0.00  0.00     0.006 C 
ENDBRANCH   8   9
BRANCH   8  11
ATOM     11  C   LIG d   1       0.731  85.491 108.766  0.00  0.00     0.028 C 
ATOM     12  C   LIG d   1      -0.551  85.905 109.504  0.00  0.00     0.006 C 
ENDBRANCH   8  11
ENDBRANCH   7   8
ENDBRANCH   1   7
BRANCH   6  13
ATOM     13  N   LIG d   1       2.746  86.270 112.716  0.00  0.00    -0.311 N 
ATOM     14  C   LIG d   1       2.975  87.502 112.266  0.00  0.00     0.210 C 
ATOM     15  C   LIG d   1       4.316  88.108 112.695  0.00  0.00     0.109 C 
ATOM     16  O   LIG d   1       2.182  88.163 111.579  0.00  0.00    -0.276 OA
ATOM     17  H   LIG d   1       3.429  85.820 113.294  0.00  0.00     0.149 HD
ENDBRANCH   6  13
BRANCH   5  18
ATOM     18  N   LIG d   1       0.133  86.429 114.290  0.00  0.00     0.381 N 
ATOM     19  H   LIG d   1       0.152  86.329 115.286  0.00  0.00    -0.090 HD
ATOM     20  H   LIG d   1      -0.822  86.556 114.004  0.00  0.00    -0.090 HD
ATOM     21  H   LIG d   1       0.676  87.218 114.018  0.00  0.00    -0.090 HD
ENDBRANCH   5  18
BRANCH   3  22
ATOM     22  C   LIG d   1      -0.960  82.070 112.635  0.00  0.00     0.382 C 
ATOM     23  O   LIG d   1      -0.536  81.068 113.260  0.00  0.00    -0.241 OA
ATOM     24  O   LIG d   1      -2.074  82.021 112.081  0.00  0.00    -0.241 OA
ENDBRANCH   3  22
TORSDOF 7
ENDMDL
MODEL 3
REMARK VINA RESULT:      -6.4      2.467      5.310
REMARK  7 active torsions:
REMARK  status: ('A' for Active; 'I' for Inactive)
REMARK    1  A    between atoms: C_2  and  C_3 
REMARK    2  A    between atoms: C_3  and  O_6 
REMARK    3  A    between atoms: C_3  and  C_4 
REMARK    4  A    between atoms: C_7  and  O_6 
REMARK    5  A    between atoms: C_9  and  C_10 
REMARK    6  A    between atoms: N_15  and  C_14 
REMARK    7  A    between atoms: N_20  and  C_19 
REMARK       I    between atoms: C_22  and  N_20 
ROOT
ATOM      1  C   LIG d   1       3.141  83.511 111.619  0.00  0.00     0.161 C 
ATOM      2  C   LIG d   1       3.319  84.852 111.999  0.00  0.00     0.016 C 
ATOM      3  C   LIG d   1       2.868  85.947 111.227  0.00  0.00     0.038 C 
ATOM      4  C   LIG d   1       2.069  85.770 110.087  0.00  0.00     0.028 C 
ATOM      5  C   LIG d   1       2.294  84.432 109.391  0.00  0.00    -0.047 C 
ATOM      6  C   LIG d   1       2.175  83.298 110.435  0.00  0.00     0.091 C 
ENDROOT
BRANCH   1   7
ATOM      7  O   LIG d   1       2.720  82.733 112.756  0.00  0.00    -0.368 OA
BRANCH   7   8
ATOM      8  C   LIG d   1       1.289  82.587 112.934  0.00  0.00     0.119 C 
BRANCH   8   9
ATOM      9  C   LIG d   1       0.863  83.549 114.061  0.00  0.00     0.028 C 
ATOM     10  C   LIG d   1      -0.050  84.678 113.554  0.00  0.00     0.006 C 
ENDBRANCH   8   9
BRANCH   8  11
ATOM     11  C   LIG d   1       0.930  81.187 113.439  0.00  0.00     0.028 C 
ATOM     12  C   LIG d   1      -0.252  80.565 112.679  0.00  0.00     0.006 C 
ENDBRANCH   8  11
ENDBRANCH   7   8
ENDBRANCH   1   7
BRANCH   6  13
ATOM     13  N   LIG d   1       2.465  81.961 109.854  0.00  0.00    -0.311 N 
ATOM     14  C   LIG d   1       1.518  81.125 109.430  0.00  0.00     0.210 C 
ATOM     15  C   LIG d   1       2.032  79.789 108.884  0.00  0.00     0.109 C 
ATOM     16  O   LIG d   1       0.304  81.377 109.423  0.00  0.00    -0.276 OA
ATOM     17  H   LIG d   1       3.426  81.688 109.793  0.00  0.00     0.149 HD
ENDBRANCH   6  13
BRANCH   5  18
ATOM     18  N   LIG d   1       1.303  84.323 108.304  0.00  0.00     0.381 N 
ATOM     19  H   LIG d   1       1.701  84.654 107.448  0.00  0.00    -0.090 HD
ATOM     20  H   LIG d   1       0.511  84.899 108.527  0.00  0.00    -0.090 HD
ATOM     21  H   LIG d   1       1.014  83.375 108.199  0.00  0.00    -0.090 HD
ENDBRANCH   5  18
BRANCH   3  22
ATOM     22  C   LIG d   1       3.249  87.235 111.571  0.00  0.00     0.382 C 
ATOM     23  O   LIG d   1       2.382  88.134 111.692  0.00  0.00    -0.241 OA
ATOM     24  O   LIG d   1       4.453  87.519 111.718  0.00  0.00    -0.241 OA
ENDBRANCH   3  22
TORSDOF 7
ENDMDL
MODEL 4
REMARK VINA RESULT:      -6.2      2.569      5.019
REMARK  7 active torsions:
REMARK  status: ('A' for Active; 'I' for Inactive)
REMARK    1  A    between atoms: C_2  and  C_3 
REMARK    2  A    between atoms: C_3  and  O_6 
REMARK    3  A    between atoms: C_3  and  C_4 
REMARK    4  A    between atoms: C_7  and  O_6 
REMARK    5  A    between atoms: C_9  and  C_10 
REMARK    6  A    between atoms: N_15  and  C_14 
REMARK    7  A    between atoms: N_20  and  C_19 
REMARK       I    between atoms: C_22  and  N_20 
ROOT
ATOM      1  C   LIG d   1       0.247  82.990 111.047  0.00  0.00     0.161 C 
ATOM      2  C   LIG d   1      -0.122  84.298 111.405  0.00  0.00     0.016 C 
ATOM      3  C   LIG d   1       0.054  85.416 110.557  0.00  0.00     0.038 C 
ATOM      4  C   LIG d   1       0.475  85.277 109.226  0.00  0.00     0.028 C 
ATOM      5  C   LIG d   1       1.336  84.041 108.988  0.00  0.00    -0.047 C 
ATOM      6  C   LIG d   1       0.605  82.804 109.558  0.00  0.00     0.091 C 
ENDROOT
BRANCH   1   7
ATOM      7  O   LIG d   1      -0.791  82.067 111.433  0.00  0.00    -0.368 OA
BRANCH   7   8
ATOM      8  C   LIG d   1      -0.502  81.224 112.575  0.00  0.00     0.119 C 
BRANCH   8   9
ATOM      9  C   LIG d   1       1.019  81.277 112.816  0.00  0.00     0.028 C 
ATOM     10  C   LIG d   1       1.370  81.600 114.278  0.00  0.00     0.006 C 
ENDBRANCH   8   9
BRANCH   8  11
ATOM     11  C   LIG d   1      -0.814  79.755 112.275  0.00  0.00     0.028 C 
ATOM     12  C   LIG d   1      -2.320  79.482 112.132  0.00  0.00     0.006 C 
ENDBRANCH   8  11
ENDBRANCH   7   8
ENDBRANCH   1   7
BRANCH   6  13
ATOM     13  N   LIG d   1       1.415  81.563 109.442  0.00  0.00    -0.311 N 
ATOM     14  C   LIG d   1       0.968  80.447 108.869  0.00  0.00     0.210 C 
ATOM     15  C   LIG d   1       1.958  79.278 108.873  0.00  0.00     0.109 C 
ATOM     16  O   LIG d   1      -0.141  80.324 108.330  0.00  0.00    -0.276 OA
ATOM     17  H   LIG d   1       2.339  81.585 109.826  0.00  0.00     0.149 HD
ENDBRANCH   6  13
BRANCH   5  18
ATOM     18  N   LIG d   1       1.588  83.946 107.538  0.00  0.00     0.381 N 
ATOM     19  H   LIG d   1       1.831  84.847 107.177  0.00  0.00    -0.090 HD
ATOM     20  H   LIG d   1       0.748  83.639 107.081  0.00  0.00    -0.090 HD
ATOM     21  H   LIG d   1       2.326  83.300 107.362  0.00  0.00    -0.090 HD
ENDBRANCH   5  18
BRANCH   3  22
ATOM     22  C   LIG d   1      -0.154  86.694 111.053  0.00  0.00     0.382 C 
ATOM     23  O   LIG d   1      -1.322  87.101 111.265  0.00  0.00    -0.241 OA
ATOM     24  O   LIG d   1       0.808  87.460 111.249  0.00  0.00    -0.241 OA
ENDBRANCH   3  22
TORSDOF 7
ENDMDL
MODEL 5
REMARK VINA RESULT:      -6.2      1.722      4.974
REMARK  7 active torsions:
REMARK  status: ('A' for Active; 'I' for Inactive)
REMARK    1  A    between atoms: C_2  and  C_3 
REMARK    2  A    between atoms: C_3  and  O_6 
REMARK    3  A    between atoms: C_3  and  C_4 
REMARK    4  A    between atoms: C_7  and  O_6 
REMARK    5  A    between atoms: C_9  and  C_10 
REMARK    6  A    between atoms: N_15  and  C_14 
REMARK    7  A    between atoms: N_20  and  C_19 
REMARK       I    between atoms: C_22  and  N_20 
ROOT
ATOM      1  C   LIG d   1       1.439  81.176 111.759  0.00  0.00     0.161 C 
ATOM      2  C   LIG d   1       2.555  81.750 111.127  0.00  0.00     0.016 C 
ATOM      3  C   LIG d   1       2.736  81.759 109.725  0.00  0.00     0.038 C 
ATOM      4  C   LIG d   1       1.734  81.326 108.845  0.00  0.00     0.028 C 
ATOM      5  C   LIG d   1       0.806  80.278 109.452  0.00  0.00    -0.047 C 
ATOM      6  C   LIG d   1       0.282  80.798 110.810  0.00  0.00     0.091 C 
ENDROOT
BRANCH   1   7
ATOM      7  O   LIG d   1       0.965  82.051 112.802  0.00  0.00    -0.368 OA
BRANCH   7   8
ATOM      8  C   LIG d   1       1.176  83.468 112.591  0.00  0.00     0.119 C 
BRANCH   8   9
ATOM      9  C   LIG d   1       1.528  84.093 113.955  0.00  0.00     0.028 C 
ATOM     10  C   LIG d   1       2.976  84.608 114.009  0.00  0.00     0.006 C 
ENDBRANCH   8   9
BRANCH   8  11
ATOM     11  C   LIG d   1      -0.114  84.164 112.147  0.00  0.00     0.028 C 
ATOM     12  C   LIG d   1      -0.126  84.496 110.646  0.00  0.00     0.006 C 
ENDBRANCH   8  11
ENDBRANCH   7   8
ENDBRANCH   1   7
BRANCH   6  13
ATOM     13  N   LIG d   1      -0.566  79.799 111.511  0.00  0.00    -0.311 N 
ATOM     14  C   LIG d   1      -1.767  80.080 112.013  0.00  0.00     0.210 C 
ATOM     15  C   LIG d   1      -2.465  78.911 112.714  0.00  0.00     0.109 C 
ATOM     16  O   LIG d   1      -2.334  81.179 111.917  0.00  0.00    -0.276 OA
ATOM     17  H   LIG d   1      -0.196  78.874 111.606  0.00  0.00     0.149 HD
ENDBRANCH   6  13
BRANCH   5  18
ATOM     18  N   LIG d   1      -0.271  80.018 108.478  0.00  0.00     0.381 N 
ATOM     19  H   LIG d   1      -1.153  80.282 108.870  0.00  0.00    -0.090 HD
ATOM     20  H   LIG d   1      -0.297  79.034 108.277  0.00  0.00    -0.090 HD
ATOM     21  H   LIG d   1      -0.104  80.531 107.641  0.00  0.00    -0.090 HD
ENDBRANCH   5  18
BRANCH   3  22
ATOM     22  C   LIG d   1       3.949  82.169 109.192  0.00  0.00     0.382 C 
ATOM     23  O   LIG d   1       4.870  82.553 109.951  0.00  0.00    -0.241 OA
ATOM     24  O   LIG d   1       4.118  82.201 107.958  0.00  0.00    -0.241 OA
ENDBRANCH   3  22
TORSDOF 7
ENDMDL
MODEL 6
REMARK VINA RESULT:      -6.0      2.020      4.162
REMARK  7 active torsions:
REMARK  status: ('A' for Active; 'I' for Inactive)
REMARK    1  A    between atoms: C_2  and  C_3 
REMARK    2  A    between atoms: C_3  and  O_6 
REMARK    3  A    between atoms: C_3  and  C_4 
REMARK    4  A    between atoms: C_7  and  O_6 
REMARK    5  A    between atoms: C_9  and  C_10 
REMARK    6  A    between atoms: N_15  and  C_14 
REMARK    7  A    between atoms: N_20  and  C_19 
REMARK       I    between atoms: C_22  and  N_20 
ROOT
ATOM      1  C   LIG d   1       1.333  81.956 111.284  0.00  0.00     0.161 C 
ATOM      2  C   LIG d   1       0.334  81.030 111.626  0.00  0.00     0.016 C 
ATOM      3  C   LIG d   1      -0.854  81.382 112.306  0.00  0.00     0.038 C 
ATOM      4  C   LIG d   1      -1.195  82.720 112.558  0.00  0.00     0.028 C 
ATOM      5  C   LIG d   1       0.014  83.640 112.682  0.00  0.00    -0.047 C 
ATOM      6  C   LIG d   1       0.929  83.435 111.452  0.00  0.00     0.091 C 
ENDROOT
BRANCH   1   7
ATOM      7  O   LIG d   1       1.787  81.711 109.939  0.00  0.00    -0.368 OA
BRANCH   7   8
ATOM      8  C   LIG d   1       2.518  80.477 109.727  0.00  0.00     0.119 C 
BRANCH   8   9
ATOM      9  C   LIG d   1       3.953  80.855 109.309  0.00  0.00     0.028 C 
ATOM     10  C   LIG d   1       4.047  82.292 108.768  0.00  0.00     0.006 C 
ENDBRANCH   8   9
BRANCH   8  11
ATOM     11  C   LIG d   1       1.947  79.686 108.547  0.00  0.00     0.028 C 
ATOM     12  C   LIG d   1       0.498  80.076 108.214  0.00  0.00     0.006 C 
ENDBRANCH   8  11
ENDBRANCH   7   8
ENDBRANCH   1   7
BRANCH   6  13
ATOM     13  N   LIG d   1       2.177  84.237 111.535  0.00  0.00    -0.311 N 
ATOM     14  C   LIG d   1       2.328  85.422 110.947  0.00  0.00     0.210 C 
ATOM     15  C   LIG d   1       3.702  86.071 111.141  0.00  0.00     0.109 C 
ATOM     16  O   LIG d   1       1.443  86.013 110.309  0.00  0.00    -0.276 OA
ATOM     17  H   LIG d   1       2.936  83.847 112.059  0.00  0.00     0.149 HD
ENDBRANCH   6  13
BRANCH   5  18
ATOM     18  N   LIG d   1      -0.488  85.022 112.806  0.00  0.00     0.381 N 
ATOM     19  H   LIG d   1       0.160  85.571 113.335  0.00  0.00    -0.090 HD
ATOM     20  H   LIG d   1      -1.364  85.006 113.297  0.00  0.00    -0.090 HD
ATOM     21  H   LIG d   1      -0.613  85.421 111.902  0.00  0.00    -0.090 HD
ENDBRANCH   5  18
BRANCH   3  22
ATOM     22  C   LIG d   1      -1.698  80.388 112.777  0.00  0.00     0.382 C 
ATOM     23  O   LIG d   1      -1.242  79.246 113.028  0.00  0.00    -0.241 OA
ATOM     24  O   LIG d   1      -2.917  80.605 112.912  0.00  0.00    -0.241 OA
ENDBRANCH   3  22
TORSDOF 7
ENDMDL
MODEL 7
REMARK VINA RESULT:      -6.0      1.986      4.690
REMARK  7 active torsions:
REMARK  status: ('A' for Active; 'I' for Inactive)
REMARK    1  A    between atoms: C_2  and  C_3 
REMARK    2  A    between atoms: C_3  and  O_6 
REMARK    3  A    between atoms: C_3  and  C_4 
REMARK    4  A    between atoms: C_7  and  O_6 
REMARK    5  A    between atoms: C_9  and  C_10 
REMARK    6  A    between atoms: N_15  and  C_14 
REMARK    7  A    between atoms: N_20  and  C_19 
REMARK       I    between atoms: C_22  and  N_20 
ROOT
ATOM      1  C   LIG d   1       1.531  83.122 111.311  0.00  0.00     0.161 C 
ATOM      2  C   LIG d   1       1.071  84.410 111.630  0.00  0.00     0.016 C 
ATOM      3  C   LIG d   1       0.774  85.394 110.658  0.00  0.00     0.038 C 
ATOM      4  C   LIG d   1       0.772  85.103 109.286  0.00  0.00     0.028 C 
ATOM      5  C   LIG d   1       1.716  83.967 108.906  0.00  0.00    -0.047 C 
ATOM      6  C   LIG d   1       1.429  82.751 109.816  0.00  0.00     0.091 C 
ENDROOT
BRANCH   1   7
ATOM      7  O   LIG d   1       0.846  82.144 112.118  0.00  0.00    -0.368 OA
BRANCH   7   8
ATOM      8  C   LIG d   1      -0.408  81.647 111.588  0.00  0.00     0.119 C 
BRANCH   8   9
ATOM      9  C   LIG d   1      -1.525  82.080 112.557  0.00  0.00     0.028 C 
ATOM     10  C   LIG d   1      -2.728  81.122 112.531  0.00  0.00     0.006 C 
ENDBRANCH   8   9
BRANCH   8  11
ATOM     11  C   LIG d   1      -0.443  80.115 111.587  0.00  0.00     0.028 C 
ATOM     12  C   LIG d   1      -0.434  79.520 110.170  0.00  0.00     0.006 C 
ENDBRANCH   8  11
ENDBRANCH   7   8
ENDBRANCH   1   7
BRANCH   6  13
ATOM     13  N   LIG d   1       2.365  81.624 109.568  0.00  0.00    -0.311 N 
ATOM     14  C   LIG d   1       3.671  81.685 109.823  0.00  0.00     0.210 C 
ATOM     15  C   LIG d   1       4.459  80.418 109.475  0.00  0.00     0.109 C 
ATOM     16  O   LIG d   1       4.246  82.657 110.336  0.00  0.00    -0.276 OA
ATOM     17  H   LIG d   1       1.977  80.785 109.182  0.00  0.00     0.149 HD
ENDBRANCH   6  13
BRANCH   5  18
ATOM     18  N   LIG d   1       1.511  83.678 107.474  0.00  0.00     0.381 N 
ATOM     19  H   LIG d   1       2.222  83.053 107.150  0.00  0.00    -0.090 HD
ATOM     20  H   LIG d   1       1.585  84.536 106.956  0.00  0.00    -0.090 HD
ATOM     21  H   LIG d   1       0.612  83.273 107.333  0.00  0.00    -0.090 HD
ENDBRANCH   5  18
BRANCH   3  22
ATOM     22  C   LIG d   1       0.512  86.696 111.056  0.00  0.00     0.382 C 
ATOM     23  O   LIG d   1      -0.672  87.072 111.232  0.00  0.00    -0.241 OA
ATOM     24  O   LIG d   1       1.442  87.512 111.199  0.00  0.00    -0.241 OA
ENDBRANCH   3  22
TORSDOF 7
ENDMDL
MODEL 8
REMARK VINA RESULT:      -5.9      2.076      4.908
REMARK  7 active torsions:
REMARK  status: ('A' for Active; 'I' for Inactive)
REMARK    1  A    between atoms: C_2  and  C_3 
REMARK    2  A    between atoms: C_3  and  O_6 
REMARK    3  A    between atoms: C_3  and  C_4 
REMARK    4  A    between atoms: C_7  and  O_6 
REMARK    5  A    between atoms: C_9  and  C_10 
REMARK    6  A    between atoms: N_15  and  C_14 
REMARK    7  A    between atoms: N_20  and  C_19 
REMARK       I    between atoms: C_22  and  N_20 
ROOT
ATOM      1  C   LIG d   1       0.560  82.817 111.376  0.00  0.00     0.161 C 
ATOM      2  C   LIG d   1      -0.234  83.881 111.835  0.00  0.00     0.016 C 
ATOM      3  C   LIG d   1       0.132  85.240 111.699  0.00  0.00     0.038 C 
ATOM      4  C   LIG d   1       1.254  85.635 110.955  0.00  0.00     0.028 C 
ATOM      5  C   LIG d   1       2.352  84.577 110.907  0.00  0.00    -0.047 C 
ATOM      6  C   LIG d   1       1.733  83.232 110.464  0.00  0.00     0.091 C 
ENDROOT
BRANCH   1   7
ATOM      7  O   LIG d   1      -0.268  81.840 110.714  0.00  0.00    -0.368 OA
BRANCH   7   8
ATOM      8  C   LIG d   1      -0.258  80.507 111.282  0.00  0.00     0.119 C 
BRANCH   8   9
ATOM      9  C   LIG d   1      -0.161  79.507 110.114  0.00  0.00     0.028 C 
ATOM     10  C   LIG d   1       0.232  80.186 108.791  0.00  0.00     0.006 C 
ENDBRANCH   8   9
BRANCH   8  11
ATOM     11  C   LIG d   1      -1.584  80.189 111.980  0.00  0.00     0.028 C 
ATOM     12  C   LIG d   1      -2.164  78.828 111.565  0.00  0.00     0.006 C 
ENDBRANCH   8  11
ENDBRANCH   7   8
ENDBRANCH   1   7
BRANCH   6  13
ATOM     13  N   LIG d   1       2.723  82.123 110.471  0.00  0.00    -0.311 N 
ATOM     14  C   LIG d   1       3.439  81.772 109.405  0.00  0.00     0.210 C 
ATOM     15  C   LIG d   1       4.387  80.589 109.623  0.00  0.00     0.109 C 
ATOM     16  O   LIG d   1       3.403  82.349 108.307  0.00  0.00    -0.276 OA
ATOM     17  H   LIG d   1       2.839  81.621 111.330  0.00  0.00     0.149 HD
ENDBRANCH   6  13
BRANCH   5  18
ATOM     18  N   LIG d   1       3.399  85.063 109.989  0.00  0.00     0.381 N 
ATOM     19  H   LIG d   1       3.131  85.948 109.607  0.00  0.00    -0.090 HD
ATOM     20  H   LIG d   1       3.496  84.410 109.231  0.00  0.00    -0.090 HD
ATOM     21  H   LIG d   1       4.265  85.151 110.474  0.00  0.00    -0.090 HD
ENDBRANCH   5  18
BRANCH   3  22
ATOM     22  C   LIG d   1      -0.607  86.219 112.346  0.00  0.00     0.382 C 
ATOM     23  O   LIG d   1      -0.445  86.418 113.574  0.00  0.00    -0.241 OA
ATOM     24  O   LIG d   1      -1.465  86.876 111.726  0.00  0.00    -0.241 OA
ENDBRANCH   3  22
TORSDOF 7
ENDMDL
MODEL 9
REMARK VINA RESULT:      -5.5      2.380      5.050
REMARK  7 active torsions:
REMARK  status: ('A' for Active; 'I' for Inactive)
REMARK    1  A    between atoms: C_2  and  C_3 
REMARK    2  A    between atoms: C_3  and  O_6 
REMARK    3  A    between atoms: C_3  and  C_4 
REMARK    4  A    between atoms: C_7  and  O_6 
REMARK    5  A    between atoms: C_9  and  C_10 
REMARK    6  A    between atoms: N_15  and  C_14 
REMARK    7  A    between atoms: N_20  and  C_19 
REMARK       I    between atoms: C_22  and  N_20 
ROOT
ATOM      1  C   LIG d   1       1.654  83.092 111.028  0.00  0.00     0.161 C 
ATOM      2  C   LIG d   1       2.094  84.364 111.430  0.00  0.00     0.016 C 
ATOM      3  C   LIG d   1       2.262  85.447 110.537  0.00  0.00     0.038 C 
ATOM      4  C   LIG d   1       1.855  85.373 109.196  0.00  0.00     0.028 C 
ATOM      5  C   LIG d   1       1.878  83.955 108.634  0.00  0.00    -0.047 C 
ATOM      6  C   LIG d   1       1.099  83.024 109.590  0.00  0.00     0.091 C 
ENDROOT
BRANCH   1   7
ATOM      7  O   LIG d   1       0.678  82.594 111.966  0.00  0.00    -0.368 OA
BRANCH   7   8
ATOM      8  C   LIG d   1       0.920  81.266 112.492  0.00  0.00     0.119 C 
BRANCH   8   9
ATOM      9  C   LIG d   1      -0.360  80.438 112.264  0.00  0.00     0.028 C 
ATOM     10  C   LIG d   1      -1.635  81.294 112.343  0.00  0.00     0.006 C 
ENDBRANCH   8   9
BRANCH   8  11
ATOM     11  C   LIG d   1       1.119  81.295 114.010  0.00  0.00     0.028 C 
ATOM     12  C   LIG d   1       1.367  82.712 114.551  0.00  0.00     0.006 C 
ENDBRANCH   8  11
ENDBRANCH   7   8
ENDBRANCH   1   7
BRANCH   6  13
ATOM     13  N   LIG d   1       1.144  81.602 109.158  0.00  0.00    -0.311 N 
ATOM     14  C   LIG d   1       2.275  80.914 109.019  0.00  0.00     0.210 C 
ATOM     15  C   LIG d   1       2.098  79.468 108.544  0.00  0.00     0.109 C 
ATOM     16  O   LIG d   1       3.406  81.353 109.275  0.00  0.00    -0.276 OA
ATOM     17  H   LIG d   1       0.269  81.158 108.959  0.00  0.00     0.149 HD
ENDBRANCH   6  13
BRANCH   5  18
ATOM     18  N   LIG d   1       1.301  84.005 107.277  0.00  0.00     0.381 N 
ATOM     19  H   LIG d   1       0.433  84.502 107.296  0.00  0.00    -0.090 HD
ATOM     20  H   LIG d   1       1.121  83.066 106.967  0.00  0.00    -0.090 HD
ATOM     21  H   LIG d   1       1.936  84.453 106.653  0.00  0.00    -0.090 HD
ENDBRANCH   5  18
BRANCH   3  22
ATOM     22  C   LIG d   1       2.882  86.608 110.974  0.00  0.00     0.382 C 
ATOM     23  O   LIG d   1       4.049  86.562 111.432  0.00  0.00    -0.241 OA
ATOM     24  O   LIG d   1       2.272  87.694 110.956  0.00  0.00    -0.241 OA
ENDBRANCH   3  22
TORSDOF 7
ENDMDL
