MODEL 1
REMARK VINA RESULT:      -5.7      0.000      0.000
REMARK  7 active torsions:
REMARK  status: ('A' for Active; 'I' for Inactive)
REMARK    1  A    between atoms: C_2  and  C_3 
REMARK    2  A    between atoms: C_3  and  O_6 
REMARK    3  A    between atoms: C_3  and  C_4 
REMARK    4  A    between atoms: C_7  and  O_6 
REMARK    5  A    between atoms: C_9  and  C_10 
REMARK    6  A    between atoms: N_15  and  C_14 
REMARK    7  A    between atoms: N_20  and  C_19 
REMARK       I    between atoms: C_22  and  N_20 
ROOT
ATOM      1  C   LIG d   1      -3.857  91.681 117.840  0.00  0.00     0.161 C 
ATOM      2  C   LIG d   1      -4.214  90.986 116.673  0.00  0.00     0.016 C 
ATOM      3  C   LIG d   1      -5.457  91.148 116.020  0.00  0.00     0.038 C 
ATOM      4  C   LIG d   1      -6.375  92.135 116.407  0.00  0.00     0.028 C 
ATOM      5  C   LIG d   1      -6.274  92.511 117.882  0.00  0.00    -0.047 C 
ATOM      6  C   LIG d   1      -4.801  92.843 118.214  0.00  0.00     0.091 C 
ENDROOT
BRANCH   1   7
ATOM      7  O   LIG d   1      -2.500  92.153 117.732  0.00  0.00    -0.368 OA
BRANCH   7   8
ATOM      8  C   LIG d   1      -1.469  91.234 118.169  0.00  0.00     0.119 C 
BRANCH   8   9
ATOM      9  C   LIG d   1      -1.458  91.249 119.710  0.00  0.00     0.028 C 
ATOM     10  C   LIG d   1      -1.046  92.617 120.281  0.00  0.00     0.006 C 
ENDBRANCH   8   9
BRANCH   8  11
ATOM     11  C   LIG d   1      -0.077  91.717 117.749  0.00  0.00     0.028 C 
ATOM     12  C   LIG d   1       0.733  90.635 117.017  0.00  0.00     0.006 C 
ENDBRANCH   8  11
ENDBRANCH   7   8
ENDBRANCH   1   7
BRANCH   6  13
ATOM     13  N   LIG d   1      -4.599  93.140 119.656  0.00  0.00    -0.311 N 
ATOM     14  C   LIG d   1      -4.659  94.369 120.167  0.00  0.00     0.210 C 
ATOM     15  C   LIG d   1      -4.400  94.456 121.675  0.00  0.00     0.109 C 
ATOM     16  O   LIG d   1      -4.934  95.391 119.521  0.00  0.00    -0.276 OA
ATOM     17  H   LIG d   1      -4.401  92.365 120.258  0.00  0.00     0.149 HD
ENDBRANCH   6  13
BRANCH   5  18
ATOM     18  N   LIG d   1      -7.189  93.644 118.117  0.00  0.00     0.381 N 
ATOM     19  H   LIG d   1      -7.154  93.913 119.080  0.00  0.00    -0.090 HD
ATOM     20  H   LIG d   1      -8.127  93.353 117.904  0.00  0.00    -0.090 HD
ATOM     21  H   LIG d   1      -6.933  94.415 117.540  0.00  0.00    -0.090 HD
ENDBRANCH   5  18
BRANCH   3  22
ATOM     22  C   LIG d   1      -5.810  90.289 114.990  0.00  0.00     0.382 C 
ATOM     23  O   LIG d   1      -6.856  90.497 114.330  0.00  0.00    -0.241 OA
ATOM     24  O   LIG d   1      -5.118  89.283 114.741  0.00  0.00    -0.241 OA
ENDBRANCH   3  22
TORSDOF 7
ENDMDL
MODEL 2
REMARK VINA RESULT:      -5.6     13.900     16.045
REMARK  7 active torsions:
REMARK  status: ('A' for Active; 'I' for Inactive)
REMARK    1  A    between atoms: C_2  and  C_3 
REMARK    2  A    between atoms: C_3  and  O_6 
REMARK    3  A    between atoms: C_3  and  C_4 
REMARK    4  A    between atoms: C_7  and  O_6 
REMARK    5  A    between atoms: C_9  and  C_10 
REMARK    6  A    between atoms: N_15  and  C_14 
REMARK    7  A    between atoms: N_20  and  C_19 
REMARK       I    between atoms: C_22  and  N_20 
ROOT
ATOM      1  C   LIG d   1      -6.576  76.695 117.084  0.00  0.00     0.161 C 
ATOM      2  C   LIG d   1      -7.812  77.008 117.675  0.00  0.00     0.016 C 
ATOM      3  C   LIG d   1      -8.159  78.307 118.111  0.00  0.00     0.038 C 
ATOM      4  C   LIG d   1      -7.347  79.420 117.847  0.00  0.00     0.028 C 
ATOM      5  C   LIG d   1      -5.869  79.071 117.705  0.00  0.00    -0.047 C 
ATOM      6  C   LIG d   1      -5.722  77.917 116.687  0.00  0.00     0.091 C 
ENDROOT
BRANCH   1   7
ATOM      7  O   LIG d   1      -6.783  75.837 115.945  0.00  0.00    -0.368 OA
BRANCH   7   8
ATOM      8  C   LIG d   1      -6.313  74.473 116.081  0.00  0.00     0.119 C 
BRANCH   8   9
ATOM      9  C   LIG d   1      -5.763  74.034 114.710  0.00  0.00     0.028 C 
ATOM     10  C   LIG d   1      -5.350  75.228 113.833  0.00  0.00     0.006 C 
ENDBRANCH   8   9
BRANCH   8  11
ATOM     11  C   LIG d   1      -7.467  73.513 116.381  0.00  0.00     0.028 C 
ATOM     12  C   LIG d   1      -7.172  72.070 115.942  0.00  0.00     0.006 C 
ENDBRANCH   8  11
ENDBRANCH   7   8
ENDBRANCH   1   7
BRANCH   6  13
ATOM     13  N   LIG d   1      -4.315  77.457 116.551  0.00  0.00    -0.311 N 
ATOM     14  C   LIG d   1      -3.463  77.956 115.657  0.00  0.00     0.210 C 
ATOM     15  C   LIG d   1      -2.067  77.327 115.672  0.00  0.00     0.109 C 
ATOM     16  O   LIG d   1      -3.722  78.883 114.875  0.00  0.00    -0.276 OA
ATOM     17  H   LIG d   1      -4.012  76.729 117.168  0.00  0.00     0.149 HD
ENDBRANCH   6  13
BRANCH   5  18
ATOM     18  N   LIG d   1      -5.159  80.297 117.296  0.00  0.00     0.381 N 
ATOM     19  H   LIG d   1      -4.608  80.640 118.058  0.00  0.00    -0.090 HD
ATOM     20  H   LIG d   1      -5.836  80.999 117.055  0.00  0.00    -0.090 HD
ATOM     21  H   LIG d   1      -4.573  80.107 116.513  0.00  0.00    -0.090 HD
ENDBRANCH   5  18
BRANCH   3  22
ATOM     22  C   LIG d   1      -9.313  78.496 118.856  0.00  0.00     0.382 C 
ATOM     23  O   LIG d   1      -9.246  78.584 120.106  0.00  0.00    -0.241 OA
ATOM     24  O   LIG d   1     -10.426  78.535 118.298  0.00  0.00    -0.241 OA
ENDBRANCH   3  22
TORSDOF 7
ENDMDL
MODEL 3
REMARK VINA RESULT:      -5.6     32.256     33.878
REMARK  7 active torsions:
REMARK  status: ('A' for Active; 'I' for Inactive)
REMARK    1  A    between atoms: C_2  and  C_3 
REMARK    2  A    between atoms: C_3  and  O_6 
REMARK    3  A    between atoms: C_3  and  C_4 
REMARK    4  A    between atoms: C_7  and  O_6 
REMARK    5  A    between atoms: C_9  and  C_10 
REMARK    6  A    between atoms: N_15  and  C_14 
REMARK    7  A    between atoms: N_20  and  C_19 
REMARK       I    between atoms: C_22  and  N_20 
ROOT
ATOM      1  C   LIG d   1       0.838  58.903 118.831  0.00  0.00     0.161 C 
ATOM      2  C   LIG d   1       1.952  58.737 119.670  0.00  0.00     0.016 C 
ATOM      3  C   LIG d   1       2.023  59.258 120.982  0.00  0.00     0.038 C 
ATOM      4  C   LIG d   1       0.916  59.857 121.603  0.00  0.00     0.028 C 
ATOM      5  C   LIG d   1      -0.060  60.493 120.619  0.00  0.00    -0.047 C 
ATOM      6  C   LIG d   1      -0.421  59.457 119.530  0.00  0.00     0.091 C 
ENDROOT
BRANCH   1   7
ATOM      7  O   LIG d   1       0.536  57.660 118.167  0.00  0.00    -0.368 OA
BRANCH   7   8
ATOM      8  C   LIG d   1       0.464  57.711 116.721  0.00  0.00     0.119 C 
BRANCH   8   9
ATOM      9  C   LIG d   1       1.010  56.374 116.183  0.00  0.00     0.028 C 
ATOM     10  C   LIG d   1       1.896  55.647 117.208  0.00  0.00     0.006 C 
ENDBRANCH   8   9
BRANCH   8  11
ATOM     11  C   LIG d   1       1.396  58.787 116.154  0.00  0.00     0.028 C 
ATOM     12  C   LIG d   1       0.743  59.609 115.031  0.00  0.00     0.006 C 
ENDBRANCH   8  11
ENDBRANCH   7   8
ENDBRANCH   1   7
BRANCH   6  13
ATOM     13  N   LIG d   1      -1.306  60.024 118.479  0.00  0.00    -0.311 N 
ATOM     14  C   LIG d   1      -2.320  59.354 117.934  0.00  0.00     0.210 C 
ATOM     15  C   LIG d   1      -3.093  60.117 116.854  0.00  0.00     0.109 C 
ATOM     16  O   LIG d   1      -2.672  58.212 118.265  0.00  0.00    -0.276 OA
ATOM     17  H   LIG d   1      -1.111  60.957 118.174  0.00  0.00     0.149 HD
ENDBRANCH   6  13
BRANCH   5  18
ATOM     18  N   LIG d   1      -1.230  60.956 121.388  0.00  0.00     0.381 N 
ATOM     19  H   LIG d   1      -2.054  60.891 120.824  0.00  0.00    -0.090 HD
ATOM     20  H   LIG d   1      -1.095  61.920 121.637  0.00  0.00    -0.090 HD
ATOM     21  H   LIG d   1      -1.338  60.404 122.210  0.00  0.00    -0.090 HD
ENDBRANCH   5  18
BRANCH   3  22
ATOM     22  C   LIG d   1       3.224  59.219 121.674  0.00  0.00     0.382 C 
ATOM     23  O   LIG d   1       3.898  58.161 121.701  0.00  0.00    -0.241 OA
ATOM     24  O   LIG d   1       3.621  60.215 122.308  0.00  0.00    -0.241 OA
ENDBRANCH   3  22
TORSDOF 7
ENDMDL
MODEL 4
REMARK VINA RESULT:      -5.5     32.711     34.445
REMARK  7 active torsions:
REMARK  status: ('A' for Active; 'I' for Inactive)
REMARK    1  A    between atoms: C_2  and  C_3 
REMARK    2  A    between atoms: C_3  and  O_6 
REMARK    3  A    between atoms: C_3  and  C_4 
REMARK    4  A    between atoms: C_7  and  O_6 
REMARK    5  A    between atoms: C_9  and  C_10 
REMARK    6  A    between atoms: N_15  and  C_14 
REMARK    7  A    between atoms: N_20  and  C_19 
REMARK       I    between atoms: C_22  and  N_20 
ROOT
ATOM      1  C   LIG d   1       0.857  58.747 118.576  0.00  0.00     0.161 C 
ATOM      2  C   LIG d   1      -0.338  59.165 117.967  0.00  0.00     0.016 C 
ATOM      3  C   LIG d   1      -0.907  58.518 116.846  0.00  0.00     0.038 C 
ATOM      4  C   LIG d   1      -0.396  57.310 116.348  0.00  0.00     0.028 C 
ATOM      5  C   LIG d   1       1.095  57.129 116.613  0.00  0.00    -0.047 C 
ATOM      6  C   LIG d   1       1.369  57.367 118.116  0.00  0.00     0.091 C 
ENDROOT
BRANCH   1   7
ATOM      7  O   LIG d   1       0.710  58.775 120.010  0.00  0.00    -0.368 OA
BRANCH   7   8
ATOM      8  C   LIG d   1       1.436  59.818 120.705  0.00  0.00     0.119 C 
BRANCH   8   9
ATOM      9  C   LIG d   1       2.538  59.137 121.541  0.00  0.00     0.028 C 
ATOM     10  C   LIG d   1       3.948  59.606 121.146  0.00  0.00     0.006 C 
ENDBRANCH   8   9
BRANCH   8  11
ATOM     11  C   LIG d   1       0.543  60.537 121.721  0.00  0.00     0.028 C 
ATOM     12  C   LIG d   1      -0.916  60.654 121.253  0.00  0.00     0.006 C 
ENDBRANCH   8  11
ENDBRANCH   7   8
ENDBRANCH   1   7
BRANCH   6  13
ATOM     13  N   LIG d   1       2.816  57.291 118.446  0.00  0.00    -0.311 N 
ATOM     14  C   LIG d   1       3.350  56.320 119.186  0.00  0.00     0.210 C 
ATOM     15  C   LIG d   1       4.858  56.443 119.424  0.00  0.00     0.109 C 
ATOM     16  O   LIG d   1       2.722  55.352 119.641  0.00  0.00    -0.276 OA
ATOM     17  H   LIG d   1       3.404  58.020 118.091  0.00  0.00     0.149 HD
ENDBRANCH   6  13
BRANCH   5  18
ATOM     18  N   LIG d   1       1.465  55.773 116.165  0.00  0.00     0.381 N 
ATOM     19  H   LIG d   1       2.007  55.319 116.873  0.00  0.00    -0.090 HD
ATOM     20  H   LIG d   1       2.028  55.847 115.336  0.00  0.00    -0.090 HD
ATOM     21  H   LIG d   1       0.645  55.242 115.972  0.00  0.00    -0.090 HD
ENDBRANCH   5  18
BRANCH   3  22
ATOM     22  C   LIG d   1      -1.978  59.102 116.186  0.00  0.00     0.382 C 
ATOM     23  O   LIG d   1      -1.826  59.563 115.030  0.00  0.00    -0.241 OA
ATOM     24  O   LIG d   1      -3.083  59.212 116.750  0.00  0.00    -0.241 OA
ENDBRANCH   3  22
TORSDOF 7
ENDMDL
MODEL 5
REMARK VINA RESULT:      -5.4     15.524     17.116
REMARK  7 active torsions:
REMARK  status: ('A' for Active; 'I' for Inactive)
REMARK    1  A    between atoms: C_2  and  C_3 
REMARK    2  A    between atoms: C_3  and  O_6 
REMARK    3  A    between atoms: C_3  and  C_4 
REMARK    4  A    between atoms: C_7  and  O_6 
REMARK    5  A    between atoms: C_9  and  C_10 
REMARK    6  A    between atoms: N_15  and  C_14 
REMARK    7  A    between atoms: N_20  and  C_19 
REMARK       I    between atoms: C_22  and  N_20 
ROOT
ATOM      1  C   LIG d   1      -3.094  76.666 116.196  0.00  0.00     0.161 C 
ATOM      2  C   LIG d   1      -3.423  77.184 114.932  0.00  0.00     0.016 C 
ATOM      3  C   LIG d   1      -2.555  77.125 113.817  0.00  0.00     0.038 C 
ATOM      4  C   LIG d   1      -1.352  76.404 113.852  0.00  0.00     0.028 C 
ATOM      5  C   LIG d   1      -0.750  76.297 115.249  0.00  0.00    -0.047 C 
ATOM      6  C   LIG d   1      -1.832  75.779 116.224  0.00  0.00     0.091 C 
ENDROOT
BRANCH   1   7
ATOM      7  O   LIG d   1      -4.222  75.951 116.739  0.00  0.00    -0.368 OA
BRANCH   7   8
ATOM      8  C   LIG d   1      -5.319  75.703 115.826  0.00  0.00     0.119 C 
BRANCH   8   9
ATOM      9  C   LIG d   1      -6.629  75.967 116.594  0.00  0.00     0.028 C 
ATOM     10  C   LIG d   1      -7.465  74.690 116.783  0.00  0.00     0.006 C 
ENDBRANCH   8   9
BRANCH   8  11
ATOM     11  C   LIG d   1      -5.380  74.229 115.415  0.00  0.00     0.028 C 
ATOM     12  C   LIG d   1      -5.077  74.012 113.924  0.00  0.00     0.006 C 
ENDBRANCH   8  11
ENDBRANCH   7   8
ENDBRANCH   1   7
BRANCH   6  13
ATOM     13  N   LIG d   1      -1.351  75.725 117.629  0.00  0.00    -0.311 N 
ATOM     14  C   LIG d   1      -0.834  74.631 118.185  0.00  0.00     0.210 C 
ATOM     15  C   LIG d   1      -0.418  74.786 119.651  0.00  0.00     0.109 C 
ATOM     16  O   LIG d   1      -0.649  73.557 117.593  0.00  0.00    -0.276 OA
ATOM     17  H   LIG d   1      -1.435  76.562 118.172  0.00  0.00     0.149 HD
ENDBRANCH   6  13
BRANCH   5  18
ATOM     18  N   LIG d   1       0.424  75.408 115.162  0.00  0.00     0.381 N 
ATOM     19  H   LIG d   1       0.383  74.722 115.890  0.00  0.00    -0.090 HD
ATOM     20  H   LIG d   1       1.256  75.955 115.291  0.00  0.00    -0.090 HD
ATOM     21  H   LIG d   1       0.446  74.959 114.273  0.00  0.00    -0.090 HD
ENDBRANCH   5  18
BRANCH   3  22
ATOM     22  C   LIG d   1      -2.870  77.825 112.663  0.00  0.00     0.382 C 
ATOM     23  O   LIG d   1      -2.164  78.799 112.308  0.00  0.00    -0.241 OA
ATOM     24  O   LIG d   1      -3.878  77.523 111.996  0.00  0.00    -0.241 OA
ENDBRANCH   3  22
TORSDOF 7
ENDMDL
MODEL 6
REMARK VINA RESULT:      -5.3     15.197     17.472
REMARK  7 active torsions:
REMARK  status: ('A' for Active; 'I' for Inactive)
REMARK    1  A    between atoms: C_2  and  C_3 
REMARK    2  A    between atoms: C_3  and  O_6 
REMARK    3  A    between atoms: C_3  and  C_4 
REMARK    4  A    between atoms: C_7  and  O_6 
REMARK    5  A    between atoms: C_9  and  C_10 
REMARK    6  A    between atoms: N_15  and  C_14 
REMARK    7  A    between atoms: N_20  and  C_19 
REMARK       I    between atoms: C_22  and  N_20 
ROOT
ATOM      1  C   LIG d   1      -2.443  75.431 115.573  0.00  0.00     0.161 C 
ATOM      2  C   LIG d   1      -2.013  74.689 116.686  0.00  0.00     0.016 C 
ATOM      3  C   LIG d   1      -0.930  75.076 117.507  0.00  0.00     0.038 C 
ATOM      4  C   LIG d   1      -0.294  76.318 117.359  0.00  0.00     0.028 C 
ATOM      5  C   LIG d   1      -0.363  76.869 115.939  0.00  0.00    -0.047 C 
ATOM      6  C   LIG d   1      -1.833  76.844 115.462  0.00  0.00     0.091 C 
ENDROOT
BRANCH   1   7
ATOM      7  O   LIG d   1      -3.883  75.504 115.561  0.00  0.00    -0.368 OA
BRANCH   7   8
ATOM      8  C   LIG d   1      -4.581  74.278 115.232  0.00  0.00     0.119 C 
BRANCH   8   9
ATOM      9  C   LIG d   1      -5.171  74.447 113.819  0.00  0.00     0.028 C 
ATOM     10  C   LIG d   1      -5.589  75.898 113.526  0.00  0.00     0.006 C 
ENDBRANCH   8   9
BRANCH   8  11
ATOM     11  C   LIG d   1      -5.786  74.059 116.152  0.00  0.00     0.028 C 
ATOM     12  C   LIG d   1      -6.534  72.751 115.851  0.00  0.00     0.006 C 
ENDBRANCH   8  11
ENDBRANCH   7   8
ENDBRANCH   1   7
BRANCH   6  13
ATOM     13  N   LIG d   1      -1.979  77.287 114.051  0.00  0.00    -0.311 N 
ATOM     14  C   LIG d   1      -2.668  78.369 113.691  0.00  0.00     0.210 C 
ATOM     15  C   LIG d   1      -2.709  78.636 112.183  0.00  0.00     0.109 C 
ATOM     16  O   LIG d   1      -3.221  79.151 114.479  0.00  0.00    -0.276 OA
ATOM     17  H   LIG d   1      -1.536  76.728 113.349  0.00  0.00     0.149 HD
ENDBRANCH   6  13
BRANCH   5  18
ATOM     18  N   LIG d   1       0.216  78.225 115.958  0.00  0.00     0.381 N 
ATOM     19  H   LIG d   1       0.266  78.559 116.900  0.00  0.00    -0.090 HD
ATOM     20  H   LIG d   1      -0.383  78.842 115.437  0.00  0.00    -0.090 HD
ATOM     21  H   LIG d   1       1.126  78.214 115.553  0.00  0.00    -0.090 HD
ENDBRANCH   5  18
BRANCH   3  22
ATOM     22  C   LIG d   1      -0.445  74.198 118.465  0.00  0.00     0.382 C 
ATOM     23  O   LIG d   1      -0.398  72.969 118.221  0.00  0.00    -0.241 OA
ATOM     24  O   LIG d   1      -0.097  74.616 119.586  0.00  0.00    -0.241 OA
ENDBRANCH   3  22
TORSDOF 7
ENDMDL
MODEL 7
REMARK VINA RESULT:      -5.1     32.951     34.927
REMARK  7 active torsions:
REMARK  status: ('A' for Active; 'I' for Inactive)
REMARK    1  A    between atoms: C_2  and  C_3 
REMARK    2  A    between atoms: C_3  and  O_6 
REMARK    3  A    between atoms: C_3  and  C_4 
REMARK    4  A    between atoms: C_7  and  O_6 
REMARK    5  A    between atoms: C_9  and  C_10 
REMARK    6  A    between atoms: N_15  and  C_14 
REMARK    7  A    between atoms: N_20  and  C_19 
REMARK       I    between atoms: C_22  and  N_20 
ROOT
ATOM      1  C   LIG d   1       1.092  57.624 118.293  0.00  0.00     0.161 C 
ATOM      2  C   LIG d   1       0.958  58.480 119.398  0.00  0.00     0.016 C 
ATOM      3  C   LIG d   1       2.052  59.132 120.013  0.00  0.00     0.038 C 
ATOM      4  C   LIG d   1       3.343  59.090 119.467  0.00  0.00     0.028 C 
ATOM      5  C   LIG d   1       3.613  57.832 118.648  0.00  0.00    -0.047 C 
ATOM      6  C   LIG d   1       2.477  57.653 117.615  0.00  0.00     0.091 C 
ENDROOT
BRANCH   1   7
ATOM      7  O   LIG d   1       0.057  57.904 117.329  0.00  0.00    -0.368 OA
BRANCH   7   8
ATOM      8  C   LIG d   1      -0.008  59.267 116.842  0.00  0.00     0.119 C 
BRANCH   8   9
ATOM      9  C   LIG d   1      -1.433  59.788 117.113  0.00  0.00     0.028 C 
ATOM     10  C   LIG d   1      -2.506  58.714 116.872  0.00  0.00     0.006 C 
ENDBRANCH   8   9
BRANCH   8  11
ATOM     11  C   LIG d   1       0.163  59.324 115.321  0.00  0.00     0.028 C 
ATOM     12  C   LIG d   1       1.509  59.931 114.895  0.00  0.00     0.006 C 
ENDBRANCH   8  11
ENDBRANCH   7   8
ENDBRANCH   1   7
BRANCH   6  13
ATOM     13  N   LIG d   1       2.620  56.400 116.828  0.00  0.00    -0.311 N 
ATOM     14  C   LIG d   1       2.650  55.188 117.379  0.00  0.00     0.210 C 
ATOM     15  C   LIG d   1       2.824  54.032 116.388  0.00  0.00     0.109 C 
ATOM     16  O   LIG d   1       2.518  54.958 118.590  0.00  0.00    -0.276 OA
ATOM     17  H   LIG d   1       2.702  56.493 115.834  0.00  0.00     0.149 HD
ENDBRANCH   6  13
BRANCH   5  18
ATOM     18  N   LIG d   1       4.942  57.983 118.026  0.00  0.00     0.381 N 
ATOM     19  H   LIG d   1       4.858  57.933 117.030  0.00  0.00    -0.090 HD
ATOM     20  H   LIG d   1       5.531  57.228 118.330  0.00  0.00    -0.090 HD
ATOM     21  H   LIG d   1       5.345  58.855 118.289  0.00  0.00    -0.090 HD
ENDBRANCH   5  18
BRANCH   3  22
ATOM     22  C   LIG d   1       1.865  59.805 121.212  0.00  0.00     0.382 C 
ATOM     23  O   LIG d   1       2.802  59.875 122.044  0.00  0.00    -0.241 OA
ATOM     24  O   LIG d   1       0.758  60.304 121.490  0.00  0.00    -0.241 OA
ENDBRANCH   3  22
TORSDOF 7
ENDMDL
MODEL 8
REMARK VINA RESULT:      -5.1     14.345     16.114
REMARK  7 active torsions:
REMARK  status: ('A' for Active; 'I' for Inactive)
REMARK    1  A    between atoms: C_2  and  C_3 
REMARK    2  A    between atoms: C_3  and  O_6 
REMARK    3  A    between atoms: C_3  and  C_4 
REMARK    4  A    between atoms: C_7  and  O_6 
REMARK    5  A    between atoms: C_9  and  C_10 
REMARK    6  A    between atoms: N_15  and  C_14 
REMARK    7  A    between atoms: N_20  and  C_19 
REMARK       I    between atoms: C_22  and  N_20 
ROOT
ATOM      1  C   LIG d   1      -4.737  76.262 115.223  0.00  0.00     0.161 C 
ATOM      2  C   LIG d   1      -5.068  74.945 114.864  0.00  0.00     0.016 C 
ATOM      3  C   LIG d   1      -6.058  74.183 115.527  0.00  0.00     0.038 C 
ATOM      4  C   LIG d   1      -6.894  74.744 116.503  0.00  0.00     0.028 C 
ATOM      5  C   LIG d   1      -6.259  75.915 117.246  0.00  0.00    -0.047 C 
ATOM      6  C   LIG d   1      -5.715  76.928 116.213  0.00  0.00     0.091 C 
ENDROOT
BRANCH   1   7
ATOM      7  O   LIG d   1      -4.596  77.071 114.038  0.00  0.00    -0.368 OA
BRANCH   7   8
ATOM      8  C   LIG d   1      -3.315  76.996 113.364  0.00  0.00     0.119 C 
BRANCH   8   9
ATOM      9  C   LIG d   1      -2.268  77.650 114.286  0.00  0.00     0.028 C 
ATOM     10  C   LIG d   1      -1.124  76.689 114.650  0.00  0.00     0.006 C 
ENDBRANCH   8   9
BRANCH   8  11
ATOM     11  C   LIG d   1      -3.309  77.836 112.083  0.00  0.00     0.028 C 
ATOM     12  C   LIG d   1      -2.465  79.114 112.213  0.00  0.00     0.006 C 
ENDBRANCH   8  11
ENDBRANCH   7   8
ENDBRANCH   1   7
BRANCH   6  13
ATOM     13  N   LIG d   1      -5.003  78.064 116.853  0.00  0.00    -0.311 N 
ATOM     14  C   LIG d   1      -5.606  79.192 117.224  0.00  0.00     0.210 C 
ATOM     15  C   LIG d   1      -4.683  80.244 117.848  0.00  0.00     0.109 C 
ATOM     16  O   LIG d   1      -6.823  79.409 117.125  0.00  0.00    -0.276 OA
ATOM     17  H   LIG d   1      -4.018  77.961 117.000  0.00  0.00     0.149 HD
ENDBRANCH   6  13
BRANCH   5  18
ATOM     18  N   LIG d   1      -7.286  76.490 118.134  0.00  0.00     0.381 N 
ATOM     19  H   LIG d   1      -8.183  76.107 117.908  0.00  0.00    -0.090 HD
ATOM     20  H   LIG d   1      -7.322  77.483 117.989  0.00  0.00    -0.090 HD
ATOM     21  H   LIG d   1      -7.064  76.293 119.085  0.00  0.00    -0.090 HD
ENDBRANCH   5  18
BRANCH   3  22
ATOM     22  C   LIG d   1      -6.191  72.833 115.242  0.00  0.00     0.382 C 
ATOM     23  O   LIG d   1      -6.882  72.099 115.990  0.00  0.00    -0.241 OA
ATOM     24  O   LIG d   1      -5.593  72.330 114.272  0.00  0.00    -0.241 OA
ENDBRANCH   3  22
TORSDOF 7
ENDMDL
MODEL 9
REMARK VINA RESULT:      -5.0     14.539     16.596
REMARK  7 active torsions:
REMARK  status: ('A' for Active; 'I' for Inactive)
REMARK    1  A    between atoms: C_2  and  C_3 
REMARK    2  A    between atoms: C_3  and  O_6 
REMARK    3  A    between atoms: C_3  and  C_4 
REMARK    4  A    between atoms: C_7  and  O_6 
REMARK    5  A    between atoms: C_9  and  C_10 
REMARK    6  A    between atoms: N_15  and  C_14 
REMARK    7  A    between atoms: N_20  and  C_19 
REMARK       I    between atoms: C_22  and  N_20 
ROOT
ATOM      1  C   LIG d   1      -4.868  76.634 115.613  0.00  0.00     0.161 C 
ATOM      2  C   LIG d   1      -3.753  75.838 115.300  0.00  0.00     0.016 C 
ATOM      3  C   LIG d   1      -2.561  75.836 116.061  0.00  0.00     0.038 C 
ATOM      4  C   LIG d   1      -2.458  76.521 117.280  0.00  0.00     0.028 C 
ATOM      5  C   LIG d   1      -3.378  77.734 117.373  0.00  0.00    -0.047 C 
ATOM      6  C   LIG d   1      -4.815  77.304 117.002  0.00  0.00     0.091 C 
ENDROOT
BRANCH   1   7
ATOM      7  O   LIG d   1      -6.075  75.859 115.476  0.00  0.00    -0.368 OA
BRANCH   7   8
ATOM      8  C   LIG d   1      -6.175  74.681 116.314  0.00  0.00     0.119 C 
BRANCH   8   9
ATOM      9  C   LIG d   1      -6.406  73.472 115.387  0.00  0.00     0.028 C 
ATOM     10  C   LIG d   1      -6.845  72.216 116.159  0.00  0.00     0.006 C 
ENDBRANCH   8   9
BRANCH   8  11
ATOM     11  C   LIG d   1      -7.410  74.742 117.217  0.00  0.00     0.028 C 
ATOM     12  C   LIG d   1      -8.394  75.850 116.806  0.00  0.00     0.006 C 
ENDBRANCH   8  11
ENDBRANCH   7   8
ENDBRANCH   1   7
BRANCH   6  13
ATOM     13  N   LIG d   1      -5.763  78.449 116.985  0.00  0.00    -0.311 N 
ATOM     14  C   LIG d   1      -6.546  78.767 118.014  0.00  0.00     0.210 C 
ATOM     15  C   LIG d   1      -7.463  79.971 117.781  0.00  0.00     0.109 C 
ATOM     16  O   LIG d   1      -6.545  78.186 119.110  0.00  0.00    -0.276 OA
ATOM     17  H   LIG d   1      -5.806  78.993 116.146  0.00  0.00     0.149 HD
ENDBRANCH   6  13
BRANCH   5  18
ATOM     18  N   LIG d   1      -3.270  78.272 118.742  0.00  0.00     0.381 N 
ATOM     19  H   LIG d   1      -2.343  78.131 119.090  0.00  0.00    -0.090 HD
ATOM     20  H   LIG d   1      -3.909  77.774 119.338  0.00  0.00    -0.090 HD
ATOM     21  H   LIG d   1      -3.490  79.243 118.746  0.00  0.00    -0.090 HD
ENDBRANCH   5  18
BRANCH   3  22
ATOM     22  C   LIG d   1      -1.441  75.173 115.581  0.00  0.00     0.382 C 
ATOM     23  O   LIG d   1      -0.655  74.611 116.381  0.00  0.00    -0.241 OA
ATOM     24  O   LIG d   1      -1.183  75.169 114.363  0.00  0.00    -0.241 OA
ENDBRANCH   3  22
TORSDOF 7
ENDMDL
