MODEL 1
REMARK VINA RESULT:      -6.5      0.000      0.000
REMARK  7 active torsions:
REMARK  status: ('A' for Active; 'I' for Inactive)
REMARK    1  A    between atoms: C_2  and  C_3 
REMARK    2  A    between atoms: C_3  and  O_6 
REMARK    3  A    between atoms: C_3  and  C_4 
REMARK    4  A    between atoms: C_7  and  O_6 
REMARK    5  A    between atoms: C_9  and  C_10 
REMARK    6  A    between atoms: N_15  and  C_14 
REMARK    7  A    between atoms: N_20  and  C_19 
REMARK       I    between atoms: C_22  and  N_20 
ROOT
ATOM      1  C   LIG d   1       1.549  83.716 111.680  0.00  0.00     0.161 C 
ATOM      2  C   LIG d   1       0.503  82.782 111.594  0.00  0.00     0.016 C 
ATOM      3  C   LIG d   1      -0.703  82.895 112.322  0.00  0.00     0.038 C 
ATOM      4  C   LIG d   1      -1.009  84.038 113.077  0.00  0.00     0.028 C 
ATOM      5  C   LIG d   1       0.224  84.771 113.594  0.00  0.00    -0.047 C 
ATOM      6  C   LIG d   1       1.188  85.025 112.412  0.00  0.00     0.091 C 
ENDROOT
BRANCH   1   7
ATOM      7  O   LIG d   1       2.057  84.003 110.362  0.00  0.00    -0.368 OA
BRANCH   7   8
ATOM      8  C   LIG d   1       1.119  83.851 109.269  0.00  0.00     0.119 C 
BRANCH   8   9
ATOM      9  C   LIG d   1       1.832  83.064 108.153  0.00  0.00     0.028 C 
ATOM     10  C   LIG d   1       1.336  83.456 106.750  0.00  0.00     0.006 C 
ENDBRANCH   8   9
BRANCH   8  11
ATOM     11  C   LIG d   1       0.762  85.204 108.648  0.00  0.00     0.028 C 
ATOM     12  C   LIG d   1      -0.449  85.869 109.320  0.00  0.00     0.006 C 
ENDBRANCH   8  11
ENDBRANCH   7   8
ENDBRANCH   1   7
BRANCH   6  13
ATOM     13  N   LIG d   1       2.458  85.664 112.845  0.00  0.00    -0.311 N 
ATOM     14  C   LIG d   1       3.001  86.711 112.226  0.00  0.00     0.210 C 
ATOM     15  C   LIG d   1       4.323  87.201 112.823  0.00  0.00     0.109 C 
ATOM     16  O   LIG d   1       2.495  87.301 111.259  0.00  0.00    -0.276 OA
ATOM     17  H   LIG d   1       2.919  85.268 113.641  0.00  0.00     0.149 HD
ENDBRANCH   6  13
BRANCH   5  18
ATOM     18  N   LIG d   1      -0.235  86.013 114.244  0.00  0.00     0.381 N 
ATOM     19  H   LIG d   1       0.516  86.421 114.763  0.00  0.00    -0.090 HD
ATOM     20  H   LIG d   1      -0.977  85.789 114.884  0.00  0.00    -0.090 HD
ATOM     21  H   LIG d   1      -0.562  86.656 113.557  0.00  0.00    -0.090 HD
ENDBRANCH   5  18
BRANCH   3  22
ATOM     22  C   LIG d   1      -1.602  81.840 112.332  0.00  0.00     0.382 C 
ATOM     23  O   LIG d   1      -1.234  80.700 111.958  0.00  0.00    -0.241 OA
ATOM     24  O   LIG d   1      -2.788  82.022 112.667  0.00  0.00    -0.241 OA
ENDBRANCH   3  22
TORSDOF 7
ENDMDL
MODEL 2
REMARK VINA RESULT:      -6.5      2.975      5.169
REMARK  7 active torsions:
REMARK  status: ('A' for Active; 'I' for Inactive)
REMARK    1  A    between atoms: C_2  and  C_3 
REMARK    2  A    between atoms: C_3  and  O_6 
REMARK    3  A    between atoms: C_3  and  C_4 
REMARK    4  A    between atoms: C_7  and  O_6 
REMARK    5  A    between atoms: C_9  and  C_10 
REMARK    6  A    between atoms: N_15  and  C_14 
REMARK    7  A    between atoms: N_20  and  C_19 
REMARK       I    between atoms: C_22  and  N_20 
ROOT
ATOM      1  C   LIG d   1       0.444  82.396 111.440  0.00  0.00     0.161 C 
ATOM      2  C   LIG d   1       1.272  81.913 110.413  0.00  0.00     0.016 C 
ATOM      3  C   LIG d   1       1.082  80.659 109.786  0.00  0.00     0.038 C 
ATOM      4  C   LIG d   1      -0.045  79.865 110.042  0.00  0.00     0.028 C 
ATOM      5  C   LIG d   1      -0.634  80.080 111.432  0.00  0.00    -0.047 C 
ATOM      6  C   LIG d   1      -0.856  81.593 111.655  0.00  0.00     0.091 C 
ENDROOT
BRANCH   1   7
ATOM      7  O   LIG d   1       0.142  83.787 111.210  0.00  0.00    -0.368 OA
BRANCH   7   8
ATOM      8  C   LIG d   1       0.975  84.468 110.240  0.00  0.00     0.119 C 
BRANCH   8   9
ATOM      9  C   LIG d   1       1.878  85.449 111.013  0.00  0.00     0.028 C 
ATOM     10  C   LIG d   1       3.353  85.346 110.590  0.00  0.00     0.006 C 
ENDBRANCH   8   9
BRANCH   8  11
ATOM     11  C   LIG d   1       0.137  85.342 109.302  0.00  0.00     0.028 C 
ATOM     12  C   LIG d   1      -1.126  85.900 109.977  0.00  0.00     0.006 C 
ENDBRANCH   8  11
ENDBRANCH   7   8
ENDBRANCH   1   7
BRANCH   6  13
ATOM     13  N   LIG d   1      -1.352  81.898 113.023  0.00  0.00    -0.311 N 
ATOM     14  C   LIG d   1      -2.643  81.913 113.348  0.00  0.00     0.210 C 
ATOM     15  C   LIG d   1      -2.938  82.271 114.808  0.00  0.00     0.109 C 
ATOM     16  O   LIG d   1      -3.571  81.632 112.574  0.00  0.00    -0.276 OA
ATOM     17  H   LIG d   1      -0.665  82.107 113.721  0.00  0.00     0.149 HD
ENDBRANCH   6  13
BRANCH   5  18
ATOM     18  N   LIG d   1      -1.881  79.295 111.514  0.00  0.00     0.381 N 
ATOM     19  H   LIG d   1      -2.666  79.911 111.582  0.00  0.00    -0.090 HD
ATOM     20  H   LIG d   1      -1.853  78.727 112.343  0.00  0.00    -0.090 HD
ATOM     21  H   LIG d   1      -1.972  78.716 110.709  0.00  0.00    -0.090 HD
ENDBRANCH   5  18
BRANCH   3  22
ATOM     22  C   LIG d   1       2.049  80.171 108.921  0.00  0.00     0.382 C 
ATOM     23  O   LIG d   1       2.727  80.965 108.225  0.00  0.00    -0.241 OA
ATOM     24  O   LIG d   1       2.222  78.944 108.794  0.00  0.00    -0.241 OA
ENDBRANCH   3  22
TORSDOF 7
ENDMDL
MODEL 3
REMARK VINA RESULT:      -6.3      1.316      1.902
REMARK  7 active torsions:
REMARK  status: ('A' for Active; 'I' for Inactive)
REMARK    1  A    between atoms: C_2  and  C_3 
REMARK    2  A    between atoms: C_3  and  O_6 
REMARK    3  A    between atoms: C_3  and  C_4 
REMARK    4  A    between atoms: C_7  and  O_6 
REMARK    5  A    between atoms: C_9  and  C_10 
REMARK    6  A    between atoms: N_15  and  C_14 
REMARK    7  A    between atoms: N_20  and  C_19 
REMARK       I    between atoms: C_22  and  N_20 
ROOT
ATOM      1  C   LIG d   1       0.910  83.008 111.272  0.00  0.00     0.161 C 
ATOM      2  C   LIG d   1      -0.192  82.169 111.503  0.00  0.00     0.016 C 
ATOM      3  C   LIG d   1      -1.198  82.449 112.457  0.00  0.00     0.038 C 
ATOM      4  C   LIG d   1      -1.249  83.671 113.143  0.00  0.00     0.028 C 
ATOM      5  C   LIG d   1       0.117  84.330 113.310  0.00  0.00    -0.047 C 
ATOM      6  C   LIG d   1       0.812  84.400 111.932  0.00  0.00     0.091 C 
ENDROOT
BRANCH   1   7
ATOM      7  O   LIG d   1       1.135  83.140 109.855  0.00  0.00    -0.368 OA
BRANCH   7   8
ATOM      8  C   LIG d   1       2.033  82.172 109.259  0.00  0.00     0.119 C 
BRANCH   8   9
ATOM      9  C   LIG d   1       3.381  82.274 109.999  0.00  0.00     0.028 C 
ATOM     10  C   LIG d   1       4.451  83.005 109.170  0.00  0.00     0.006 C 
ENDBRANCH   8   9
BRANCH   8  11
ATOM     11  C   LIG d   1       2.343  82.523 107.801  0.00  0.00     0.028 C 
ATOM     12  C   LIG d   1       1.314  83.485 107.188  0.00  0.00     0.006 C 
ENDBRANCH   8  11
ENDBRANCH   7   8
ENDBRANCH   1   7
BRANCH   6  13
ATOM     13  N   LIG d   1       2.189  84.954 112.019  0.00  0.00    -0.311 N 
ATOM     14  C   LIG d   1       2.592  86.025 111.337  0.00  0.00     0.210 C 
ATOM     15  C   LIG d   1       4.057  86.417 111.557  0.00  0.00     0.109 C 
ATOM     16  O   LIG d   1       1.868  86.707 110.597  0.00  0.00    -0.276 OA
ATOM     17  H   LIG d   1       2.834  84.481 112.621  0.00  0.00     0.149 HD
ENDBRANCH   6  13
BRANCH   5  18
ATOM     18  N   LIG d   1      -0.099  85.657 113.917  0.00  0.00     0.381 N 
ATOM     19  H   LIG d   1      -0.828  85.602 114.601  0.00  0.00    -0.090 HD
ATOM     20  H   LIG d   1      -0.387  86.299 113.200  0.00  0.00    -0.090 HD
ATOM     21  H   LIG d   1       0.742  85.978 114.343  0.00  0.00    -0.090 HD
ENDBRANCH   5  18
BRANCH   3  22
ATOM     22  C   LIG d   1      -2.144  81.483 112.762  0.00  0.00     0.382 C 
ATOM     23  O   LIG d   1      -3.366  81.762 112.705  0.00  0.00    -0.241 OA
ATOM     24  O   LIG d   1      -1.791  80.348 113.135  0.00  0.00    -0.241 OA
ENDBRANCH   3  22
TORSDOF 7
ENDMDL
MODEL 4
REMARK VINA RESULT:      -6.1      2.669      5.207
REMARK  7 active torsions:
REMARK  status: ('A' for Active; 'I' for Inactive)
REMARK    1  A    between atoms: C_2  and  C_3 
REMARK    2  A    between atoms: C_3  and  O_6 
REMARK    3  A    between atoms: C_3  and  C_4 
REMARK    4  A    between atoms: C_7  and  O_6 
REMARK    5  A    between atoms: C_9  and  C_10 
REMARK    6  A    between atoms: N_15  and  C_14 
REMARK    7  A    between atoms: N_20  and  C_19 
REMARK       I    between atoms: C_22  and  N_20 
ROOT
ATOM      1  C   LIG d   1       1.337  82.799 111.786  0.00  0.00     0.161 C 
ATOM      2  C   LIG d   1       2.233  82.741 110.705  0.00  0.00     0.016 C 
ATOM      3  C   LIG d   1       2.133  81.792 109.661  0.00  0.00     0.038 C 
ATOM      4  C   LIG d   1       1.034  80.929 109.548  0.00  0.00     0.028 C 
ATOM      5  C   LIG d   1       0.371  80.612 110.884  0.00  0.00    -0.047 C 
ATOM      6  C   LIG d   1       0.068  81.937 111.620  0.00  0.00     0.091 C 
ENDROOT
BRANCH   1   7
ATOM      7  O   LIG d   1       0.981  84.170 112.051  0.00  0.00    -0.368 OA
BRANCH   7   8
ATOM      8  C   LIG d   1      -0.062  84.731 111.215  0.00  0.00     0.119 C 
BRANCH   8   9
ATOM      9  C   LIG d   1       0.578  85.840 110.358  0.00  0.00     0.028 C 
ATOM     10  C   LIG d   1       0.546  85.513 108.856  0.00  0.00     0.006 C 
ENDBRANCH   8   9
BRANCH   8  11
ATOM     11  C   LIG d   1      -1.132  85.434 112.056  0.00  0.00     0.028 C 
ATOM     12  C   LIG d   1      -0.821  85.405 113.561  0.00  0.00     0.006 C 
ENDBRANCH   8  11
ENDBRANCH   7   8
ENDBRANCH   1   7
BRANCH   6  13
ATOM     13  N   LIG d   1      -0.504  81.716 112.974  0.00  0.00    -0.311 N 
ATOM     14  C   LIG d   1      -1.807  81.794 113.241  0.00  0.00     0.210 C 
ATOM     15  C   LIG d   1      -2.182  81.550 114.706  0.00  0.00     0.109 C 
ATOM     16  O   LIG d   1      -2.690  82.011 112.398  0.00  0.00    -0.276 OA
ATOM     17  H   LIG d   1       0.138  81.503 113.712  0.00  0.00     0.149 HD
ENDBRANCH   6  13
BRANCH   5  18
ATOM     18  N   LIG d   1      -0.839  79.816 110.604  0.00  0.00     0.381 N 
ATOM     19  H   LIG d   1      -1.647  80.296 110.949  0.00  0.00    -0.090 HD
ATOM     20  H   LIG d   1      -0.767  78.936 111.083  0.00  0.00    -0.090 HD
ATOM     21  H   LIG d   1      -0.928  79.664 109.624  0.00  0.00    -0.090 HD
ENDBRANCH   5  18
BRANCH   3  22
ATOM     22  C   LIG d   1       3.161  81.675 108.738  0.00  0.00     0.382 C 
ATOM     23  O   LIG d   1       3.961  80.711 108.810  0.00  0.00    -0.241 OA
ATOM     24  O   LIG d   1       3.326  82.544 107.862  0.00  0.00    -0.241 OA
ENDBRANCH   3  22
TORSDOF 7
ENDMDL
MODEL 5
REMARK VINA RESULT:      -5.9      2.789      4.195
REMARK  7 active torsions:
REMARK  status: ('A' for Active; 'I' for Inactive)
REMARK    1  A    between atoms: C_2  and  C_3 
REMARK    2  A    between atoms: C_3  and  O_6 
REMARK    3  A    between atoms: C_3  and  C_4 
REMARK    4  A    between atoms: C_7  and  O_6 
REMARK    5  A    between atoms: C_9  and  C_10 
REMARK    6  A    between atoms: N_15  and  C_14 
REMARK    7  A    between atoms: N_20  and  C_19 
REMARK       I    between atoms: C_22  and  N_20 
ROOT
ATOM      1  C   LIG d   1      -0.175  82.994 111.024  0.00  0.00     0.161 C 
ATOM      2  C   LIG d   1      -0.720  83.901 111.948  0.00  0.00     0.016 C 
ATOM      3  C   LIG d   1      -1.144  83.531 113.245  0.00  0.00     0.038 C 
ATOM      4  C   LIG d   1      -0.909  82.249 113.764  0.00  0.00     0.028 C 
ATOM      5  C   LIG d   1      -0.821  81.168 112.691  0.00  0.00    -0.047 C 
ATOM      6  C   LIG d   1       0.191  81.614 111.611  0.00  0.00     0.091 C 
ENDROOT
BRANCH   1   7
ATOM      7  O   LIG d   1       0.971  83.583 110.378  0.00  0.00    -0.368 OA
BRANCH   7   8
ATOM      8  C   LIG d   1       0.752  84.106 109.045  0.00  0.00     0.119 C 
BRANCH   8   9
ATOM      9  C   LIG d   1       1.902  83.598 108.154  0.00  0.00     0.028 C 
ATOM     10  C   LIG d   1       1.461  83.376 106.697  0.00  0.00     0.006 C 
ENDBRANCH   8   9
BRANCH   8  11
ATOM     11  C   LIG d   1       0.865  85.634 109.021  0.00  0.00     0.028 C 
ATOM     12  C   LIG d   1       1.700  86.188 110.186  0.00  0.00     0.006 C 
ENDBRANCH   8  11
ENDBRANCH   7   8
ENDBRANCH   1   7
BRANCH   6  13
ATOM     13  N   LIG d   1       0.275  80.652 110.482  0.00  0.00    -0.311 N 
ATOM     14  C   LIG d   1       1.425  80.268 109.930  0.00  0.00     0.210 C 
ATOM     15  C   LIG d   1       1.286  79.285 108.764  0.00  0.00     0.109 C 
ATOM     16  O   LIG d   1       2.548  80.623 110.317  0.00  0.00    -0.276 OA
ATOM     17  H   LIG d   1      -0.588  80.290 110.126  0.00  0.00     0.149 HD
ENDBRANCH   6  13
BRANCH   5  18
ATOM     18  N   LIG d   1      -0.438  79.909 113.358  0.00  0.00     0.381 N 
ATOM     19  H   LIG d   1       0.334  79.493 112.877  0.00  0.00    -0.090 HD
ATOM     20  H   LIG d   1      -1.214  79.272 113.320  0.00  0.00    -0.090 HD
ATOM     21  H   LIG d   1      -0.192  80.087 114.307  0.00  0.00    -0.090 HD
ENDBRANCH   5  18
BRANCH   3  22
ATOM     22  C   LIG d   1      -1.846  84.439 114.023  0.00  0.00     0.382 C 
ATOM     23  O   LIG d   1      -2.835  84.056 114.694  0.00  0.00    -0.241 OA
ATOM     24  O   LIG d   1      -1.529  85.643 114.029  0.00  0.00    -0.241 OA
ENDBRANCH   3  22
TORSDOF 7
ENDMDL
MODEL 6
REMARK VINA RESULT:      -5.8      2.460      4.862
REMARK  7 active torsions:
REMARK  status: ('A' for Active; 'I' for Inactive)
REMARK    1  A    between atoms: C_2  and  C_3 
REMARK    2  A    between atoms: C_3  and  O_6 
REMARK    3  A    between atoms: C_3  and  C_4 
REMARK    4  A    between atoms: C_7  and  O_6 
REMARK    5  A    between atoms: C_9  and  C_10 
REMARK    6  A    between atoms: N_15  and  C_14 
REMARK    7  A    between atoms: N_20  and  C_19 
REMARK       I    between atoms: C_22  and  N_20 
ROOT
ATOM      1  C   LIG d   1      -0.432  82.375 111.063  0.00  0.00     0.161 C 
ATOM      2  C   LIG d   1      -0.390  83.715 110.645  0.00  0.00     0.016 C 
ATOM      3  C   LIG d   1      -0.715  84.804 111.487  0.00  0.00     0.038 C 
ATOM      4  C   LIG d   1      -0.961  84.634 112.858  0.00  0.00     0.028 C 
ATOM      5  C   LIG d   1      -1.507  83.254 113.208  0.00  0.00    -0.047 C 
ATOM      6  C   LIG d   1      -0.590  82.177 112.586  0.00  0.00     0.091 C 
ENDROOT
BRANCH   1   7
ATOM      7  O   LIG d   1       0.735  81.677 110.586  0.00  0.00    -0.368 OA
BRANCH   7   8
ATOM      8  C   LIG d   1       1.681  82.466 109.822  0.00  0.00     0.119 C 
BRANCH   8   9
ATOM      9  C   LIG d   1       1.661  81.938 108.374  0.00  0.00     0.028 C 
ATOM     10  C   LIG d   1       1.495  83.064 107.341  0.00  0.00     0.006 C 
ENDBRANCH   8   9
BRANCH   8  11
ATOM     11  C   LIG d   1       3.114  82.247 110.314  0.00  0.00     0.028 C 
ATOM     12  C   LIG d   1       3.999  83.492 110.145  0.00  0.00     0.006 C 
ENDBRANCH   8  11
ENDBRANCH   7   8
ENDBRANCH   1   7
BRANCH   6  13
ATOM     13  N   LIG d   1      -1.099  80.799 112.810  0.00  0.00    -0.311 N 
ATOM     14  C   LIG d   1      -2.392  80.482 112.776  0.00  0.00     0.210 C 
ATOM     15  C   LIG d   1      -2.703  79.007 113.054  0.00  0.00     0.109 C 
ATOM     16  O   LIG d   1      -3.309  81.274 112.511  0.00  0.00    -0.276 OA
ATOM     17  H   LIG d   1      -0.421  80.088 113.001  0.00  0.00     0.149 HD
ENDBRANCH   6  13
BRANCH   5  18
ATOM     18  N   LIG d   1      -1.586  83.166 114.679  0.00  0.00     0.381 N 
ATOM     19  H   LIG d   1      -0.839  83.689 115.090  0.00  0.00    -0.090 HD
ATOM     20  H   LIG d   1      -1.487  82.205 114.953  0.00  0.00    -0.090 HD
ATOM     21  H   LIG d   1      -2.462  83.521 114.995  0.00  0.00    -0.090 HD
ENDBRANCH   5  18
BRANCH   3  22
ATOM     22  C   LIG d   1      -0.837  86.076 110.949  0.00  0.00     0.382 C 
ATOM     23  O   LIG d   1       0.132  86.596 110.345  0.00  0.00    -0.241 OA
ATOM     24  O   LIG d   1      -1.888  86.728 111.099  0.00  0.00    -0.241 OA
ENDBRANCH   3  22
TORSDOF 7
ENDMDL
MODEL 7
REMARK VINA RESULT:      -5.8      2.770      5.807
REMARK  7 active torsions:
REMARK  status: ('A' for Active; 'I' for Inactive)
REMARK    1  A    between atoms: C_2  and  C_3 
REMARK    2  A    between atoms: C_3  and  O_6 
REMARK    3  A    between atoms: C_3  and  C_4 
REMARK    4  A    between atoms: C_7  and  O_6 
REMARK    5  A    between atoms: C_9  and  C_10 
REMARK    6  A    between atoms: N_15  and  C_14 
REMARK    7  A    between atoms: N_20  and  C_19 
REMARK       I    between atoms: C_22  and  N_20 
ROOT
ATOM      1  C   LIG d   1       1.087  82.149 112.083  0.00  0.00     0.161 C 
ATOM      2  C   LIG d   1       2.159  82.617 111.305  0.00  0.00     0.016 C 
ATOM      3  C   LIG d   1       2.338  82.281 109.943  0.00  0.00     0.038 C 
ATOM      4  C   LIG d   1       1.367  81.571 109.221  0.00  0.00     0.028 C 
ATOM      5  C   LIG d   1       0.516  80.653 110.092  0.00  0.00    -0.047 C 
ATOM      6  C   LIG d   1      -0.042  81.465 111.283  0.00  0.00     0.091 C 
ENDROOT
BRANCH   1   7
ATOM      7  O   LIG d   1       0.554  83.226 112.879  0.00  0.00    -0.368 OA
BRANCH   7   8
ATOM      8  C   LIG d   1       0.691  84.557 112.323  0.00  0.00     0.119 C 
BRANCH   8   9
ATOM      9  C   LIG d   1       1.027  85.512 113.485  0.00  0.00     0.028 C 
ATOM     10  C   LIG d   1      -0.123  85.628 114.500  0.00  0.00     0.006 C 
ENDBRANCH   8   9
BRANCH   8  11
ATOM     11  C   LIG d   1      -0.639  85.063 111.755  0.00  0.00     0.028 C 
ATOM     12  C   LIG d   1      -0.671  85.056 110.218  0.00  0.00     0.006 C 
ENDBRANCH   8  11
ENDBRANCH   7   8
ENDBRANCH   1   7
BRANCH   6  13
ATOM     13  N   LIG d   1      -0.817  80.622 112.230  0.00  0.00    -0.311 N 
ATOM     14  C   LIG d   1      -1.991  80.986 112.743  0.00  0.00     0.210 C 
ATOM     15  C   LIG d   1      -2.612  79.978 113.715  0.00  0.00     0.109 C 
ATOM     16  O   LIG d   1      -2.592  82.033 112.460  0.00  0.00    -0.276 OA
ATOM     17  H   LIG d   1      -0.417  79.742 112.489  0.00  0.00     0.149 HD
ENDBRANCH   6  13
BRANCH   5  18
ATOM     18  N   LIG d   1      -0.541  80.082 109.236  0.00  0.00     0.381 N 
ATOM     19  H   LIG d   1      -0.247  80.096 108.280  0.00  0.00    -0.090 HD
ATOM     20  H   LIG d   1      -1.368  80.646 109.320  0.00  0.00    -0.090 HD
ATOM     21  H   LIG d   1      -0.739  79.146 109.516  0.00  0.00    -0.090 HD
ENDBRANCH   5  18
BRANCH   3  22
ATOM     22  C   LIG d   1       3.518  82.622 109.301  0.00  0.00     0.382 C 
ATOM     23  O   LIG d   1       4.142  81.760 108.636  0.00  0.00    -0.241 OA
ATOM     24  O   LIG d   1       3.990  83.770 109.413  0.00  0.00    -0.241 OA
ENDBRANCH   3  22
TORSDOF 7
ENDMDL
MODEL 8
REMARK VINA RESULT:      -5.7      2.931      4.520
REMARK  7 active torsions:
REMARK  status: ('A' for Active; 'I' for Inactive)
REMARK    1  A    between atoms: C_2  and  C_3 
REMARK    2  A    between atoms: C_3  and  O_6 
REMARK    3  A    between atoms: C_3  and  C_4 
REMARK    4  A    between atoms: C_7  and  O_6 
REMARK    5  A    between atoms: C_9  and  C_10 
REMARK    6  A    between atoms: N_15  and  C_14 
REMARK    7  A    between atoms: N_20  and  C_19 
REMARK       I    between atoms: C_22  and  N_20 
ROOT
ATOM      1  C   LIG d   1       0.174  82.420 111.610  0.00  0.00     0.161 C 
ATOM      2  C   LIG d   1      -0.991  82.134 112.342  0.00  0.00     0.016 C 
ATOM      3  C   LIG d   1      -1.679  80.902 112.260  0.00  0.00     0.038 C 
ATOM      4  C   LIG d   1      -1.161  79.810 111.548  0.00  0.00     0.028 C 
ATOM      5  C   LIG d   1      -0.254  80.215 110.391  0.00  0.00    -0.047 C 
ATOM      6  C   LIG d   1       0.815  81.202 110.914  0.00  0.00     0.091 C 
ENDROOT
BRANCH   1   7
ATOM      7  O   LIG d   1       1.136  83.077 112.459  0.00  0.00    -0.368 OA
BRANCH   7   8
ATOM      8  C   LIG d   1       1.440  84.455 112.131  0.00  0.00     0.119 C 
BRANCH   8   9
ATOM      9  C   LIG d   1       2.966  84.633 112.249  0.00  0.00     0.028 C 
ATOM     10  C   LIG d   1       3.576  85.309 111.009  0.00  0.00     0.006 C 
ENDBRANCH   8   9
BRANCH   8  11
ATOM     11  C   LIG d   1       0.839  85.418 113.159  0.00  0.00     0.028 C 
ATOM     12  C   LIG d   1       1.771  85.672 114.353  0.00  0.00     0.006 C 
ENDBRANCH   8  11
ENDBRANCH   7   8
ENDBRANCH   1   7
BRANCH   6  13
ATOM     13  N   LIG d   1       1.693  81.714 109.829  0.00  0.00    -0.311 N 
ATOM     14  C   LIG d   1       3.022  81.719 109.902  0.00  0.00     0.210 C 
ATOM     15  C   LIG d   1       3.735  82.309 108.681  0.00  0.00     0.109 C 
ATOM     16  O   LIG d   1       3.680  81.260 110.848  0.00  0.00    -0.276 OA
ATOM     17  H   LIG d   1       1.242  82.076 109.011  0.00  0.00     0.149 HD
ENDBRANCH   6  13
BRANCH   5  18
ATOM     18  N   LIG d   1       0.324  78.982 109.825  0.00  0.00     0.381 N 
ATOM     19  H   LIG d   1      -0.078  78.183 110.272  0.00  0.00    -0.090 HD
ATOM     20  H   LIG d   1       1.314  78.977 110.000  0.00  0.00    -0.090 HD
ATOM     21  H   LIG d   1       0.153  78.945 108.844  0.00  0.00    -0.090 HD
ENDBRANCH   5  18
BRANCH   3  22
ATOM     22  C   LIG d   1      -2.921  80.767 112.862  0.00  0.00     0.382 C 
ATOM     23  O   LIG d   1      -3.199  79.721 113.497  0.00  0.00    -0.241 OA
ATOM     24  O   LIG d   1      -3.782  81.659 112.740  0.00  0.00    -0.241 OA
ENDBRANCH   3  22
TORSDOF 7
ENDMDL
MODEL 9
REMARK VINA RESULT:      -5.6      1.873      5.005
REMARK  7 active torsions:
REMARK  status: ('A' for Active; 'I' for Inactive)
REMARK    1  A    between atoms: C_2  and  C_3 
REMARK    2  A    between atoms: C_3  and  O_6 
REMARK    3  A    between atoms: C_3  and  C_4 
REMARK    4  A    between atoms: C_7  and  O_6 
REMARK    5  A    between atoms: C_9  and  C_10 
REMARK    6  A    between atoms: N_15  and  C_14 
REMARK    7  A    between atoms: N_20  and  C_19 
REMARK       I    between atoms: C_22  and  N_20 
ROOT
ATOM      1  C   LIG d   1       0.746  83.816 110.650  0.00  0.00     0.161 C 
ATOM      2  C   LIG d   1       1.699  84.842 110.543  0.00  0.00     0.016 C 
ATOM      3  C   LIG d   1       2.336  85.432 111.658  0.00  0.00     0.038 C 
ATOM      4  C   LIG d   1       2.174  84.928 112.957  0.00  0.00     0.028 C 
ATOM      5  C   LIG d   1       0.839  84.223 113.171  0.00  0.00    -0.047 C 
ATOM      6  C   LIG d   1       0.638  83.177 112.051  0.00  0.00     0.091 C 
ENDROOT
BRANCH   1   7
ATOM      7  O   LIG d   1       1.003  82.804 109.656  0.00  0.00    -0.368 OA
BRANCH   7   8
ATOM      8  C   LIG d   1       2.396  82.499 109.404  0.00  0.00     0.119 C 
BRANCH   8   9
ATOM      9  C   LIG d   1       2.606  82.520 107.877  0.00  0.00     0.028 C 
ATOM     10  C   LIG d   1       1.406  83.124 107.129  0.00  0.00     0.006 C 
ENDBRANCH   8   9
BRANCH   8  11
ATOM     11  C   LIG d   1       2.742  81.072 109.841  0.00  0.00     0.028 C 
ATOM     12  C   LIG d   1       3.876  80.452 109.009  0.00  0.00     0.006 C 
ENDBRANCH   8  11
ENDBRANCH   7   8
ENDBRANCH   1   7
BRANCH   6  13
ATOM     13  N   LIG d   1      -0.682  82.501 112.136  0.00  0.00    -0.311 N 
ATOM     14  C   LIG d   1      -0.884  81.369 112.809  0.00  0.00     0.210 C 
ATOM     15  C   LIG d   1      -2.317  80.830 112.752  0.00  0.00     0.109 C 
ATOM     16  O   LIG d   1      -0.020  80.777 113.473  0.00  0.00    -0.276 OA
ATOM     17  H   LIG d   1      -1.447  82.929 111.652  0.00  0.00     0.149 HD
ENDBRANCH   6  13
BRANCH   5  18
ATOM     18  N   LIG d   1       0.860  83.628 114.521  0.00  0.00     0.381 N 
ATOM     19  H   LIG d   1       1.202  82.689 114.471  0.00  0.00    -0.090 HD
ATOM     20  H   LIG d   1      -0.078  83.604 114.880  0.00  0.00    -0.090 HD
ATOM     21  H   LIG d   1       1.440  84.169 115.123  0.00  0.00    -0.090 HD
ENDBRANCH   5  18
BRANCH   3  22
ATOM     22  C   LIG d   1       3.117  86.565 111.485  0.00  0.00     0.382 C 
ATOM     23  O   LIG d   1       4.332  86.450 111.193  0.00  0.00    -0.241 OA
ATOM     24  O   LIG d   1       2.632  87.699 111.659  0.00  0.00    -0.241 OA
ENDBRANCH   3  22
TORSDOF 7
ENDMDL
