MODEL 1
REMARK VINA RESULT:      -6.4      0.000      0.000
REMARK  7 active torsions:
REMARK  status: ('A' for Active; 'I' for Inactive)
REMARK    1  A    between atoms: C_2  and  C_3 
REMARK    2  A    between atoms: C_3  and  O_6 
REMARK    3  A    between atoms: C_3  and  C_4 
REMARK    4  A    between atoms: C_7  and  O_6 
REMARK    5  A    between atoms: C_9  and  C_10 
REMARK    6  A    between atoms: N_15  and  C_14 
REMARK    7  A    between atoms: N_20  and  C_19 
REMARK       I    between atoms: C_22  and  N_20 
ROOT
ATOM      1  C   LIG d   1       0.399  82.643 111.192  0.00  0.00     0.161 C 
ATOM      2  C   LIG d   1      -0.740  82.371 111.968  0.00  0.00     0.016 C 
ATOM      3  C   LIG d   1      -1.251  81.068 112.171  0.00  0.00     0.038 C 
ATOM      4  C   LIG d   1      -0.564  79.926 111.733  0.00  0.00     0.028 C 
ATOM      5  C   LIG d   1       0.319  80.180 110.516  0.00  0.00    -0.047 C 
ATOM      6  C   LIG d   1       1.225  81.400 110.799  0.00  0.00     0.091 C 
ENDROOT
BRANCH   1   7
ATOM      7  O   LIG d   1       1.232  83.605 111.868  0.00  0.00    -0.368 OA
BRANCH   7   8
ATOM      8  C   LIG d   1       1.279  84.930 111.284  0.00  0.00     0.119 C 
BRANCH   8   9
ATOM      9  C   LIG d   1       0.370  84.919 110.040  0.00  0.00     0.028 C 
ATOM     10  C   LIG d   1      -0.748  85.972 110.121  0.00  0.00     0.006 C 
ENDBRANCH   8   9
BRANCH   8  11
ATOM     11  C   LIG d   1       2.680  85.259 110.760  0.00  0.00     0.028 C 
ATOM     12  C   LIG d   1       3.310  86.471 111.464  0.00  0.00     0.006 C 
ENDBRANCH   8  11
ENDBRANCH   7   8
ENDBRANCH   1   7
BRANCH   6  13
ATOM     13  N   LIG d   1       2.062  81.768 109.627  0.00  0.00    -0.311 N 
ATOM     14  C   LIG d   1       3.387  81.884 109.680  0.00  0.00     0.210 C 
ATOM     15  C   LIG d   1       4.054  82.293 108.363  0.00  0.00     0.109 C 
ATOM     16  O   LIG d   1       4.078  81.656 110.685  0.00  0.00    -0.276 OA
ATOM     17  H   LIG d   1       1.586  81.941 108.763  0.00  0.00     0.149 HD
ENDBRANCH   6  13
BRANCH   5  18
ATOM     18  N   LIG d   1       1.080  78.944 110.252  0.00  0.00     0.381 N 
ATOM     19  H   LIG d   1       0.990  78.318 111.028  0.00  0.00    -0.090 HD
ATOM     20  H   LIG d   1       2.052  79.177 110.147  0.00  0.00    -0.090 HD
ATOM     21  H   LIG d   1       0.744  78.507 109.423  0.00  0.00    -0.090 HD
ENDBRANCH   5  18
BRANCH   3  22
ATOM     22  C   LIG d   1      -2.483  80.901 112.785  0.00  0.00     0.382 C 
ATOM     23  O   LIG d   1      -2.959  79.749 112.932  0.00  0.00    -0.241 OA
ATOM     24  O   LIG d   1      -3.145  81.890 113.153  0.00  0.00    -0.241 OA
ENDBRANCH   3  22
TORSDOF 7
ENDMDL
MODEL 2
REMARK VINA RESULT:      -6.4      2.942      4.074
REMARK  7 active torsions:
REMARK  status: ('A' for Active; 'I' for Inactive)
REMARK    1  A    between atoms: C_2  and  C_3 
REMARK    2  A    between atoms: C_3  and  O_6 
REMARK    3  A    between atoms: C_3  and  C_4 
REMARK    4  A    between atoms: C_7  and  O_6 
REMARK    5  A    between atoms: C_9  and  C_10 
REMARK    6  A    between atoms: N_15  and  C_14 
REMARK    7  A    between atoms: N_20  and  C_19 
REMARK       I    between atoms: C_22  and  N_20 
ROOT
ATOM      1  C   LIG d   1       2.233  85.483 110.263  0.00  0.00     0.161 C 
ATOM      2  C   LIG d   1       1.177  86.215 110.832  0.00  0.00     0.016 C 
ATOM      3  C   LIG d   1      -0.031  85.625 111.269  0.00  0.00     0.038 C 
ATOM      4  C   LIG d   1      -0.207  84.234 111.306  0.00  0.00     0.028 C 
ATOM      5  C   LIG d   1       0.633  83.490 110.273  0.00  0.00    -0.047 C 
ATOM      6  C   LIG d   1       2.103  83.951 110.397  0.00  0.00     0.091 C 
ENDROOT
BRANCH   1   7
ATOM      7  O   LIG d   1       3.488  85.930 110.812  0.00  0.00    -0.368 OA
BRANCH   7   8
ATOM      8  C   LIG d   1       3.434  86.513 112.137  0.00  0.00     0.119 C 
BRANCH   8   9
ATOM      9  C   LIG d   1       4.488  87.635 112.193  0.00  0.00     0.028 C 
ATOM     10  C   LIG d   1       4.041  88.818 113.069  0.00  0.00     0.006 C 
ENDBRANCH   8   9
BRANCH   8  11
ATOM     11  C   LIG d   1       3.858  85.504 113.208  0.00  0.00     0.028 C 
ATOM     12  C   LIG d   1       2.667  84.935 113.996  0.00  0.00     0.006 C 
ENDBRANCH   8  11
ENDBRANCH   7   8
ENDBRANCH   1   7
BRANCH   6  13
ATOM     13  N   LIG d   1       2.979  83.334 109.367  0.00  0.00    -0.311 N 
ATOM     14  C   LIG d   1       4.043  82.588 109.660  0.00  0.00     0.210 C 
ATOM     15  C   LIG d   1       4.820  82.065 108.448  0.00  0.00     0.109 C 
ATOM     16  O   LIG d   1       4.398  82.283 110.809  0.00  0.00    -0.276 OA
ATOM     17  H   LIG d   1       2.746  83.505 108.408  0.00  0.00     0.149 HD
ENDBRANCH   6  13
BRANCH   5  18
ATOM     18  N   LIG d   1       0.458  82.045 110.513  0.00  0.00     0.381 N 
ATOM     19  H   LIG d   1       1.147  81.531 110.001  0.00  0.00    -0.090 HD
ATOM     20  H   LIG d   1      -0.451  81.769 110.185  0.00  0.00    -0.090 HD
ATOM     21  H   LIG d   1       0.542  81.849 111.486  0.00  0.00    -0.090 HD
ENDBRANCH   5  18
BRANCH   3  22
ATOM     22  C   LIG d   1      -1.096  86.434 111.639  0.00  0.00     0.382 C 
ATOM     23  O   LIG d   1      -1.628  87.195 110.796  0.00  0.00    -0.241 OA
ATOM     24  O   LIG d   1      -1.502  86.444 112.817  0.00  0.00    -0.241 OA
ENDBRANCH   3  22
TORSDOF 7
ENDMDL
MODEL 3
REMARK VINA RESULT:      -6.4      1.600      5.035
REMARK  7 active torsions:
REMARK  status: ('A' for Active; 'I' for Inactive)
REMARK    1  A    between atoms: C_2  and  C_3 
REMARK    2  A    between atoms: C_3  and  O_6 
REMARK    3  A    between atoms: C_3  and  C_4 
REMARK    4  A    between atoms: C_7  and  O_6 
REMARK    5  A    between atoms: C_9  and  C_10 
REMARK    6  A    between atoms: N_15  and  C_14 
REMARK    7  A    between atoms: N_20  and  C_19 
REMARK       I    between atoms: C_22  and  N_20 
ROOT
ATOM      1  C   LIG d   1       1.476  81.776 112.120  0.00  0.00     0.161 C 
ATOM      2  C   LIG d   1       2.629  82.163 111.418  0.00  0.00     0.016 C 
ATOM      3  C   LIG d   1       2.835  81.886 110.047  0.00  0.00     0.038 C 
ATOM      4  C   LIG d   1       1.828  81.331 109.243  0.00  0.00     0.028 C 
ATOM      5  C   LIG d   1       0.841  80.466 110.020  0.00  0.00    -0.047 C 
ATOM      6  C   LIG d   1       0.319  81.268 111.234  0.00  0.00     0.091 C 
ENDROOT
BRANCH   1   7
ATOM      7  O   LIG d   1       1.027  82.859 112.958  0.00  0.00    -0.368 OA
BRANCH   7   8
ATOM      8  C   LIG d   1       1.225  84.195 112.433  0.00  0.00     0.119 C 
BRANCH   8   9
ATOM      9  C   LIG d   1       1.926  85.023 113.527  0.00  0.00     0.028 C 
ATOM     10  C   LIG d   1       3.326  85.495 113.100  0.00  0.00     0.006 C 
ENDBRANCH   8   9
BRANCH   8  11
ATOM     11  C   LIG d   1      -0.112  84.900 112.184  0.00  0.00     0.028 C 
ATOM     12  C   LIG d   1      -0.536  84.870 110.707  0.00  0.00     0.006 C 
ENDBRANCH   8  11
ENDBRANCH   7   8
ENDBRANCH   1   7
BRANCH   6  13
ATOM     13  N   LIG d   1      -0.588  80.465 112.095  0.00  0.00    -0.311 N 
ATOM     14  C   LIG d   1      -1.718  80.942 112.614  0.00  0.00     0.210 C 
ATOM     15  C   LIG d   1      -2.495  79.954 113.490  0.00  0.00     0.109 C 
ATOM     16  O   LIG d   1      -2.168  82.079 112.406  0.00  0.00    -0.276 OA
ATOM     17  H   LIG d   1      -0.316  79.521 112.290  0.00  0.00     0.149 HD
ENDBRANCH   6  13
BRANCH   5  18
ATOM     18  N   LIG d   1      -0.230  80.066 109.088  0.00  0.00     0.381 N 
ATOM     19  H   LIG d   1      -1.104  80.030 109.572  0.00  0.00    -0.090 HD
ATOM     20  H   LIG d   1      -0.027  79.147 108.734  0.00  0.00    -0.090 HD
ATOM     21  H   LIG d   1      -0.286  80.715 108.334  0.00  0.00    -0.090 HD
ENDBRANCH   5  18
BRANCH   3  22
ATOM     22  C   LIG d   1       4.075  82.129 109.475  0.00  0.00     0.382 C 
ATOM     23  O   LIG d   1       4.168  82.326 108.240  0.00  0.00    -0.241 OA
ATOM     24  O   LIG d   1       5.107  82.109 110.173  0.00  0.00    -0.241 OA
ENDBRANCH   3  22
TORSDOF 7
ENDMDL
MODEL 4
REMARK VINA RESULT:      -6.3      2.259      4.962
REMARK  7 active torsions:
REMARK  status: ('A' for Active; 'I' for Inactive)
REMARK    1  A    between atoms: C_2  and  C_3 
REMARK    2  A    between atoms: C_3  and  O_6 
REMARK    3  A    between atoms: C_3  and  C_4 
REMARK    4  A    between atoms: C_7  and  O_6 
REMARK    5  A    between atoms: C_9  and  C_10 
REMARK    6  A    between atoms: N_15  and  C_14 
REMARK    7  A    between atoms: N_20  and  C_19 
REMARK       I    between atoms: C_22  and  N_20 
ROOT
ATOM      1  C   LIG d   1       1.714  83.545 109.955  0.00  0.00     0.161 C 
ATOM      2  C   LIG d   1       1.828  84.907 110.278  0.00  0.00     0.016 C 
ATOM      3  C   LIG d   1       0.980  85.562 111.202  0.00  0.00     0.038 C 
ATOM      4  C   LIG d   1       0.051  84.858 111.983  0.00  0.00     0.028 C 
ATOM      5  C   LIG d   1      -0.442  83.573 111.327  0.00  0.00    -0.047 C 
ATOM      6  C   LIG d   1       0.779  82.737 110.880  0.00  0.00     0.091 C 
ENDROOT
BRANCH   1   7
ATOM      7  O   LIG d   1       3.022  82.942 109.914  0.00  0.00    -0.368 OA
BRANCH   7   8
ATOM      8  C   LIG d   1       3.580  82.718 108.596  0.00  0.00     0.119 C 
BRANCH   8   9
ATOM      9  C   LIG d   1       2.501  82.017 107.749  0.00  0.00     0.028 C 
ATOM     10  C   LIG d   1       1.789  82.984 106.788  0.00  0.00     0.006 C 
ENDBRANCH   8   9
BRANCH   8  11
ATOM     11  C   LIG d   1       4.756  81.737 108.648  0.00  0.00     0.028 C 
ATOM     12  C   LIG d   1       4.580  80.653 109.723  0.00  0.00     0.006 C 
ENDBRANCH   8  11
ENDBRANCH   7   8
ENDBRANCH   1   7
BRANCH   6  13
ATOM     13  N   LIG d   1       0.385  81.502 110.153  0.00  0.00    -0.311 N 
ATOM     14  C   LIG d   1       0.166  80.335 110.755  0.00  0.00     0.210 C 
ATOM     15  C   LIG d   1      -0.211  79.183 109.818  0.00  0.00     0.109 C 
ATOM     16  O   LIG d   1       0.217  80.151 111.981  0.00  0.00    -0.276 OA
ATOM     17  H   LIG d   1       0.291  81.569 109.158  0.00  0.00     0.149 HD
ENDBRANCH   6  13
BRANCH   5  18
ATOM     18  N   LIG d   1      -1.295  82.872 112.305  0.00  0.00     0.381 N 
ATOM     19  H   LIG d   1      -0.918  81.965 112.495  0.00  0.00    -0.090 HD
ATOM     20  H   LIG d   1      -2.212  82.756 111.911  0.00  0.00    -0.090 HD
ATOM     21  H   LIG d   1      -1.352  83.400 113.148  0.00  0.00    -0.090 HD
ENDBRANCH   5  18
BRANCH   3  22
ATOM     22  C   LIG d   1       1.030  86.942 111.321  0.00  0.00     0.382 C 
ATOM     23  O   LIG d   1      -0.008  87.584 111.613  0.00  0.00    -0.241 OA
ATOM     24  O   LIG d   1       2.089  87.558 111.098  0.00  0.00    -0.241 OA
ENDBRANCH   3  22
TORSDOF 7
ENDMDL
MODEL 5
REMARK VINA RESULT:      -6.2      2.611      4.776
REMARK  7 active torsions:
REMARK  status: ('A' for Active; 'I' for Inactive)
REMARK    1  A    between atoms: C_2  and  C_3 
REMARK    2  A    between atoms: C_3  and  O_6 
REMARK    3  A    between atoms: C_3  and  C_4 
REMARK    4  A    between atoms: C_7  and  O_6 
REMARK    5  A    between atoms: C_9  and  C_10 
REMARK    6  A    between atoms: N_15  and  C_14 
REMARK    7  A    between atoms: N_20  and  C_19 
REMARK       I    between atoms: C_22  and  N_20 
ROOT
ATOM      1  C   LIG d   1       2.395  83.654 111.930  0.00  0.00     0.161 C 
ATOM      2  C   LIG d   1       1.386  82.684 111.811  0.00  0.00     0.016 C 
ATOM      3  C   LIG d   1       0.007  82.994 111.787  0.00  0.00     0.038 C 
ATOM      4  C   LIG d   1      -0.454  84.318 111.727  0.00  0.00     0.028 C 
ATOM      5  C   LIG d   1       0.507  85.323 112.353  0.00  0.00    -0.047 C 
ATOM      6  C   LIG d   1       1.916  85.110 111.754  0.00  0.00     0.091 C 
ENDROOT
BRANCH   1   7
ATOM      7  O   LIG d   1       3.463  83.363 111.008  0.00  0.00    -0.368 OA
BRANCH   7   8
ATOM      8  C   LIG d   1       3.133  82.481 109.907  0.00  0.00     0.119 C 
BRANCH   8   9
ATOM      9  C   LIG d   1       4.437  81.798 109.453  0.00  0.00     0.028 C 
ATOM     10  C   LIG d   1       4.475  80.304 109.817  0.00  0.00     0.006 C 
ENDBRANCH   8   9
BRANCH   8  11
ATOM     11  C   LIG d   1       2.642  83.269 108.689  0.00  0.00     0.028 C 
ATOM     12  C   LIG d   1       2.138  82.361 107.556  0.00  0.00     0.006 C 
ENDBRANCH   8  11
ENDBRANCH   7   8
ENDBRANCH   1   7
BRANCH   6  13
ATOM     13  N   LIG d   1       2.935  85.997 112.374  0.00  0.00    -0.311 N 
ATOM     14  C   LIG d   1       3.180  87.237 111.954  0.00  0.00     0.210 C 
ATOM     15  C   LIG d   1       4.285  87.972 112.720  0.00  0.00     0.109 C 
ATOM     16  O   LIG d   1       2.566  87.809 111.042  0.00  0.00    -0.276 OA
ATOM     17  H   LIG d   1       3.458  85.623 113.141  0.00  0.00     0.149 HD
ENDBRANCH   6  13
BRANCH   5  18
ATOM     18  N   LIG d   1      -0.032  86.672 112.099  0.00  0.00     0.381 N 
ATOM     19  H   LIG d   1       0.626  87.362 112.402  0.00  0.00    -0.090 HD
ATOM     20  H   LIG d   1      -0.878  86.790 112.629  0.00  0.00    -0.090 HD
ATOM     21  H   LIG d   1      -0.221  86.787 111.128  0.00  0.00    -0.090 HD
ENDBRANCH   5  18
BRANCH   3  22
ATOM     22  C   LIG d   1      -0.929  81.974 111.862  0.00  0.00     0.382 C 
ATOM     23  O   LIG d   1      -0.668  80.847 111.377  0.00  0.00    -0.241 OA
ATOM     24  O   LIG d   1      -2.048  82.179 112.369  0.00  0.00    -0.241 OA
ENDBRANCH   3  22
TORSDOF 7
ENDMDL
MODEL 6
REMARK VINA RESULT:      -5.7      2.017      4.885
REMARK  7 active torsions:
REMARK  status: ('A' for Active; 'I' for Inactive)
REMARK    1  A    between atoms: C_2  and  C_3 
REMARK    2  A    between atoms: C_3  and  O_6 
REMARK    3  A    between atoms: C_3  and  C_4 
REMARK    4  A    between atoms: C_7  and  O_6 
REMARK    5  A    between atoms: C_9  and  C_10 
REMARK    6  A    between atoms: N_15  and  C_14 
REMARK    7  A    between atoms: N_20  and  C_19 
REMARK       I    between atoms: C_22  and  N_20 
ROOT
ATOM      1  C   LIG d   1       0.569  82.353 111.273  0.00  0.00     0.161 C 
ATOM      2  C   LIG d   1      -0.224  83.455 111.637  0.00  0.00     0.016 C 
ATOM      3  C   LIG d   1       0.155  84.797 111.404  0.00  0.00     0.038 C 
ATOM      4  C   LIG d   1       1.292  85.127 110.651  0.00  0.00     0.028 C 
ATOM      5  C   LIG d   1       2.381  84.061 110.701  0.00  0.00    -0.047 C 
ATOM      6  C   LIG d   1       1.759  82.690 110.351  0.00  0.00     0.091 C 
ENDROOT
BRANCH   1   7
ATOM      7  O   LIG d   1      -0.256  81.334 110.674  0.00  0.00    -0.368 OA
BRANCH   7   8
ATOM      8  C   LIG d   1      -0.160  80.012 111.257  0.00  0.00     0.119 C 
BRANCH   8   9
ATOM      9  C   LIG d   1      -0.411  78.990 110.132  0.00  0.00     0.028 C 
ATOM     10  C   LIG d   1      -1.447  77.924 110.527  0.00  0.00     0.006 C 
ENDBRANCH   8   9
BRANCH   8  11
ATOM     11  C   LIG d   1      -1.276  79.771 112.279  0.00  0.00     0.028 C 
ATOM     12  C   LIG d   1      -0.776  79.828 113.731  0.00  0.00     0.006 C 
ENDBRANCH   8  11
ENDBRANCH   7   8
ENDBRANCH   1   7
BRANCH   6  13
ATOM     13  N   LIG d   1       2.740  81.579 110.459  0.00  0.00    -0.311 N 
ATOM     14  C   LIG d   1       3.464  81.138 109.432  0.00  0.00     0.210 C 
ATOM     15  C   LIG d   1       4.401  79.969 109.755  0.00  0.00     0.109 C 
ATOM     16  O   LIG d   1       3.444  81.625 108.291  0.00  0.00    -0.276 OA
ATOM     17  H   LIG d   1       2.843  81.147 111.356  0.00  0.00     0.149 HD
ENDBRANCH   6  13
BRANCH   5  18
ATOM     18  N   LIG d   1       3.447  84.469 109.766  0.00  0.00     0.381 N 
ATOM     19  H   LIG d   1       3.222  84.160 108.841  0.00  0.00    -0.090 HD
ATOM     20  H   LIG d   1       4.308  84.033 110.044  0.00  0.00    -0.090 HD
ATOM     21  H   LIG d   1       3.549  85.460 109.777  0.00  0.00    -0.090 HD
ENDBRANCH   5  18
BRANCH   3  22
ATOM     22  C   LIG d   1      -0.587  85.827 111.963  0.00  0.00     0.382 C 
ATOM     23  O   LIG d   1      -1.549  86.322 111.329  0.00  0.00    -0.241 OA
ATOM     24  O   LIG d   1      -0.277  86.297 113.074  0.00  0.00    -0.241 OA
ENDBRANCH   3  22
TORSDOF 7
ENDMDL
MODEL 7
REMARK VINA RESULT:      -5.5      2.312      5.774
REMARK  7 active torsions:
REMARK  status: ('A' for Active; 'I' for Inactive)
REMARK    1  A    between atoms: C_2  and  C_3 
REMARK    2  A    between atoms: C_3  and  O_6 
REMARK    3  A    between atoms: C_3  and  C_4 
REMARK    4  A    between atoms: C_7  and  O_6 
REMARK    5  A    between atoms: C_9  and  C_10 
REMARK    6  A    between atoms: N_15  and  C_14 
REMARK    7  A    between atoms: N_20  and  C_19 
REMARK       I    between atoms: C_22  and  N_20 
ROOT
ATOM      1  C   LIG d   1       2.624  83.332 111.045  0.00  0.00     0.161 C 
ATOM      2  C   LIG d   1       3.208  84.608 111.111  0.00  0.00     0.016 C 
ATOM      3  C   LIG d   1       2.533  85.747 111.606  0.00  0.00     0.038 C 
ATOM      4  C   LIG d   1       1.271  85.657 112.213  0.00  0.00     0.028 C 
ATOM      5  C   LIG d   1       0.441  84.480 111.711  0.00  0.00    -0.047 C 
ATOM      6  C   LIG d   1       1.289  83.191 111.805  0.00  0.00     0.091 C 
ENDROOT
BRANCH   1   7
ATOM      7  O   LIG d   1       3.566  82.340 111.499  0.00  0.00    -0.368 OA
BRANCH   7   8
ATOM      8  C   LIG d   1       4.008  81.380 110.509  0.00  0.00     0.119 C 
BRANCH   8   9
ATOM      9  C   LIG d   1       5.148  82.035 109.705  0.00  0.00     0.028 C 
ATOM     10  C   LIG d   1       4.716  82.416 108.279  0.00  0.00     0.006 C 
ENDBRANCH   8   9
BRANCH   8  11
ATOM     11  C   LIG d   1       2.907  81.087 109.486  0.00  0.00     0.028 C 
ATOM     12  C   LIG d   1       2.606  79.586 109.346  0.00  0.00     0.006 C 
ENDBRANCH   8  11
ENDBRANCH   7   8
ENDBRANCH   1   7
BRANCH   6  13
ATOM     13  N   LIG d   1       0.581  82.006 111.255  0.00  0.00    -0.311 N 
ATOM     14  C   LIG d   1       0.239  80.949 111.990  0.00  0.00     0.210 C 
ATOM     15  C   LIG d   1      -0.466  79.827 111.222  0.00  0.00     0.109 C 
ATOM     16  O   LIG d   1       0.423  80.849 113.213  0.00  0.00    -0.276 OA
ATOM     17  H   LIG d   1       0.364  82.017 110.277  0.00  0.00     0.149 HD
ENDBRANCH   6  13
BRANCH   5  18
ATOM     18  N   LIG d   1      -0.789  84.424 112.523  0.00  0.00     0.381 N 
ATOM     19  H   LIG d   1      -1.126  83.483 112.563  0.00  0.00    -0.090 HD
ATOM     20  H   LIG d   1      -1.493  84.993 112.087  0.00  0.00    -0.090 HD
ATOM     21  H   LIG d   1      -0.606  84.758 113.443  0.00  0.00    -0.090 HD
ENDBRANCH   5  18
BRANCH   3  22
ATOM     22  C   LIG d   1       3.105  87.002 111.460  0.00  0.00     0.382 C 
ATOM     23  O   LIG d   1       4.349  87.137 111.542  0.00  0.00    -0.241 OA
ATOM     24  O   LIG d   1       2.388  88.007 111.292  0.00  0.00    -0.241 OA
ENDBRANCH   3  22
TORSDOF 7
ENDMDL
MODEL 8
REMARK VINA RESULT:      -4.6      1.701      2.077
REMARK  7 active torsions:
REMARK  status: ('A' for Active; 'I' for Inactive)
REMARK    1  A    between atoms: C_2  and  C_3 
REMARK    2  A    between atoms: C_3  and  O_6 
REMARK    3  A    between atoms: C_3  and  C_4 
REMARK    4  A    between atoms: C_7  and  O_6 
REMARK    5  A    between atoms: C_9  and  C_10 
REMARK    6  A    between atoms: N_15  and  C_14 
REMARK    7  A    between atoms: N_20  and  C_19 
REMARK       I    between atoms: C_22  and  N_20 
ROOT
ATOM      1  C   LIG d   1      -0.099  82.817 110.823  0.00  0.00     0.161 C 
ATOM      2  C   LIG d   1      -1.191  82.352 111.575  0.00  0.00     0.016 C 
ATOM      3  C   LIG d   1      -1.058  81.499 112.695  0.00  0.00     0.038 C 
ATOM      4  C   LIG d   1       0.195  81.174 113.234  0.00  0.00     0.028 C 
ATOM      5  C   LIG d   1       1.323  81.209 112.208  0.00  0.00    -0.047 C 
ATOM      6  C   LIG d   1       1.282  82.562 111.462  0.00  0.00     0.091 C 
ENDROOT
BRANCH   1   7
ATOM      7  O   LIG d   1      -0.267  84.219 110.534  0.00  0.00    -0.368 OA
BRANCH   7   8
ATOM      8  C   LIG d   1       0.721  85.110 111.107  0.00  0.00     0.119 C 
BRANCH   8   9
ATOM      9  C   LIG d   1       0.038  85.883 112.252  0.00  0.00     0.028 C 
ATOM     10  C   LIG d   1       0.857  85.849 113.553  0.00  0.00     0.006 C 
ENDBRANCH   8   9
BRANCH   8  11
ATOM     11  C   LIG d   1       1.158  86.179 110.101  0.00  0.00     0.028 C 
ATOM     12  C   LIG d   1       0.712  85.863 108.665  0.00  0.00     0.006 C 
ENDBRANCH   8  11
ENDBRANCH   7   8
ENDBRANCH   1   7
BRANCH   6  13
ATOM     13  N   LIG d   1       2.300  82.646 110.383  0.00  0.00    -0.311 N 
ATOM     14  C   LIG d   1       3.541  83.087 110.579  0.00  0.00     0.210 C 
ATOM     15  C   LIG d   1       4.424  83.111 109.327  0.00  0.00     0.109 C 
ATOM     16  O   LIG d   1       4.005  83.431 111.677  0.00  0.00    -0.276 OA
ATOM     17  H   LIG d   1       2.017  82.358 109.466  0.00  0.00     0.149 HD
ENDBRANCH   6  13
BRANCH   5  18
ATOM     18  N   LIG d   1       2.590  80.986 112.931  0.00  0.00     0.381 N 
ATOM     19  H   LIG d   1       2.412  80.921 113.913  0.00  0.00    -0.090 HD
ATOM     20  H   LIG d   1       3.197  81.770 112.772  0.00  0.00    -0.090 HD
ATOM     21  H   LIG d   1       3.024  80.149 112.608  0.00  0.00    -0.090 HD
ENDBRANCH   5  18
BRANCH   3  22
ATOM     22  C   LIG d   1      -2.188  80.931 113.263  0.00  0.00     0.382 C 
ATOM     23  O   LIG d   1      -3.302  81.049 112.698  0.00  0.00    -0.241 OA
ATOM     24  O   LIG d   1      -2.115  80.339 114.357  0.00  0.00    -0.241 OA
ENDBRANCH   3  22
TORSDOF 7
ENDMDL
MODEL 9
REMARK VINA RESULT:      -4.2     28.006     29.706
REMARK  7 active torsions:
REMARK  status: ('A' for Active; 'I' for Inactive)
REMARK    1  A    between atoms: C_2  and  C_3 
REMARK    2  A    between atoms: C_3  and  O_6 
REMARK    3  A    between atoms: C_3  and  C_4 
REMARK    4  A    between atoms: C_7  and  O_6 
REMARK    5  A    between atoms: C_9  and  C_10 
REMARK    6  A    between atoms: N_15  and  C_14 
REMARK    7  A    between atoms: N_20  and  C_19 
REMARK       I    between atoms: C_22  and  N_20 
ROOT
ATOM      1  C   LIG d   1     -26.304  68.973 111.209  0.00  0.00     0.161 C 
ATOM      2  C   LIG d   1     -25.411  69.107 112.285  0.00  0.00     0.016 C 
ATOM      3  C   LIG d   1     -24.102  68.574 112.280  0.00  0.00     0.038 C 
ATOM      4  C   LIG d   1     -23.540  67.997 111.131  0.00  0.00     0.028 C 
ATOM      5  C   LIG d   1     -24.576  67.391 110.190  0.00  0.00    -0.047 C 
ATOM      6  C   LIG d   1     -25.671  68.444 109.905  0.00  0.00     0.091 C 
ENDROOT
BRANCH   1   7
ATOM      7  O   LIG d   1     -26.971  70.228 110.968  0.00  0.00    -0.368 OA
BRANCH   7   8
ATOM      8  C   LIG d   1     -26.394  71.070 109.940  0.00  0.00     0.119 C 
BRANCH   8   9
ATOM      9  C   LIG d   1     -25.853  72.338 110.629  0.00  0.00     0.028 C 
ATOM     10  C   LIG d   1     -26.628  72.685 111.912  0.00  0.00     0.006 C 
ENDBRANCH   8   9
BRANCH   8  11
ATOM     11  C   LIG d   1     -27.462  71.565 108.961  0.00  0.00     0.028 C 
ATOM     12  C   LIG d   1     -28.842  70.938 109.217  0.00  0.00     0.006 C 
ENDBRANCH   8  11
ENDBRANCH   7   8
ENDBRANCH   1   7
BRANCH   6  13
ATOM     13  N   LIG d   1     -26.768  67.905 109.059  0.00  0.00    -0.311 N 
ATOM     14  C   LIG d   1     -26.838  68.093 107.742  0.00  0.00     0.210 C 
ATOM     15  C   LIG d   1     -28.063  67.470 107.064  0.00  0.00     0.109 C 
ATOM     16  O   LIG d   1     -25.986  68.690 107.067  0.00  0.00    -0.276 OA
ATOM     17  H   LIG d   1     -27.486  67.382 109.521  0.00  0.00     0.149 HD
ENDBRANCH   6  13
BRANCH   5  18
ATOM     18  N   LIG d   1     -23.868  66.950 108.973  0.00  0.00     0.381 N 
ATOM     19  H   LIG d   1     -23.719  65.961 109.008  0.00  0.00    -0.090 HD
ATOM     20  H   LIG d   1     -22.972  67.403 108.936  0.00  0.00    -0.090 HD
ATOM     21  H   LIG d   1     -24.401  67.184 108.165  0.00  0.00    -0.090 HD
ENDBRANCH   5  18
BRANCH   3  22
ATOM     22  C   LIG d   1     -23.353  68.580 113.447  0.00  0.00     0.382 C 
ATOM     23  O   LIG d   1     -23.666  69.348 114.389  0.00  0.00    -0.241 OA
ATOM     24  O   LIG d   1     -22.343  67.859 113.553  0.00  0.00    -0.241 OA
ENDBRANCH   3  22
TORSDOF 7
ENDMDL
