MODEL 1
REMARK VINA RESULT:      -6.6      0.000      0.000
REMARK  7 active torsions:
REMARK  status: ('A' for Active; 'I' for Inactive)
REMARK    1  A    between atoms: C_2  and  C_3 
REMARK    2  A    between atoms: C_3  and  O_6 
REMARK    3  A    between atoms: C_3  and  C_4 
REMARK    4  A    between atoms: C_7  and  O_6 
REMARK    5  A    between atoms: C_9  and  C_10 
REMARK    6  A    between atoms: N_15  and  C_14 
REMARK    7  A    between atoms: N_20  and  C_19 
REMARK       I    between atoms: C_22  and  N_20 
ROOT
ATOM      1  C   LIG d   1       1.456  82.917 111.246  0.00  0.00     0.161 C 
ATOM      2  C   LIG d   1       2.464  82.692 110.293  0.00  0.00     0.016 C 
ATOM      3  C   LIG d   1       2.517  81.543 109.472  0.00  0.00     0.038 C 
ATOM      4  C   LIG d   1       1.474  80.605 109.442  0.00  0.00     0.028 C 
ATOM      5  C   LIG d   1       0.687  80.532 110.746  0.00  0.00    -0.047 C 
ATOM      6  C   LIG d   1       0.250  81.959 111.149  0.00  0.00     0.091 C 
ENDROOT
BRANCH   1   7
ATOM      7  O   LIG d   1       1.014  84.287 111.176  0.00  0.00    -0.368 OA
BRANCH   7   8
ATOM      8  C   LIG d   1       1.523  85.065 110.065  0.00  0.00     0.119 C 
BRANCH   8   9
ATOM      9  C   LIG d   1       1.988  86.423 110.625  0.00  0.00     0.028 C 
ATOM     10  C   LIG d   1       3.313  86.316 111.399  0.00  0.00     0.006 C 
ENDBRANCH   8   9
BRANCH   8  11
ATOM     11  C   LIG d   1       0.413  85.398 109.063  0.00  0.00     0.028 C 
ATOM     12  C   LIG d   1      -0.896  85.826 109.745  0.00  0.00     0.006 C 
ENDBRANCH   8  11
ENDBRANCH   7   8
ENDBRANCH   1   7
BRANCH   6  13
ATOM     13  N   LIG d   1      -0.453  81.988 112.458  0.00  0.00    -0.311 N 
ATOM     14  C   LIG d   1      -1.779  81.945 112.579  0.00  0.00     0.210 C 
ATOM     15  C   LIG d   1      -2.299  82.006 114.018  0.00  0.00     0.109 C 
ATOM     16  O   LIG d   1      -2.572  81.829 111.633  0.00  0.00    -0.276 OA
ATOM     17  H   LIG d   1       0.115  82.050 113.280  0.00  0.00     0.149 HD
ENDBRANCH   6  13
BRANCH   5  18
ATOM     18  N   LIG d   1      -0.451  79.618 110.530  0.00  0.00     0.381 N 
ATOM     19  H   LIG d   1      -1.306  80.081 110.765  0.00  0.00    -0.090 HD
ATOM     20  H   LIG d   1      -0.347  78.821 111.133  0.00  0.00    -0.090 HD
ATOM     21  H   LIG d   1      -0.475  79.323 109.579  0.00  0.00    -0.090 HD
ENDBRANCH   5  18
BRANCH   3  22
ATOM     22  C   LIG d   1       3.641  81.302 108.698  0.00  0.00     0.382 C 
ATOM     23  O   LIG d   1       4.380  80.320 108.953  0.00  0.00    -0.241 OA
ATOM     24  O   LIG d   1       3.952  82.080 107.776  0.00  0.00    -0.241 OA
ENDBRANCH   3  22
TORSDOF 7
ENDMDL
MODEL 2
REMARK VINA RESULT:      -6.5      1.643      4.892
REMARK  7 active torsions:
REMARK  status: ('A' for Active; 'I' for Inactive)
REMARK    1  A    between atoms: C_2  and  C_3 
REMARK    2  A    between atoms: C_3  and  O_6 
REMARK    3  A    between atoms: C_3  and  C_4 
REMARK    4  A    between atoms: C_7  and  O_6 
REMARK    5  A    between atoms: C_9  and  C_10 
REMARK    6  A    between atoms: N_15  and  C_14 
REMARK    7  A    between atoms: N_20  and  C_19 
REMARK       I    between atoms: C_22  and  N_20 
ROOT
ATOM      1  C   LIG d   1      -0.000  82.771 111.139  0.00  0.00     0.161 C 
ATOM      2  C   LIG d   1      -1.169  82.455 111.853  0.00  0.00     0.016 C 
ATOM      3  C   LIG d   1      -1.693  81.145 111.946  0.00  0.00     0.038 C 
ATOM      4  C   LIG d   1      -0.997  80.031 111.454  0.00  0.00     0.028 C 
ATOM      5  C   LIG d   1      -0.069  80.362 110.290  0.00  0.00    -0.047 C 
ATOM      6  C   LIG d   1       0.833  81.553 110.690  0.00  0.00     0.091 C 
ENDROOT
BRANCH   1   7
ATOM      7  O   LIG d   1       0.813  83.677 111.911  0.00  0.00    -0.368 OA
BRANCH   7   8
ATOM      8  C   LIG d   1       0.647  85.087 111.620  0.00  0.00     0.119 C 
BRANCH   8   9
ATOM      9  C   LIG d   1       0.482  85.229 110.095  0.00  0.00     0.028 C 
ATOM     10  C   LIG d   1      -0.861  85.870 109.707  0.00  0.00     0.006 C 
ENDBRANCH   8   9
BRANCH   8  11
ATOM     11  C   LIG d   1       1.911  85.880 111.967  0.00  0.00     0.028 C 
ATOM     12  C   LIG d   1       2.992  85.784 110.879  0.00  0.00     0.006 C 
ENDBRANCH   8  11
ENDBRANCH   7   8
ENDBRANCH   1   7
BRANCH   6  13
ATOM     13  N   LIG d   1       1.713  81.995 109.577  0.00  0.00    -0.311 N 
ATOM     14  C   LIG d   1       3.013  82.243 109.726  0.00  0.00     0.210 C 
ATOM     15  C   LIG d   1       3.732  82.708 108.455  0.00  0.00     0.109 C 
ATOM     16  O   LIG d   1       3.646  82.091 110.781  0.00  0.00    -0.276 OA
ATOM     17  H   LIG d   1       1.288  82.114 108.679  0.00  0.00     0.149 HD
ENDBRANCH   6  13
BRANCH   5  18
ATOM     18  N   LIG d   1       0.695  79.142 109.968  0.00  0.00     0.381 N 
ATOM     19  H   LIG d   1       1.087  78.757 110.804  0.00  0.00    -0.090 HD
ATOM     20  H   LIG d   1       1.448  79.384 109.348  0.00  0.00    -0.090 HD
ATOM     21  H   LIG d   1       0.099  78.472 109.532  0.00  0.00    -0.090 HD
ENDBRANCH   5  18
BRANCH   3  22
ATOM     22  C   LIG d   1      -2.947  80.945 112.502  0.00  0.00     0.382 C 
ATOM     23  O   LIG d   1      -3.377  79.780 112.676  0.00  0.00    -0.241 OA
ATOM     24  O   LIG d   1      -3.672  81.916 112.792  0.00  0.00    -0.241 OA
ENDBRANCH   3  22
TORSDOF 7
ENDMDL
MODEL 3
REMARK VINA RESULT:      -6.4      1.556      2.029
REMARK  7 active torsions:
REMARK  status: ('A' for Active; 'I' for Inactive)
REMARK    1  A    between atoms: C_2  and  C_3 
REMARK    2  A    between atoms: C_3  and  O_6 
REMARK    3  A    between atoms: C_3  and  C_4 
REMARK    4  A    between atoms: C_7  and  O_6 
REMARK    5  A    between atoms: C_9  and  C_10 
REMARK    6  A    between atoms: N_15  and  C_14 
REMARK    7  A    between atoms: N_20  and  C_19 
REMARK       I    between atoms: C_22  and  N_20 
ROOT
ATOM      1  C   LIG d   1       0.075  83.178 110.837  0.00  0.00     0.161 C 
ATOM      2  C   LIG d   1       0.965  83.217 109.751  0.00  0.00     0.016 C 
ATOM      3  C   LIG d   1       1.401  82.063 109.060  0.00  0.00     0.038 C 
ATOM      4  C   LIG d   1       0.853  80.796 109.313  0.00  0.00     0.028 C 
ATOM      5  C   LIG d   1       0.328  80.637 110.736  0.00  0.00    -0.047 C 
ATOM      6  C   LIG d   1      -0.619  81.817 111.056  0.00  0.00     0.091 C 
ENDROOT
BRANCH   1   7
ATOM      7  O   LIG d   1      -0.907  84.224 110.701  0.00  0.00    -0.368 OA
BRANCH   7   8
ATOM      8  C   LIG d   1      -0.762  85.354 111.596  0.00  0.00     0.119 C 
BRANCH   8   9
ATOM      9  C   LIG d   1      -0.279  86.552 110.756  0.00  0.00     0.028 C 
ATOM     10  C   LIG d   1       1.236  86.785 110.884  0.00  0.00     0.006 C 
ENDBRANCH   8   9
BRANCH   8  11
ATOM     11  C   LIG d   1       0.343  85.110 112.627  0.00  0.00     0.028 C 
ATOM     12  C   LIG d   1      -0.186  85.068 114.070  0.00  0.00     0.006 C 
ENDBRANCH   8  11
ENDBRANCH   7   8
ENDBRANCH   1   7
BRANCH   6  13
ATOM     13  N   LIG d   1      -1.111  81.784 112.458  0.00  0.00    -0.311 N 
ATOM     14  C   LIG d   1      -2.399  81.679 112.779  0.00  0.00     0.210 C 
ATOM     15  C   LIG d   1      -2.693  81.683 114.283  0.00  0.00     0.109 C 
ATOM     16  O   LIG d   1      -3.324  81.549 111.963  0.00  0.00    -0.276 OA
ATOM     17  H   LIG d   1      -0.426  81.852 113.184  0.00  0.00     0.149 HD
ENDBRANCH   6  13
BRANCH   5  18
ATOM     18  N   LIG d   1      -0.337  79.323 110.821  0.00  0.00     0.381 N 
ATOM     19  H   LIG d   1      -0.598  79.016 109.905  0.00  0.00    -0.090 HD
ATOM     20  H   LIG d   1      -1.172  79.416 111.372  0.00  0.00    -0.090 HD
ATOM     21  H   LIG d   1       0.274  78.658 111.241  0.00  0.00    -0.090 HD
ENDBRANCH   5  18
BRANCH   3  22
ATOM     22  C   LIG d   1       2.424  82.164 108.129  0.00  0.00     0.382 C 
ATOM     23  O   LIG d   1       2.404  83.081 107.273  0.00  0.00    -0.241 OA
ATOM     24  O   LIG d   1       3.343  81.323 108.107  0.00  0.00    -0.241 OA
ENDBRANCH   3  22
TORSDOF 7
ENDMDL
MODEL 4
REMARK VINA RESULT:      -6.3      2.658      5.107
REMARK  7 active torsions:
REMARK  status: ('A' for Active; 'I' for Inactive)
REMARK    1  A    between atoms: C_2  and  C_3 
REMARK    2  A    between atoms: C_3  and  O_6 
REMARK    3  A    between atoms: C_3  and  C_4 
REMARK    4  A    between atoms: C_7  and  O_6 
REMARK    5  A    between atoms: C_9  and  C_10 
REMARK    6  A    between atoms: N_15  and  C_14 
REMARK    7  A    between atoms: N_20  and  C_19 
REMARK       I    between atoms: C_22  and  N_20 
ROOT
ATOM      1  C   LIG d   1       1.622  83.748 111.466  0.00  0.00     0.161 C 
ATOM      2  C   LIG d   1       0.603  82.785 111.377  0.00  0.00     0.016 C 
ATOM      3  C   LIG d   1      -0.531  82.771 112.221  0.00  0.00     0.038 C 
ATOM      4  C   LIG d   1      -0.800  83.815 113.119  0.00  0.00     0.028 C 
ATOM      5  C   LIG d   1       0.454  84.541 113.596  0.00  0.00    -0.047 C 
ATOM      6  C   LIG d   1       1.291  84.958 112.365  0.00  0.00     0.091 C 
ENDROOT
BRANCH   1   7
ATOM      7  O   LIG d   1       1.992  84.192 110.146  0.00  0.00    -0.368 OA
BRANCH   7   8
ATOM      8  C   LIG d   1       0.962  84.102 109.131  0.00  0.00     0.119 C 
BRANCH   8   9
ATOM      9  C   LIG d   1       1.631  83.603 107.835  0.00  0.00     0.028 C 
ATOM     10  C   LIG d   1       2.726  82.557 108.105  0.00  0.00     0.006 C 
ENDBRANCH   8   9
BRANCH   8  11
ATOM     11  C   LIG d   1       0.395  85.483 108.788  0.00  0.00     0.028 C 
ATOM     12  C   LIG d   1      -0.894  85.806 109.560  0.00  0.00     0.006 C 
ENDBRANCH   8  11
ENDBRANCH   7   8
ENDBRANCH   1   7
BRANCH   6  13
ATOM     13  N   LIG d   1       2.576  85.601 112.745  0.00  0.00    -0.311 N 
ATOM     14  C   LIG d   1       2.915  86.835 112.377  0.00  0.00     0.210 C 
ATOM     15  C   LIG d   1       4.294  87.298 112.859  0.00  0.00     0.109 C 
ATOM     16  O   LIG d   1       2.192  87.602 111.724  0.00  0.00    -0.276 OA
ATOM     17  H   LIG d   1       3.209  85.060 113.301  0.00  0.00     0.149 HD
ENDBRANCH   6  13
BRANCH   5  18
ATOM     18  N   LIG d   1       0.019  85.689 114.415  0.00  0.00     0.381 N 
ATOM     19  H   LIG d   1       0.616  85.780 115.213  0.00  0.00    -0.090 HD
ATOM     20  H   LIG d   1      -0.917  85.521 114.738  0.00  0.00    -0.090 HD
ATOM     21  H   LIG d   1       0.047  86.524 113.873  0.00  0.00    -0.090 HD
ENDBRANCH   5  18
BRANCH   3  22
ATOM     22  C   LIG d   1      -1.390  81.683 112.200  0.00  0.00     0.382 C 
ATOM     23  O   LIG d   1      -0.944  80.528 112.402  0.00  0.00    -0.241 OA
ATOM     24  O   LIG d   1      -2.598  81.837 111.937  0.00  0.00    -0.241 OA
ENDBRANCH   3  22
TORSDOF 7
ENDMDL
MODEL 5
REMARK VINA RESULT:      -6.1      2.483      5.377
REMARK  7 active torsions:
REMARK  status: ('A' for Active; 'I' for Inactive)
REMARK    1  A    between atoms: C_2  and  C_3 
REMARK    2  A    between atoms: C_3  and  O_6 
REMARK    3  A    between atoms: C_3  and  C_4 
REMARK    4  A    between atoms: C_7  and  O_6 
REMARK    5  A    between atoms: C_9  and  C_10 
REMARK    6  A    between atoms: N_15  and  C_14 
REMARK    7  A    between atoms: N_20  and  C_19 
REMARK       I    between atoms: C_22  and  N_20 
ROOT
ATOM      1  C   LIG d   1       1.900  82.740 111.782  0.00  0.00     0.161 C 
ATOM      2  C   LIG d   1       0.809  81.861 111.681  0.00  0.00     0.016 C 
ATOM      3  C   LIG d   1      -0.534  82.295 111.592  0.00  0.00     0.038 C 
ATOM      4  C   LIG d   1      -0.867  83.649 111.446  0.00  0.00     0.028 C 
ATOM      5  C   LIG d   1       0.165  84.596 112.050  0.00  0.00    -0.047 C 
ATOM      6  C   LIG d   1       1.565  84.221 111.512  0.00  0.00     0.091 C 
ENDROOT
BRANCH   1   7
ATOM      7  O   LIG d   1       2.964  82.300 110.914  0.00  0.00    -0.368 OA
BRANCH   7   8
ATOM      8  C   LIG d   1       2.557  81.735 109.643  0.00  0.00     0.119 C 
BRANCH   8   9
ATOM      9  C   LIG d   1       3.354  80.433 109.439  0.00  0.00     0.028 C 
ATOM     10  C   LIG d   1       2.464  79.265 108.982  0.00  0.00     0.006 C 
ENDBRANCH   8   9
BRANCH   8  11
ATOM     11  C   LIG d   1       2.956  82.643 108.476  0.00  0.00     0.028 C 
ATOM     12  C   LIG d   1       1.758  83.380 107.858  0.00  0.00     0.006 C 
ENDBRANCH   8  11
ENDBRANCH   7   8
ENDBRANCH   1   7
BRANCH   6  13
ATOM     13  N   LIG d   1       2.644  85.044 112.118  0.00  0.00    -0.311 N 
ATOM     14  C   LIG d   1       3.067  86.196 111.598  0.00  0.00     0.210 C 
ATOM     15  C   LIG d   1       4.203  86.874 112.370  0.00  0.00     0.109 C 
ATOM     16  O   LIG d   1       2.588  86.735 110.590  0.00  0.00    -0.276 OA
ATOM     17  H   LIG d   1       3.067  84.697 112.956  0.00  0.00     0.149 HD
ENDBRANCH   6  13
BRANCH   5  18
ATOM     18  N   LIG d   1      -0.237  85.973 111.705  0.00  0.00     0.381 N 
ATOM     19  H   LIG d   1      -0.704  85.978 110.820  0.00  0.00    -0.090 HD
ATOM     20  H   LIG d   1       0.587  86.543 111.630  0.00  0.00    -0.090 HD
ATOM     21  H   LIG d   1      -0.840  86.338 112.409  0.00  0.00    -0.090 HD
ENDBRANCH   5  18
BRANCH   3  22
ATOM     22  C   LIG d   1      -1.562  81.370 111.690  0.00  0.00     0.382 C 
ATOM     23  O   LIG d   1      -2.719  81.749 111.997  0.00  0.00    -0.241 OA
ATOM     24  O   LIG d   1      -1.340  80.157 111.519  0.00  0.00    -0.241 OA
ENDBRANCH   3  22
TORSDOF 7
ENDMDL
MODEL 6
REMARK VINA RESULT:      -5.9      2.249      4.680
REMARK  7 active torsions:
REMARK  status: ('A' for Active; 'I' for Inactive)
REMARK    1  A    between atoms: C_2  and  C_3 
REMARK    2  A    between atoms: C_3  and  O_6 
REMARK    3  A    between atoms: C_3  and  C_4 
REMARK    4  A    between atoms: C_7  and  O_6 
REMARK    5  A    between atoms: C_9  and  C_10 
REMARK    6  A    between atoms: N_15  and  C_14 
REMARK    7  A    between atoms: N_20  and  C_19 
REMARK       I    between atoms: C_22  and  N_20 
ROOT
ATOM      1  C   LIG d   1      -0.536  82.761 110.716  0.00  0.00     0.161 C 
ATOM      2  C   LIG d   1      -0.451  84.137 110.443  0.00  0.00     0.016 C 
ATOM      3  C   LIG d   1      -0.499  85.133 111.446  0.00  0.00     0.038 C 
ATOM      4  C   LIG d   1      -0.485  84.812 112.811  0.00  0.00     0.028 C 
ATOM      5  C   LIG d   1      -1.080  83.442 113.118  0.00  0.00    -0.047 C 
ATOM      6  C   LIG d   1      -0.408  82.388 112.207  0.00  0.00     0.091 C 
ENDROOT
BRANCH   1   7
ATOM      7  O   LIG d   1       0.443  82.047 109.935  0.00  0.00    -0.368 OA
BRANCH   7   8
ATOM      8  C   LIG d   1       1.810  82.117 110.409  0.00  0.00     0.119 C 
BRANCH   8   9
ATOM      9  C   LIG d   1       2.660  82.738 109.282  0.00  0.00     0.028 C 
ATOM     10  C   LIG d   1       4.062  83.149 109.763  0.00  0.00     0.006 C 
ENDBRANCH   8   9
BRANCH   8  11
ATOM     11  C   LIG d   1       2.394  80.720 110.634  0.00  0.00     0.028 C 
ATOM     12  C   LIG d   1       2.243  79.806 109.408  0.00  0.00     0.006 C 
ENDBRANCH   8  11
ENDBRANCH   7   8
ENDBRANCH   1   7
BRANCH   6  13
ATOM     13  N   LIG d   1      -0.992  81.033 112.383  0.00  0.00    -0.311 N 
ATOM     14  C   LIG d   1      -2.295  80.776 112.280  0.00  0.00     0.210 C 
ATOM     15  C   LIG d   1      -2.687  79.315 112.518  0.00  0.00     0.109 C 
ATOM     16  O   LIG d   1      -3.159  81.614 111.981  0.00  0.00    -0.276 OA
ATOM     17  H   LIG d   1      -0.358  80.288 112.597  0.00  0.00     0.149 HD
ENDBRANCH   6  13
BRANCH   5  18
ATOM     18  N   LIG d   1      -0.875  83.179 114.555  0.00  0.00     0.381 N 
ATOM     19  H   LIG d   1      -1.724  83.351 115.055  0.00  0.00    -0.090 HD
ATOM     20  H   LIG d   1      -0.171  83.806 114.903  0.00  0.00    -0.090 HD
ATOM     21  H   LIG d   1      -0.586  82.235 114.691  0.00  0.00    -0.090 HD
ENDBRANCH   5  18
BRANCH   3  22
ATOM     22  C   LIG d   1      -0.604  86.467 111.084  0.00  0.00     0.382 C 
ATOM     23  O   LIG d   1      -1.719  86.944 110.761  0.00  0.00    -0.241 OA
ATOM     24  O   LIG d   1       0.410  87.190 111.034  0.00  0.00    -0.241 OA
ENDBRANCH   3  22
TORSDOF 7
ENDMDL
MODEL 7
REMARK VINA RESULT:      -5.8      1.860      4.659
REMARK  7 active torsions:
REMARK  status: ('A' for Active; 'I' for Inactive)
REMARK    1  A    between atoms: C_2  and  C_3 
REMARK    2  A    between atoms: C_3  and  O_6 
REMARK    3  A    between atoms: C_3  and  C_4 
REMARK    4  A    between atoms: C_7  and  O_6 
REMARK    5  A    between atoms: C_9  and  C_10 
REMARK    6  A    between atoms: N_15  and  C_14 
REMARK    7  A    between atoms: N_20  and  C_19 
REMARK       I    between atoms: C_22  and  N_20 
ROOT
ATOM      1  C   LIG d   1       0.956  82.996 110.807  0.00  0.00     0.161 C 
ATOM      2  C   LIG d   1       1.267  84.337 110.524  0.00  0.00     0.016 C 
ATOM      3  C   LIG d   1       1.165  85.377 111.476  0.00  0.00     0.038 C 
ATOM      4  C   LIG d   1       0.886  85.121 112.827  0.00  0.00     0.028 C 
ATOM      5  C   LIG d   1       0.072  83.850 113.047  0.00  0.00    -0.047 C 
ATOM      6  C   LIG d   1       0.757  82.681 112.304  0.00  0.00     0.091 C 
ENDROOT
BRANCH   1   7
ATOM      7  O   LIG d   1       1.961  82.132 110.242  0.00  0.00    -0.368 OA
BRANCH   7   8
ATOM      8  C   LIG d   1       1.944  81.992 108.800  0.00  0.00     0.119 C 
BRANCH   8   9
ATOM      9  C   LIG d   1       1.199  80.684 108.470  0.00  0.00     0.028 C 
ATOM     10  C   LIG d   1       1.468  79.579 109.505  0.00  0.00     0.006 C 
ENDBRANCH   8   9
BRANCH   8  11
ATOM     11  C   LIG d   1       3.358  81.806 108.241  0.00  0.00     0.028 C 
ATOM     12  C   LIG d   1       4.414  82.614 109.012  0.00  0.00     0.006 C 
ENDBRANCH   8  11
ENDBRANCH   7   8
ENDBRANCH   1   7
BRANCH   6  13
ATOM     13  N   LIG d   1      -0.019  81.417 112.398  0.00  0.00    -0.311 N 
ATOM     14  C   LIG d   1      -1.293  81.310 112.024  0.00  0.00     0.210 C 
ATOM     15  C   LIG d   1      -1.911  79.922 112.224  0.00  0.00     0.109 C 
ATOM     16  O   LIG d   1      -1.960  82.223 111.516  0.00  0.00    -0.276 OA
ATOM     17  H   LIG d   1       0.454  80.617 112.771  0.00  0.00     0.149 HD
ENDBRANCH   6  13
BRANCH   5  18
ATOM     18  N   LIG d   1      -0.027  83.632 114.503  0.00  0.00     0.381 N 
ATOM     19  H   LIG d   1      -0.731  84.229 114.888  0.00  0.00    -0.090 HD
ATOM     20  H   LIG d   1       0.853  83.866 114.928  0.00  0.00    -0.090 HD
ATOM     21  H   LIG d   1      -0.251  82.679 114.690  0.00  0.00    -0.090 HD
ENDBRANCH   5  18
BRANCH   3  22
ATOM     22  C   LIG d   1       1.302  86.696 111.070  0.00  0.00     0.382 C 
ATOM     23  O   LIG d   1       2.436  87.146 110.776  0.00  0.00    -0.241 OA
ATOM     24  O   LIG d   1       0.314  87.453 111.038  0.00  0.00    -0.241 OA
ENDBRANCH   3  22
TORSDOF 7
ENDMDL
MODEL 8
REMARK VINA RESULT:      -5.5      2.173      4.516
REMARK  7 active torsions:
REMARK  status: ('A' for Active; 'I' for Inactive)
REMARK    1  A    between atoms: C_2  and  C_3 
REMARK    2  A    between atoms: C_3  and  O_6 
REMARK    3  A    between atoms: C_3  and  C_4 
REMARK    4  A    between atoms: C_7  and  O_6 
REMARK    5  A    between atoms: C_9  and  C_10 
REMARK    6  A    between atoms: N_15  and  C_14 
REMARK    7  A    between atoms: N_20  and  C_19 
REMARK       I    between atoms: C_22  and  N_20 
ROOT
ATOM      1  C   LIG d   1       0.320  82.166 110.065  0.00  0.00     0.161 C 
ATOM      2  C   LIG d   1       1.068  81.006 109.802  0.00  0.00     0.016 C 
ATOM      3  C   LIG d   1       2.482  80.976 109.800  0.00  0.00     0.038 C 
ATOM      4  C   LIG d   1       3.247  82.077 110.213  0.00  0.00     0.028 C 
ATOM      5  C   LIG d   1       2.547  83.415 110.000  0.00  0.00    -0.047 C 
ATOM      6  C   LIG d   1       1.136  83.349 110.626  0.00  0.00     0.091 C 
ENDROOT
BRANCH   1   7
ATOM      7  O   LIG d   1      -0.777  81.850 110.946  0.00  0.00    -0.368 OA
BRANCH   7   8
ATOM      8  C   LIG d   1      -0.496  80.889 111.993  0.00  0.00     0.119 C 
BRANCH   8   9
ATOM      9  C   LIG d   1      -1.636  79.852 111.986  0.00  0.00     0.028 C 
ATOM     10  C   LIG d   1      -1.495  78.817 113.116  0.00  0.00     0.006 C 
ENDBRANCH   8   9
BRANCH   8  11
ATOM     11  C   LIG d   1      -0.550  81.542 113.378  0.00  0.00     0.028 C 
ATOM     12  C   LIG d   1       0.842  81.731 114.001  0.00  0.00     0.006 C 
ENDBRANCH   8  11
ENDBRANCH   7   8
ENDBRANCH   1   7
BRANCH   6  13
ATOM     13  N   LIG d   1       0.352  84.589 110.389  0.00  0.00    -0.311 N 
ATOM     14  C   LIG d   1      -0.229  85.287 111.364  0.00  0.00     0.210 C 
ATOM     15  C   LIG d   1      -1.006  86.523 110.899  0.00  0.00     0.109 C 
ATOM     16  O   LIG d   1      -0.147  85.018 112.572  0.00  0.00    -0.276 OA
ATOM     17  H   LIG d   1       0.260  84.897 109.441  0.00  0.00     0.149 HD
ENDBRANCH   6  13
BRANCH   5  18
ATOM     18  N   LIG d   1       3.397  84.462 110.599  0.00  0.00     0.381 N 
ATOM     19  H   LIG d   1       4.233  84.569 110.060  0.00  0.00    -0.090 HD
ATOM     20  H   LIG d   1       3.654  84.180 111.528  0.00  0.00    -0.090 HD
ATOM     21  H   LIG d   1       2.901  85.326 110.631  0.00  0.00    -0.090 HD
ENDBRANCH   5  18
BRANCH   3  22
ATOM     22  C   LIG d   1       3.144  79.847 109.344  0.00  0.00     0.382 C 
ATOM     23  O   LIG d   1       4.398  79.838 109.283  0.00  0.00    -0.241 OA
ATOM     24  O   LIG d   1       2.504  78.854 108.951  0.00  0.00    -0.241 OA
ENDBRANCH   3  22
TORSDOF 7
ENDMDL
MODEL 9
REMARK VINA RESULT:      -4.9      2.408      4.401
REMARK  7 active torsions:
REMARK  status: ('A' for Active; 'I' for Inactive)
REMARK    1  A    between atoms: C_2  and  C_3 
REMARK    2  A    between atoms: C_3  and  O_6 
REMARK    3  A    between atoms: C_3  and  C_4 
REMARK    4  A    between atoms: C_7  and  O_6 
REMARK    5  A    between atoms: C_9  and  C_10 
REMARK    6  A    between atoms: N_15  and  C_14 
REMARK    7  A    between atoms: N_20  and  C_19 
REMARK       I    between atoms: C_22  and  N_20 
ROOT
ATOM      1  C   LIG d   1       1.119  82.512 110.686  0.00  0.00     0.161 C 
ATOM      2  C   LIG d   1       1.262  81.220 110.152  0.00  0.00     0.016 C 
ATOM      3  C   LIG d   1       2.421  80.784 109.471  0.00  0.00     0.038 C 
ATOM      4  C   LIG d   1       3.584  81.566 109.410  0.00  0.00     0.028 C 
ATOM      5  C   LIG d   1       3.312  83.064 109.496  0.00  0.00    -0.047 C 
ATOM      6  C   LIG d   1       2.419  83.342 110.727  0.00  0.00     0.091 C 
ENDROOT
BRANCH   1   7
ATOM      7  O   LIG d   1       0.533  82.434 112.001  0.00  0.00    -0.368 OA
BRANCH   7   8
ATOM      8  C   LIG d   1      -0.800  82.986 112.137  0.00  0.00     0.119 C 
BRANCH   8   9
ATOM      9  C   LIG d   1      -0.835  83.792 113.450  0.00  0.00     0.028 C 
ATOM     10  C   LIG d   1      -0.834  85.311 113.206  0.00  0.00     0.006 C 
ENDBRANCH   8   9
BRANCH   8  11
ATOM     11  C   LIG d   1      -1.845  81.880 112.313  0.00  0.00     0.028 C 
ATOM     12  C   LIG d   1      -2.260  81.680 113.779  0.00  0.00     0.006 C 
ENDBRANCH   8  11
ENDBRANCH   7   8
ENDBRANCH   1   7
BRANCH   6  13
ATOM     13  N   LIG d   1       2.035  84.773 110.837  0.00  0.00    -0.311 N 
ATOM     14  C   LIG d   1       2.719  85.663 111.555  0.00  0.00     0.210 C 
ATOM     15  C   LIG d   1       2.140  87.081 111.550  0.00  0.00     0.109 C 
ATOM     16  O   LIG d   1       3.769  85.419 112.170  0.00  0.00    -0.276 OA
ATOM     17  H   LIG d   1       1.214  85.065 110.345  0.00  0.00     0.149 HD
ENDBRANCH   6  13
BRANCH   5  18
ATOM     18  N   LIG d   1       4.615  83.751 109.560  0.00  0.00     0.381 N 
ATOM     19  H   LIG d   1       5.053  83.731 108.661  0.00  0.00    -0.090 HD
ATOM     20  H   LIG d   1       5.208  83.265 110.210  0.00  0.00    -0.090 HD
ATOM     21  H   LIG d   1       4.490  84.694 109.855  0.00  0.00    -0.090 HD
ENDBRANCH   5  18
BRANCH   3  22
ATOM     22  C   LIG d   1       2.411  79.567 108.807  0.00  0.00     0.382 C 
ATOM     23  O   LIG d   1       1.798  79.452 107.718  0.00  0.00    -0.241 OA
ATOM     24  O   LIG d   1       2.970  78.571 109.304  0.00  0.00    -0.241 OA
ENDBRANCH   3  22
TORSDOF 7
ENDMDL
