MODEL 1
REMARK VINA RESULT:      -6.6      0.000      0.000
REMARK  7 active torsions:
REMARK  status: ('A' for Active; 'I' for Inactive)
REMARK    1  A    between atoms: C_2  and  C_3 
REMARK    2  A    between atoms: C_3  and  O_6 
REMARK    3  A    between atoms: C_3  and  C_4 
REMARK    4  A    between atoms: C_7  and  O_6 
REMARK    5  A    between atoms: C_9  and  C_10 
REMARK    6  A    between atoms: N_15  and  C_14 
REMARK    7  A    between atoms: N_20  and  C_19 
REMARK       I    between atoms: C_22  and  N_20 
ROOT
ATOM      1  C   LIG d   1       0.996  83.345 111.279  0.00  0.00     0.161 C 
ATOM      2  C   LIG d   1       1.888  83.218 110.201  0.00  0.00     0.016 C 
ATOM      3  C   LIG d   1       1.883  82.118 109.313  0.00  0.00     0.038 C 
ATOM      4  C   LIG d   1       0.880  81.138 109.352  0.00  0.00     0.028 C 
ATOM      5  C   LIG d   1       0.261  80.959 110.735  0.00  0.00    -0.047 C 
ATOM      6  C   LIG d   1      -0.176  82.341 111.271  0.00  0.00     0.091 C 
ENDROOT
BRANCH   1   7
ATOM      7  O   LIG d   1       0.499  84.696 111.344  0.00  0.00    -0.368 OA
BRANCH   7   8
ATOM      8  C   LIG d   1       1.063  85.630 110.391  0.00  0.00     0.119 C 
BRANCH   8   9
ATOM      9  C   LIG d   1       1.531  86.869 111.179  0.00  0.00     0.028 C 
ATOM     10  C   LIG d   1       2.930  86.684 111.789  0.00  0.00     0.006 C 
ENDBRANCH   8   9
BRANCH   8  11
ATOM     11  C   LIG d   1      -0.001  86.146 109.418  0.00  0.00     0.028 C 
ATOM     12  C   LIG d   1      -1.329  86.486 110.114  0.00  0.00     0.006 C 
ENDBRANCH   8  11
ENDBRANCH   7   8
ENDBRANCH   1   7
BRANCH   6  13
ATOM     13  N   LIG d   1      -0.714  82.268 112.654  0.00  0.00    -0.311 N 
ATOM     14  C   LIG d   1      -2.002  82.068 112.930  0.00  0.00     0.210 C 
ATOM     15  C   LIG d   1      -2.348  82.047 114.422  0.00  0.00     0.109 C 
ATOM     16  O   LIG d   1      -2.885  81.874 112.081  0.00  0.00    -0.276 OA
ATOM     17  H   LIG d   1      -0.062  82.384 113.405  0.00  0.00     0.149 HD
ENDBRANCH   6  13
BRANCH   5  18
ATOM     18  N   LIG d   1      -0.860  80.010 110.602  0.00  0.00     0.381 N 
ATOM     19  H   LIG d   1      -1.682  80.495 110.305  0.00  0.00    -0.090 HD
ATOM     20  H   LIG d   1      -1.044  79.598 111.500  0.00  0.00    -0.090 HD
ATOM     21  H   LIG d   1      -0.628  79.299 109.944  0.00  0.00    -0.090 HD
ENDBRANCH   5  18
BRANCH   3  22
ATOM     22  C   LIG d   1       2.912  81.970 108.396  0.00  0.00     0.382 C 
ATOM     23  O   LIG d   1       3.877  81.210 108.655  0.00  0.00    -0.241 OA
ATOM     24  O   LIG d   1       2.911  82.619 107.333  0.00  0.00    -0.241 OA
ENDBRANCH   3  22
TORSDOF 7
ENDMDL
MODEL 2
REMARK VINA RESULT:      -6.6      1.677      4.954
REMARK  7 active torsions:
REMARK  status: ('A' for Active; 'I' for Inactive)
REMARK    1  A    between atoms: C_2  and  C_3 
REMARK    2  A    between atoms: C_3  and  O_6 
REMARK    3  A    between atoms: C_3  and  C_4 
REMARK    4  A    between atoms: C_7  and  O_6 
REMARK    5  A    between atoms: C_9  and  C_10 
REMARK    6  A    between atoms: N_15  and  C_14 
REMARK    7  A    between atoms: N_20  and  C_19 
REMARK       I    between atoms: C_22  and  N_20 
ROOT
ATOM      1  C   LIG d   1      -0.151  82.885 111.162  0.00  0.00     0.161 C 
ATOM      2  C   LIG d   1      -1.259  82.546 111.957  0.00  0.00     0.016 C 
ATOM      3  C   LIG d   1      -1.725  81.221 112.119  0.00  0.00     0.038 C 
ATOM      4  C   LIG d   1      -1.017  80.120 111.614  0.00  0.00     0.028 C 
ATOM      5  C   LIG d   1      -0.178  80.451 110.385  0.00  0.00    -0.047 C 
ATOM      6  C   LIG d   1       0.699  81.685 110.694  0.00  0.00     0.091 C 
ENDROOT
BRANCH   1   7
ATOM      7  O   LIG d   1       0.673  83.843 111.855  0.00  0.00    -0.368 OA
BRANCH   7   8
ATOM      8  C   LIG d   1       0.712  85.177 111.290  0.00  0.00     0.119 C 
BRANCH   8   9
ATOM      9  C   LIG d   1      -0.292  85.214 110.122  0.00  0.00     0.028 C 
ATOM     10  C   LIG d   1      -1.265  86.401 110.221  0.00  0.00     0.006 C 
ENDBRANCH   8   9
BRANCH   8  11
ATOM     11  C   LIG d   1       2.076  85.476 110.662  0.00  0.00     0.028 C 
ATOM     12  C   LIG d   1       3.251  85.063 111.564  0.00  0.00     0.006 C 
ENDBRANCH   8  11
ENDBRANCH   7   8
ENDBRANCH   1   7
BRANCH   6  13
ATOM     13  N   LIG d   1       1.490  82.128 109.516  0.00  0.00    -0.311 N 
ATOM     14  C   LIG d   1       2.819  82.058 109.457  0.00  0.00     0.210 C 
ATOM     15  C   LIG d   1       3.438  82.586 108.158  0.00  0.00     0.109 C 
ATOM     16  O   LIG d   1       3.542  81.580 110.344  0.00  0.00    -0.276 OA
ATOM     17  H   LIG d   1       0.981  82.500 108.738  0.00  0.00     0.149 HD
ENDBRANCH   6  13
BRANCH   5  18
ATOM     18  N   LIG d   1       0.611  79.251 110.048  0.00  0.00     0.381 N 
ATOM     19  H   LIG d   1       0.193  78.443 110.464  0.00  0.00    -0.090 HD
ATOM     20  H   LIG d   1       1.538  79.355 110.422  0.00  0.00    -0.090 HD
ATOM     21  H   LIG d   1       0.655  79.138 109.059  0.00  0.00    -0.090 HD
ENDBRANCH   5  18
BRANCH   3  22
ATOM     22  C   LIG d   1      -2.933  80.991 112.759  0.00  0.00     0.382 C 
ATOM     23  O   LIG d   1      -3.833  81.865 112.732  0.00  0.00    -0.241 OA
ATOM     24  O   LIG d   1      -3.117  79.939 113.400  0.00  0.00    -0.241 OA
ENDBRANCH   3  22
TORSDOF 7
ENDMDL
MODEL 3
REMARK VINA RESULT:      -6.3      1.712      1.852
REMARK  7 active torsions:
REMARK  status: ('A' for Active; 'I' for Inactive)
REMARK    1  A    between atoms: C_2  and  C_3 
REMARK    2  A    between atoms: C_3  and  O_6 
REMARK    3  A    between atoms: C_3  and  C_4 
REMARK    4  A    between atoms: C_7  and  O_6 
REMARK    5  A    between atoms: C_9  and  C_10 
REMARK    6  A    between atoms: N_15  and  C_14 
REMARK    7  A    between atoms: N_20  and  C_19 
REMARK       I    between atoms: C_22  and  N_20 
ROOT
ATOM      1  C   LIG d   1       0.979  82.306 111.967  0.00  0.00     0.161 C 
ATOM      2  C   LIG d   1       2.054  82.898 111.283  0.00  0.00     0.016 C 
ATOM      3  C   LIG d   1       2.297  82.707 109.903  0.00  0.00     0.038 C 
ATOM      4  C   LIG d   1       1.389  82.028 109.077  0.00  0.00     0.028 C 
ATOM      5  C   LIG d   1       0.555  80.989 109.819  0.00  0.00    -0.047 C 
ATOM      6  C   LIG d   1      -0.084  81.653 111.060  0.00  0.00     0.091 C 
ENDROOT
BRANCH   1   7
ATOM      7  O   LIG d   1       0.365  83.273 112.843  0.00  0.00    -0.368 OA
BRANCH   7   8
ATOM      8  C   LIG d   1       0.471  84.659 112.435  0.00  0.00     0.119 C 
BRANCH   8   9
ATOM      9  C   LIG d   1       0.747  85.494 113.700  0.00  0.00     0.028 C 
ATOM     10  C   LIG d   1       1.900  86.493 113.504  0.00  0.00     0.006 C 
ENDBRANCH   8   9
BRANCH   8  11
ATOM     11  C   LIG d   1      -0.860  85.182 111.886  0.00  0.00     0.028 C 
ATOM     12  C   LIG d   1      -0.856  85.335 110.357  0.00  0.00     0.006 C 
ENDBRANCH   8  11
ENDBRANCH   7   8
ENDBRANCH   1   7
BRANCH   6  13
ATOM     13  N   LIG d   1      -0.850  80.685 111.889  0.00  0.00    -0.311 N 
ATOM     14  C   LIG d   1      -2.075  80.925 112.352  0.00  0.00     0.210 C 
ATOM     15  C   LIG d   1      -2.676  79.802 113.203  0.00  0.00     0.109 C 
ATOM     16  O   LIG d   1      -2.735  81.947 112.112  0.00  0.00    -0.276 OA
ATOM     17  H   LIG d   1      -0.402  79.816 112.106  0.00  0.00     0.149 HD
ENDBRANCH   6  13
BRANCH   5  18
ATOM     18  N   LIG d   1      -0.441  80.457 108.870  0.00  0.00     0.381 N 
ATOM     19  H   LIG d   1      -0.992  79.752 109.317  0.00  0.00    -0.090 HD
ATOM     20  H   LIG d   1       0.040  80.037 108.095  0.00  0.00    -0.090 HD
ATOM     21  H   LIG d   1      -1.030  81.192 108.546  0.00  0.00    -0.090 HD
ENDBRANCH   5  18
BRANCH   3  22
ATOM     22  C   LIG d   1       3.481  83.165 109.345  0.00  0.00     0.382 C 
ATOM     23  O   LIG d   1       3.983  84.245 109.739  0.00  0.00    -0.241 OA
ATOM     24  O   LIG d   1       4.029  82.534 108.421  0.00  0.00    -0.241 OA
ENDBRANCH   3  22
TORSDOF 7
ENDMDL
MODEL 4
REMARK VINA RESULT:      -6.3      1.347      1.994
REMARK  7 active torsions:
REMARK  status: ('A' for Active; 'I' for Inactive)
REMARK    1  A    between atoms: C_2  and  C_3 
REMARK    2  A    between atoms: C_3  and  O_6 
REMARK    3  A    between atoms: C_3  and  C_4 
REMARK    4  A    between atoms: C_7  and  O_6 
REMARK    5  A    between atoms: C_9  and  C_10 
REMARK    6  A    between atoms: N_15  and  C_14 
REMARK    7  A    between atoms: N_20  and  C_19 
REMARK       I    between atoms: C_22  and  N_20 
ROOT
ATOM      1  C   LIG d   1       0.015  83.231 110.854  0.00  0.00     0.161 C 
ATOM      2  C   LIG d   1       0.817  83.465 109.724  0.00  0.00     0.016 C 
ATOM      3  C   LIG d   1       1.322  82.432 108.902  0.00  0.00     0.038 C 
ATOM      4  C   LIG d   1       0.932  81.095 109.067  0.00  0.00     0.028 C 
ATOM      5  C   LIG d   1       0.528  80.754 110.497  0.00  0.00    -0.047 C 
ATOM      6  C   LIG d   1      -0.513  81.787 110.985  0.00  0.00     0.091 C 
ENDROOT
BRANCH   1   7
ATOM      7  O   LIG d   1      -1.080  84.169 110.878  0.00  0.00    -0.368 OA
BRANCH   7   8
ATOM      8  C   LIG d   1      -0.915  85.319 111.743  0.00  0.00     0.119 C 
BRANCH   8   9
ATOM      9  C   LIG d   1      -0.542  86.520 110.852  0.00  0.00     0.028 C 
ATOM     10  C   LIG d   1      -1.218  86.457 109.471  0.00  0.00     0.006 C 
ENDBRANCH   8   9
BRANCH   8  11
ATOM     11  C   LIG d   1       0.272  85.136 112.694  0.00  0.00     0.028 C 
ATOM     12  C   LIG d   1      -0.161  84.818 114.133  0.00  0.00     0.006 C 
ENDBRANCH   8  11
ENDBRANCH   7   8
ENDBRANCH   1   7
BRANCH   6  13
ATOM     13  N   LIG d   1      -0.899  81.577 112.404  0.00  0.00    -0.311 N 
ATOM     14  C   LIG d   1      -2.159  81.617 112.835  0.00  0.00     0.210 C 
ATOM     15  C   LIG d   1      -2.335  81.393 114.340  0.00  0.00     0.109 C 
ATOM     16  O   LIG d   1      -3.150  81.785 112.109  0.00  0.00    -0.276 OA
ATOM     17  H   LIG d   1      -0.160  81.403 113.057  0.00  0.00     0.149 HD
ENDBRANCH   6  13
BRANCH   5  18
ATOM     18  N   LIG d   1       0.014  79.371 110.498  0.00  0.00     0.381 N 
ATOM     19  H   LIG d   1      -0.208  79.092 109.563  0.00  0.00    -0.090 HD
ATOM     20  H   LIG d   1      -0.828  79.337 111.045  0.00  0.00    -0.090 HD
ATOM     21  H   LIG d   1       0.695  78.754 110.883  0.00  0.00    -0.090 HD
ENDBRANCH   5  18
BRANCH   3  22
ATOM     22  C   LIG d   1       2.260  82.728 107.925  0.00  0.00     0.382 C 
ATOM     23  O   LIG d   1       3.479  82.521 108.142  0.00  0.00    -0.241 OA
ATOM     24  O   LIG d   1       1.908  83.242 106.846  0.00  0.00    -0.241 OA
ENDBRANCH   3  22
TORSDOF 7
ENDMDL
MODEL 5
REMARK VINA RESULT:      -6.2      2.472      5.353
REMARK  7 active torsions:
REMARK  status: ('A' for Active; 'I' for Inactive)
REMARK    1  A    between atoms: C_2  and  C_3 
REMARK    2  A    between atoms: C_3  and  O_6 
REMARK    3  A    between atoms: C_3  and  C_4 
REMARK    4  A    between atoms: C_7  and  O_6 
REMARK    5  A    between atoms: C_9  and  C_10 
REMARK    6  A    between atoms: N_15  and  C_14 
REMARK    7  A    between atoms: N_20  and  C_19 
REMARK       I    between atoms: C_22  and  N_20 
ROOT
ATOM      1  C   LIG d   1       1.855  82.934 111.714  0.00  0.00     0.161 C 
ATOM      2  C   LIG d   1       0.850  81.953 111.694  0.00  0.00     0.016 C 
ATOM      3  C   LIG d   1      -0.529  82.250 111.800  0.00  0.00     0.038 C 
ATOM      4  C   LIG d   1      -1.007  83.568 111.781  0.00  0.00     0.028 C 
ATOM      5  C   LIG d   1      -0.001  84.585 112.311  0.00  0.00    -0.047 C 
ATOM      6  C   LIG d   1       1.347  84.384 111.581  0.00  0.00     0.091 C 
ENDROOT
BRANCH   1   7
ATOM      7  O   LIG d   1       2.834  82.651 110.694  0.00  0.00    -0.368 OA
BRANCH   7   8
ATOM      8  C   LIG d   1       2.365  81.890 109.554  0.00  0.00     0.119 C 
BRANCH   8   9
ATOM      9  C   LIG d   1       3.277  80.656 109.414  0.00  0.00     0.028 C 
ATOM     10  C   LIG d   1       2.479  79.344 109.327  0.00  0.00     0.006 C 
ENDBRANCH   8   9
BRANCH   8  11
ATOM     11  C   LIG d   1       2.541  82.674 108.250  0.00  0.00     0.028 C 
ATOM     12  C   LIG d   1       1.354  83.601 107.947  0.00  0.00     0.006 C 
ENDBRANCH   8  11
ENDBRANCH   7   8
ENDBRANCH   1   7
BRANCH   6  13
ATOM     13  N   LIG d   1       2.411  85.283 112.099  0.00  0.00    -0.311 N 
ATOM     14  C   LIG d   1       2.672  86.483 111.583  0.00  0.00     0.210 C 
ATOM     15  C   LIG d   1       3.824  87.238 112.254  0.00  0.00     0.109 C 
ATOM     16  O   LIG d   1       2.039  87.007 110.654  0.00  0.00    -0.276 OA
ATOM     17  H   LIG d   1       2.953  84.950 112.872  0.00  0.00     0.149 HD
ENDBRANCH   6  13
BRANCH   5  18
ATOM     18  N   LIG d   1      -0.575  85.928 112.106  0.00  0.00     0.381 N 
ATOM     19  H   LIG d   1      -1.272  86.108 112.801  0.00  0.00    -0.090 HD
ATOM     20  H   LIG d   1      -1.016  85.959 111.203  0.00  0.00    -0.090 HD
ATOM     21  H   LIG d   1       0.142  86.617 112.158  0.00  0.00    -0.090 HD
ENDBRANCH   5  18
BRANCH   3  22
ATOM     22  C   LIG d   1      -1.442  81.220 111.966  0.00  0.00     0.382 C 
ATOM     23  O   LIG d   1      -1.055  80.027 111.934  0.00  0.00    -0.241 OA
ATOM     24  O   LIG d   1      -2.655  81.468 112.103  0.00  0.00    -0.241 OA
ENDBRANCH   3  22
TORSDOF 7
ENDMDL
MODEL 6
REMARK VINA RESULT:      -6.0      2.246      5.371
REMARK  7 active torsions:
REMARK  status: ('A' for Active; 'I' for Inactive)
REMARK    1  A    between atoms: C_2  and  C_3 
REMARK    2  A    between atoms: C_3  and  O_6 
REMARK    3  A    between atoms: C_3  and  C_4 
REMARK    4  A    between atoms: C_7  and  O_6 
REMARK    5  A    between atoms: C_9  and  C_10 
REMARK    6  A    between atoms: N_15  and  C_14 
REMARK    7  A    between atoms: N_20  and  C_19 
REMARK       I    between atoms: C_22  and  N_20 
ROOT
ATOM      1  C   LIG d   1       0.253  82.631 110.383  0.00  0.00     0.161 C 
ATOM      2  C   LIG d   1       0.123  84.005 110.646  0.00  0.00     0.016 C 
ATOM      3  C   LIG d   1       0.517  85.012 109.734  0.00  0.00     0.038 C 
ATOM      4  C   LIG d   1       0.930  84.709 108.429  0.00  0.00     0.028 C 
ATOM      5  C   LIG d   1       1.554  83.324 108.296  0.00  0.00    -0.047 C 
ATOM      6  C   LIG d   1       0.598  82.282 108.921  0.00  0.00     0.091 C 
ENDROOT
BRANCH   1   7
ATOM      7  O   LIG d   1      -0.944  81.940 110.795  0.00  0.00    -0.368 OA
BRANCH   7   8
ATOM      8  C   LIG d   1      -0.802  81.032 111.915  0.00  0.00     0.119 C 
BRANCH   8   9
ATOM      9  C   LIG d   1      -1.715  81.546 113.045  0.00  0.00     0.028 C 
ATOM     10  C   LIG d   1      -3.199  81.229 112.790  0.00  0.00     0.006 C 
ENDBRANCH   8   9
BRANCH   8  11
ATOM     11  C   LIG d   1       0.617  81.073 112.489  0.00  0.00     0.028 C 
ATOM     12  C   LIG d   1       0.636  81.124 114.025  0.00  0.00     0.006 C 
ENDBRANCH   8  11
ENDBRANCH   7   8
ENDBRANCH   1   7
BRANCH   6  13
ATOM     13  N   LIG d   1       1.169  80.910 108.909  0.00  0.00    -0.311 N 
ATOM     14  C   LIG d   1       2.361  80.607 109.422  0.00  0.00     0.210 C 
ATOM     15  C   LIG d   1       2.768  79.137 109.287  0.00  0.00     0.109 C 
ATOM     16  O   LIG d   1       3.105  81.411 110.004  0.00  0.00    -0.276 OA
ATOM     17  H   LIG d   1       0.619  80.190 108.483  0.00  0.00     0.149 HD
ENDBRANCH   6  13
BRANCH   5  18
ATOM     18  N   LIG d   1       1.812  83.086 106.863  0.00  0.00     0.381 N 
ATOM     19  H   LIG d   1       1.404  82.216 106.586  0.00  0.00    -0.090 HD
ATOM     20  H   LIG d   1       2.804  83.031 106.717  0.00  0.00    -0.090 HD
ATOM     21  H   LIG d   1       1.429  83.829 106.320  0.00  0.00    -0.090 HD
ENDBRANCH   5  18
BRANCH   3  22
ATOM     22  C   LIG d   1       0.537  86.337 110.141  0.00  0.00     0.382 C 
ATOM     23  O   LIG d   1      -0.537  86.924 110.419  0.00  0.00    -0.241 OA
ATOM     24  O   LIG d   1       1.611  86.966 110.191  0.00  0.00    -0.241 OA
ENDBRANCH   3  22
TORSDOF 7
ENDMDL
MODEL 7
REMARK VINA RESULT:      -5.9      2.319      5.111
REMARK  7 active torsions:
REMARK  status: ('A' for Active; 'I' for Inactive)
REMARK    1  A    between atoms: C_2  and  C_3 
REMARK    2  A    between atoms: C_3  and  O_6 
REMARK    3  A    between atoms: C_3  and  C_4 
REMARK    4  A    between atoms: C_7  and  O_6 
REMARK    5  A    between atoms: C_9  and  C_10 
REMARK    6  A    between atoms: N_15  and  C_14 
REMARK    7  A    between atoms: N_20  and  C_19 
REMARK       I    between atoms: C_22  and  N_20 
ROOT
ATOM      1  C   LIG d   1      -0.204  83.861 111.660  0.00  0.00     0.161 C 
ATOM      2  C   LIG d   1       0.341  85.028 112.221  0.00  0.00     0.016 C 
ATOM      3  C   LIG d   1       1.036  86.003 111.468  0.00  0.00     0.038 C 
ATOM      4  C   LIG d   1       1.102  85.949 110.068  0.00  0.00     0.028 C 
ATOM      5  C   LIG d   1       1.004  84.533 109.511  0.00  0.00    -0.047 C 
ATOM      6  C   LIG d   1      -0.238  83.840 110.118  0.00  0.00     0.091 C 
ENDROOT
BRANCH   1   7
ATOM      7  O   LIG d   1      -1.523  83.633 112.194  0.00  0.00    -0.368 OA
BRANCH   7   8
ATOM      8  C   LIG d   1      -1.620  82.654 113.258  0.00  0.00     0.119 C 
BRANCH   8   9
ATOM      9  C   LIG d   1      -1.886  83.421 114.568  0.00  0.00     0.028 C 
ATOM     10  C   LIG d   1      -0.644  83.487 115.473  0.00  0.00     0.006 C 
ENDBRANCH   8   9
BRANCH   8  11
ATOM     11  C   LIG d   1      -0.286  81.933 113.475  0.00  0.00     0.028 C 
ATOM     12  C   LIG d   1      -0.409  80.405 113.361  0.00  0.00     0.006 C 
ENDBRANCH   8  11
ENDBRANCH   7   8
ENDBRANCH   1   7
BRANCH   6  13
ATOM     13  N   LIG d   1      -0.362  82.422 109.690  0.00  0.00    -0.311 N 
ATOM     14  C   LIG d   1       0.594  81.514 109.878  0.00  0.00     0.210 C 
ATOM     15  C   LIG d   1       0.271  80.115 109.343  0.00  0.00     0.109 C 
ATOM     16  O   LIG d   1       1.665  81.725 110.466  0.00  0.00    -0.276 OA
ATOM     17  H   LIG d   1      -1.212  82.156 109.233  0.00  0.00     0.149 HD
ENDBRANCH   6  13
BRANCH   5  18
ATOM     18  N   LIG d   1       0.947  84.636 108.040  0.00  0.00     0.381 N 
ATOM     19  H   LIG d   1       1.424  85.462 107.740  0.00  0.00    -0.090 HD
ATOM     20  H   LIG d   1      -0.014  84.705 107.756  0.00  0.00    -0.090 HD
ATOM     21  H   LIG d   1       1.367  83.832 107.626  0.00  0.00    -0.090 HD
ENDBRANCH   5  18
BRANCH   3  22
ATOM     22  C   LIG d   1       1.708  87.025 112.121  0.00  0.00     0.382 C 
ATOM     23  O   LIG d   1       1.835  86.995 113.369  0.00  0.00    -0.241 OA
ATOM     24  O   LIG d   1       2.150  87.998 111.483  0.00  0.00    -0.241 OA
ENDBRANCH   3  22
TORSDOF 7
ENDMDL
MODEL 8
REMARK VINA RESULT:      -5.8      2.815      5.000
REMARK  7 active torsions:
REMARK  status: ('A' for Active; 'I' for Inactive)
REMARK    1  A    between atoms: C_2  and  C_3 
REMARK    2  A    between atoms: C_3  and  O_6 
REMARK    3  A    between atoms: C_3  and  C_4 
REMARK    4  A    between atoms: C_7  and  O_6 
REMARK    5  A    between atoms: C_9  and  C_10 
REMARK    6  A    between atoms: N_15  and  C_14 
REMARK    7  A    between atoms: N_20  and  C_19 
REMARK       I    between atoms: C_22  and  N_20 
ROOT
ATOM      1  C   LIG d   1       2.977  83.167 111.692  0.00  0.00     0.161 C 
ATOM      2  C   LIG d   1       3.116  84.528 112.011  0.00  0.00     0.016 C 
ATOM      3  C   LIG d   1       2.547  85.569 111.243  0.00  0.00     0.038 C 
ATOM      4  C   LIG d   1       1.667  85.311 110.181  0.00  0.00     0.028 C 
ATOM      5  C   LIG d   1       1.901  83.960 109.515  0.00  0.00    -0.047 C 
ATOM      6  C   LIG d   1       1.929  82.862 110.602  0.00  0.00     0.091 C 
ENDROOT
BRANCH   1   7
ATOM      7  O   LIG d   1       2.692  82.412 112.887  0.00  0.00    -0.368 OA
BRANCH   7   8
ATOM      8  C   LIG d   1       1.320  82.449 113.352  0.00  0.00     0.119 C 
BRANCH   8   9
ATOM      9  C   LIG d   1       1.323  83.096 114.750  0.00  0.00     0.028 C 
ATOM     10  C   LIG d   1       0.598  84.452 114.770  0.00  0.00     0.006 C 
ENDBRANCH   8   9
BRANCH   8  11
ATOM     11  C   LIG d   1       0.764  81.037 113.560  0.00  0.00     0.028 C 
ATOM     12  C   LIG d   1       0.592  80.677 115.044  0.00  0.00     0.006 C 
ENDBRANCH   8  11
ENDBRANCH   7   8
ENDBRANCH   1   7
BRANCH   6  13
ATOM     13  N   LIG d   1       2.237  81.519 110.044  0.00  0.00    -0.311 N 
ATOM     14  C   LIG d   1       1.302  80.632 109.708  0.00  0.00     0.210 C 
ATOM     15  C   LIG d   1       1.837  79.301 109.171  0.00  0.00     0.109 C 
ATOM     16  O   LIG d   1       0.080  80.834 109.774  0.00  0.00    -0.276 OA
ATOM     17  H   LIG d   1       3.203  81.284 109.928  0.00  0.00     0.149 HD
ENDBRANCH   6  13
BRANCH   5  18
ATOM     18  N   LIG d   1       0.830  83.762 108.520  0.00  0.00     0.381 N 
ATOM     19  H   LIG d   1       0.462  84.648 108.237  0.00  0.00    -0.090 HD
ATOM     20  H   LIG d   1       0.088  83.232 108.942  0.00  0.00    -0.090 HD
ATOM     21  H   LIG d   1       1.187  83.274 107.728  0.00  0.00    -0.090 HD
ENDBRANCH   5  18
BRANCH   3  22
ATOM     22  C   LIG d   1       2.888  86.886 111.510  0.00  0.00     0.382 C 
ATOM     23  O   LIG d   1       4.079  87.185 111.768  0.00  0.00    -0.241 OA
ATOM     24  O   LIG d   1       2.013  87.772 111.540  0.00  0.00    -0.241 OA
ENDBRANCH   3  22
TORSDOF 7
ENDMDL
MODEL 9
REMARK VINA RESULT:      -5.8      1.856      2.390
REMARK  7 active torsions:
REMARK  status: ('A' for Active; 'I' for Inactive)
REMARK    1  A    between atoms: C_2  and  C_3 
REMARK    2  A    between atoms: C_3  and  O_6 
REMARK    3  A    between atoms: C_3  and  C_4 
REMARK    4  A    between atoms: C_7  and  O_6 
REMARK    5  A    between atoms: C_9  and  C_10 
REMARK    6  A    between atoms: N_15  and  C_14 
REMARK    7  A    between atoms: N_20  and  C_19 
REMARK       I    between atoms: C_22  and  N_20 
ROOT
ATOM      1  C   LIG d   1       2.136  82.331 111.814  0.00  0.00     0.161 C 
ATOM      2  C   LIG d   1       2.769  81.462 110.909  0.00  0.00     0.016 C 
ATOM      3  C   LIG d   1       2.091  80.435 110.213  0.00  0.00     0.038 C 
ATOM      4  C   LIG d   1       0.695  80.304 110.261  0.00  0.00     0.028 C 
ATOM      5  C   LIG d   1       0.080  80.837 111.550  0.00  0.00    -0.047 C 
ATOM      6  C   LIG d   1       0.595  82.274 111.794  0.00  0.00     0.091 C 
ENDROOT
BRANCH   1   7
ATOM      7  O   LIG d   1       2.591  83.681 111.593  0.00  0.00    -0.368 OA
BRANCH   7   8
ATOM      8  C   LIG d   1       1.727  84.521 110.789  0.00  0.00     0.119 C 
BRANCH   8   9
ATOM      9  C   LIG d   1       2.263  84.487 109.344  0.00  0.00     0.028 C 
ATOM     10  C   LIG d   1       1.293  83.792 108.375  0.00  0.00     0.006 C 
ENDBRANCH   8   9
BRANCH   8  11
ATOM     11  C   LIG d   1       1.817  85.988 111.220  0.00  0.00     0.028 C 
ATOM     12  C   LIG d   1       0.596  86.813 110.784  0.00  0.00     0.006 C 
ENDBRANCH   8  11
ENDBRANCH   7   8
ENDBRANCH   1   7
BRANCH   6  13
ATOM     13  N   LIG d   1       0.107  82.840 113.079  0.00  0.00    -0.311 N 
ATOM     14  C   LIG d   1      -0.940  83.658 113.170  0.00  0.00     0.210 C 
ATOM     15  C   LIG d   1      -1.261  84.142 114.588  0.00  0.00     0.109 C 
ATOM     16  O   LIG d   1      -1.653  84.002 112.216  0.00  0.00    -0.276 OA
ATOM     17  H   LIG d   1       0.609  82.588 113.908  0.00  0.00     0.149 HD
ENDBRANCH   6  13
BRANCH   5  18
ATOM     18  N   LIG d   1      -1.386  80.764 111.408  0.00  0.00     0.381 N 
ATOM     19  H   LIG d   1      -1.823  81.003 112.276  0.00  0.00    -0.090 HD
ATOM     20  H   LIG d   1      -1.644  79.821 111.175  0.00  0.00    -0.090 HD
ATOM     21  H   LIG d   1      -1.691  81.386 110.692  0.00  0.00    -0.090 HD
ENDBRANCH   5  18
BRANCH   3  22
ATOM     22  C   LIG d   1       2.816  79.501 109.490  0.00  0.00     0.382 C 
ATOM     23  O   LIG d   1       2.233  78.518 108.973  0.00  0.00    -0.241 OA
ATOM     24  O   LIG d   1       4.053  79.605 109.385  0.00  0.00    -0.241 OA
ENDBRANCH   3  22
TORSDOF 7
ENDMDL
