MODEL 1
REMARK VINA RESULT:      -6.4      0.000      0.000
REMARK  7 active torsions:
REMARK  status: ('A' for Active; 'I' for Inactive)
REMARK    1  A    between atoms: C_2  and  C_3 
REMARK    2  A    between atoms: C_3  and  O_6 
REMARK    3  A    between atoms: C_3  and  C_4 
REMARK    4  A    between atoms: C_7  and  O_6 
REMARK    5  A    between atoms: C_9  and  C_10 
REMARK    6  A    between atoms: N_15  and  C_14 
REMARK    7  A    between atoms: N_20  and  C_19 
REMARK       I    between atoms: C_22  and  N_20 
ROOT
ATOM      1  C   LIG d   1       0.030  84.113 110.146  0.00  0.00     0.161 C 
ATOM      2  C   LIG d   1      -0.187  85.234 110.964  0.00  0.00     0.016 C 
ATOM      3  C   LIG d   1      -0.471  85.146 112.346  0.00  0.00     0.038 C 
ATOM      4  C   LIG d   1      -0.407  83.929 113.040  0.00  0.00     0.028 C 
ATOM      5  C   LIG d   1      -0.689  82.715 112.161  0.00  0.00    -0.047 C 
ATOM      6  C   LIG d   1       0.213  82.783 110.907  0.00  0.00     0.091 C 
ENDROOT
BRANCH   1   7
ATOM      7  O   LIG d   1       1.154  84.351 109.277  0.00  0.00    -0.368 OA
BRANCH   7   8
ATOM      8  C   LIG d   1       2.459  84.039 109.823  0.00  0.00     0.119 C 
BRANCH   8   9
ATOM      9  C   LIG d   1       3.162  85.374 110.138  0.00  0.00     0.028 C 
ATOM     10  C   LIG d   1       3.487  85.527 111.633  0.00  0.00     0.006 C 
ENDBRANCH   8   9
BRANCH   8  11
ATOM     11  C   LIG d   1       3.347  83.348 108.783  0.00  0.00     0.028 C 
ATOM     12  C   LIG d   1       4.545  82.620 109.413  0.00  0.00     0.006 C 
ENDBRANCH   8  11
ENDBRANCH   7   8
ENDBRANCH   1   7
BRANCH   6  13
ATOM     13  N   LIG d   1      -0.059  81.677 109.953  0.00  0.00    -0.311 N 
ATOM     14  C   LIG d   1       0.799  80.687 109.714  0.00  0.00     0.210 C 
ATOM     15  C   LIG d   1       0.330  79.659 108.679  0.00  0.00     0.109 C 
ATOM     16  O   LIG d   1       1.890  80.544 110.286  0.00  0.00    -0.276 OA
ATOM     17  H   LIG d   1      -0.935  81.697 109.468  0.00  0.00     0.149 HD
ENDBRANCH   6  13
BRANCH   5  18
ATOM     18  N   LIG d   1      -0.454  81.509 112.978  0.00  0.00     0.381 N 
ATOM     19  H   LIG d   1      -1.192  80.850 112.829  0.00  0.00    -0.090 HD
ATOM     20  H   LIG d   1      -0.454  81.769 113.948  0.00  0.00    -0.090 HD
ATOM     21  H   LIG d   1       0.421  81.099 112.736  0.00  0.00    -0.090 HD
ENDBRANCH   5  18
BRANCH   3  22
ATOM     22  C   LIG d   1      -0.862  86.281 113.041  0.00  0.00     0.382 C 
ATOM     23  O   LIG d   1      -0.130  86.743 113.949  0.00  0.00    -0.241 OA
ATOM     24  O   LIG d   1      -1.958  86.822 112.802  0.00  0.00    -0.241 OA
ENDBRANCH   3  22
TORSDOF 7
ENDMDL
MODEL 2
REMARK VINA RESULT:      -6.3      2.407      4.018
REMARK  7 active torsions:
REMARK  status: ('A' for Active; 'I' for Inactive)
REMARK    1  A    between atoms: C_2  and  C_3 
REMARK    2  A    between atoms: C_3  and  O_6 
REMARK    3  A    between atoms: C_3  and  C_4 
REMARK    4  A    between atoms: C_7  and  O_6 
REMARK    5  A    between atoms: C_9  and  C_10 
REMARK    6  A    between atoms: N_15  and  C_14 
REMARK    7  A    between atoms: N_20  and  C_19 
REMARK       I    between atoms: C_22  and  N_20 
ROOT
ATOM      1  C   LIG d   1       0.525  82.465 110.928  0.00  0.00     0.161 C 
ATOM      2  C   LIG d   1      -0.596  82.119 111.702  0.00  0.00     0.016 C 
ATOM      3  C   LIG d   1      -1.131  80.812 111.756  0.00  0.00     0.038 C 
ATOM      4  C   LIG d   1      -0.485  79.721 111.154  0.00  0.00     0.028 C 
ATOM      5  C   LIG d   1       0.365  80.110 109.949  0.00  0.00    -0.047 C 
ATOM      6  C   LIG d   1       1.308  81.266 110.353  0.00  0.00     0.091 C 
ENDROOT
BRANCH   1   7
ATOM      7  O   LIG d   1       1.402  83.316 111.692  0.00  0.00    -0.368 OA
BRANCH   7   8
ATOM      8  C   LIG d   1       1.219  84.743 111.515  0.00  0.00     0.119 C 
BRANCH   8   9
ATOM      9  C   LIG d   1       0.836  84.981 110.041  0.00  0.00     0.028 C 
ATOM     10  C   LIG d   1      -0.412  85.868 109.895  0.00  0.00     0.006 C 
ENDBRANCH   8   9
BRANCH   8  11
ATOM     11  C   LIG d   1       2.532  85.503 111.721  0.00  0.00     0.028 C 
ATOM     12  C   LIG d   1       3.349  85.643 110.426  0.00  0.00     0.006 C 
ENDBRANCH   8  11
ENDBRANCH   7   8
ENDBRANCH   1   7
BRANCH   6  13
ATOM     13  N   LIG d   1       2.116  81.764 109.209  0.00  0.00    -0.311 N 
ATOM     14  C   LIG d   1       3.408  82.072 109.303  0.00  0.00     0.210 C 
ATOM     15  C   LIG d   1       4.047  82.586 108.009  0.00  0.00     0.109 C 
ATOM     16  O   LIG d   1       4.095  81.937 110.328  0.00  0.00    -0.276 OA
ATOM     17  H   LIG d   1       1.646  81.874 108.332  0.00  0.00     0.149 HD
ENDBRANCH   6  13
BRANCH   5  18
ATOM     18  N   LIG d   1       1.087  78.903 109.505  0.00  0.00     0.381 N 
ATOM     19  H   LIG d   1       2.074  79.059 109.562  0.00  0.00    -0.090 HD
ATOM     20  H   LIG d   1       0.852  78.718 108.546  0.00  0.00    -0.090 HD
ATOM     21  H   LIG d   1       0.833  78.125 110.073  0.00  0.00    -0.090 HD
ENDBRANCH   5  18
BRANCH   3  22
ATOM     22  C   LIG d   1      -2.346  80.592 112.386  0.00  0.00     0.382 C 
ATOM     23  O   LIG d   1      -2.583  79.483 112.922  0.00  0.00    -0.241 OA
ATOM     24  O   LIG d   1      -3.226  81.473 112.385  0.00  0.00    -0.241 OA
ENDBRANCH   3  22
TORSDOF 7
ENDMDL
MODEL 3
REMARK VINA RESULT:      -6.2      2.979      4.825
REMARK  7 active torsions:
REMARK  status: ('A' for Active; 'I' for Inactive)
REMARK    1  A    between atoms: C_2  and  C_3 
REMARK    2  A    between atoms: C_3  and  O_6 
REMARK    3  A    between atoms: C_3  and  C_4 
REMARK    4  A    between atoms: C_7  and  O_6 
REMARK    5  A    between atoms: C_9  and  C_10 
REMARK    6  A    between atoms: N_15  and  C_14 
REMARK    7  A    between atoms: N_20  and  C_19 
REMARK       I    between atoms: C_22  and  N_20 
ROOT
ATOM      1  C   LIG d   1       1.906  84.262 111.845  0.00  0.00     0.161 C 
ATOM      2  C   LIG d   1       0.974  83.212 111.875  0.00  0.00     0.016 C 
ATOM      3  C   LIG d   1      -0.204  83.238 112.657  0.00  0.00     0.038 C 
ATOM      4  C   LIG d   1      -0.607  84.388 113.352  0.00  0.00     0.028 C 
ATOM      5  C   LIG d   1       0.554  85.291 113.754  0.00  0.00    -0.047 C 
ATOM      6  C   LIG d   1       1.427  85.570 112.509  0.00  0.00     0.091 C 
ENDROOT
BRANCH   1   7
ATOM      7  O   LIG d   1       2.318  84.512 110.487  0.00  0.00    -0.368 OA
BRANCH   7   8
ATOM      8  C   LIG d   1       1.350  84.188 109.458  0.00  0.00     0.119 C 
BRANCH   8   9
ATOM      9  C   LIG d   1       2.121  83.575 108.273  0.00  0.00     0.028 C 
ATOM     10  C   LIG d   1       3.512  83.061 108.681  0.00  0.00     0.006 C 
ENDBRANCH   8   9
BRANCH   8  11
ATOM     11  C   LIG d   1       0.687  85.451 108.900  0.00  0.00     0.028 C 
ATOM     12  C   LIG d   1      -0.626  85.801 109.618  0.00  0.00     0.006 C 
ENDBRANCH   8  11
ENDBRANCH   7   8
ENDBRANCH   1   7
BRANCH   6  13
ATOM     13  N   LIG d   1       2.633  86.378 112.832  0.00  0.00    -0.311 N 
ATOM     14  C   LIG d   1       3.038  87.414 112.100  0.00  0.00     0.210 C 
ATOM     15  C   LIG d   1       4.317  88.096 112.597  0.00  0.00     0.109 C 
ATOM     16  O   LIG d   1       2.443  87.853 111.104  0.00  0.00    -0.276 OA
ATOM     17  H   LIG d   1       3.158  86.110 113.641  0.00  0.00     0.149 HD
ENDBRANCH   6  13
BRANCH   5  18
ATOM     18  N   LIG d   1      -0.018  86.516 114.345  0.00  0.00     0.381 N 
ATOM     19  H   LIG d   1       0.499  86.770 115.163  0.00  0.00    -0.090 HD
ATOM     20  H   LIG d   1      -0.968  86.333 114.617  0.00  0.00    -0.090 HD
ATOM     21  H   LIG d   1       0.009  87.259 113.682  0.00  0.00    -0.090 HD
ENDBRANCH   5  18
BRANCH   3  22
ATOM     22  C   LIG d   1      -0.971  82.090 112.783  0.00  0.00     0.382 C 
ATOM     23  O   LIG d   1      -0.568  81.141 113.498  0.00  0.00    -0.241 OA
ATOM     24  O   LIG d   1      -2.040  81.973 112.154  0.00  0.00    -0.241 OA
ENDBRANCH   3  22
TORSDOF 7
ENDMDL
MODEL 4
REMARK VINA RESULT:      -5.9      2.396      5.877
REMARK  7 active torsions:
REMARK  status: ('A' for Active; 'I' for Inactive)
REMARK    1  A    between atoms: C_2  and  C_3 
REMARK    2  A    between atoms: C_3  and  O_6 
REMARK    3  A    between atoms: C_3  and  C_4 
REMARK    4  A    between atoms: C_7  and  O_6 
REMARK    5  A    between atoms: C_9  and  C_10 
REMARK    6  A    between atoms: N_15  and  C_14 
REMARK    7  A    between atoms: N_20  and  C_19 
REMARK       I    between atoms: C_22  and  N_20 
ROOT
ATOM      1  C   LIG d   1       1.197  82.981 110.616  0.00  0.00     0.161 C 
ATOM      2  C   LIG d   1       0.697  81.719 110.254  0.00  0.00     0.016 C 
ATOM      3  C   LIG d   1       1.462  80.747 109.570  0.00  0.00     0.038 C 
ATOM      4  C   LIG d   1       2.834  80.914 109.333  0.00  0.00     0.028 C 
ATOM      5  C   LIG d   1       3.257  82.376 109.232  0.00  0.00    -0.047 C 
ATOM      6  C   LIG d   1       2.724  83.139 110.466  0.00  0.00     0.091 C 
ENDROOT
BRANCH   1   7
ATOM      7  O   LIG d   1       0.790  83.300 111.962  0.00  0.00    -0.368 OA
BRANCH   7   8
ATOM      8  C   LIG d   1      -0.420  84.085 112.094  0.00  0.00     0.119 C 
BRANCH   8   9
ATOM      9  C   LIG d   1      -0.074  85.536 111.708  0.00  0.00     0.028 C 
ATOM     10  C   LIG d   1      -0.658  85.936 110.342  0.00  0.00     0.006 C 
ENDBRANCH   8   9
BRANCH   8  11
ATOM     11  C   LIG d   1      -0.885  84.153 113.551  0.00  0.00     0.028 C 
ATOM     12  C   LIG d   1      -1.021  85.594 114.067  0.00  0.00     0.006 C 
ENDBRANCH   8  11
ENDBRANCH   7   8
ENDBRANCH   1   7
BRANCH   6  13
ATOM     13  N   LIG d   1       3.022  84.594 110.404  0.00  0.00    -0.311 N 
ATOM     14  C   LIG d   1       3.494  85.290 111.436  0.00  0.00     0.210 C 
ATOM     15  C   LIG d   1       3.713  86.782 111.165  0.00  0.00     0.109 C 
ATOM     16  O   LIG d   1       3.783  84.808 112.542  0.00  0.00    -0.276 OA
ATOM     17  H   LIG d   1       2.846  85.059 109.535  0.00  0.00     0.149 HD
ENDBRANCH   6  13
BRANCH   5  18
ATOM     18  N   LIG d   1       4.728  82.408 109.123  0.00  0.00     0.381 N 
ATOM     19  H   LIG d   1       5.083  81.474 109.063  0.00  0.00    -0.090 HD
ATOM     20  H   LIG d   1       5.106  82.836 109.950  0.00  0.00    -0.090 HD
ATOM     21  H   LIG d   1       4.999  82.927 108.318  0.00  0.00    -0.090 HD
ENDBRANCH   5  18
BRANCH   3  22
ATOM     22  C   LIG d   1       0.843  79.607 109.079  0.00  0.00     0.382 C 
ATOM     23  O   LIG d   1      -0.409  79.548 109.021  0.00  0.00    -0.241 OA
ATOM     24  O   LIG d   1       1.520  78.620 108.734  0.00  0.00    -0.241 OA
ENDBRANCH   3  22
TORSDOF 7
ENDMDL
MODEL 5
REMARK VINA RESULT:      -5.8      2.804      4.830
REMARK  7 active torsions:
REMARK  status: ('A' for Active; 'I' for Inactive)
REMARK    1  A    between atoms: C_2  and  C_3 
REMARK    2  A    between atoms: C_3  and  O_6 
REMARK    3  A    between atoms: C_3  and  C_4 
REMARK    4  A    between atoms: C_7  and  O_6 
REMARK    5  A    between atoms: C_9  and  C_10 
REMARK    6  A    between atoms: N_15  and  C_14 
REMARK    7  A    between atoms: N_20  and  C_19 
REMARK       I    between atoms: C_22  and  N_20 
ROOT
ATOM      1  C   LIG d   1       2.379  83.642 111.895  0.00  0.00     0.161 C 
ATOM      2  C   LIG d   1       1.428  82.617 111.758  0.00  0.00     0.016 C 
ATOM      3  C   LIG d   1       0.035  82.849 111.706  0.00  0.00     0.038 C 
ATOM      4  C   LIG d   1      -0.498  84.145 111.635  0.00  0.00     0.028 C 
ATOM      5  C   LIG d   1       0.392  85.203 112.278  0.00  0.00    -0.047 C 
ATOM      6  C   LIG d   1       1.822  85.069 111.707  0.00  0.00     0.091 C 
ENDROOT
BRANCH   1   7
ATOM      7  O   LIG d   1       3.480  83.411 110.994  0.00  0.00    -0.368 OA
BRANCH   7   8
ATOM      8  C   LIG d   1       3.186  82.617 109.818  0.00  0.00     0.119 C 
BRANCH   8   9
ATOM      9  C   LIG d   1       4.382  81.674 109.585  0.00  0.00     0.028 C 
ATOM     10  C   LIG d   1       3.961  80.197 109.521  0.00  0.00     0.006 C 
ENDBRANCH   8   9
BRANCH   8  11
ATOM     11  C   LIG d   1       3.106  83.490 108.562  0.00  0.00     0.028 C 
ATOM     12  C   LIG d   1       1.661  83.779 108.128  0.00  0.00     0.006 C 
ENDBRANCH   8  11
ENDBRANCH   7   8
ENDBRANCH   1   7
BRANCH   6  13
ATOM     13  N   LIG d   1       2.778  86.012 112.345  0.00  0.00    -0.311 N 
ATOM     14  C   LIG d   1       3.102  87.193 111.822  0.00  0.00     0.210 C 
ATOM     15  C   LIG d   1       4.121  88.001 112.631  0.00  0.00     0.109 C 
ATOM     16  O   LIG d   1       2.618  87.662 110.781  0.00  0.00    -0.276 OA
ATOM     17  H   LIG d   1       3.194  85.725 113.209  0.00  0.00     0.149 HD
ENDBRANCH   6  13
BRANCH   5  18
ATOM     18  N   LIG d   1      -0.216  86.520 112.011  0.00  0.00     0.381 N 
ATOM     19  H   LIG d   1      -1.144  86.546 112.384  0.00  0.00    -0.090 HD
ATOM     20  H   LIG d   1      -0.272  86.657 111.018  0.00  0.00    -0.090 HD
ATOM     21  H   LIG d   1       0.335  87.240 112.423  0.00  0.00    -0.090 HD
ENDBRANCH   5  18
BRANCH   3  22
ATOM     22  C   LIG d   1      -0.843  81.778 111.765  0.00  0.00     0.382 C 
ATOM     23  O   LIG d   1      -0.494  80.656 111.324  0.00  0.00    -0.241 OA
ATOM     24  O   LIG d   1      -1.996  81.930 112.212  0.00  0.00    -0.241 OA
ENDBRANCH   3  22
TORSDOF 7
ENDMDL
MODEL 6
REMARK VINA RESULT:      -5.4      2.457      4.480
REMARK  7 active torsions:
REMARK  status: ('A' for Active; 'I' for Inactive)
REMARK    1  A    between atoms: C_2  and  C_3 
REMARK    2  A    between atoms: C_3  and  O_6 
REMARK    3  A    between atoms: C_3  and  C_4 
REMARK    4  A    between atoms: C_7  and  O_6 
REMARK    5  A    between atoms: C_9  and  C_10 
REMARK    6  A    between atoms: N_15  and  C_14 
REMARK    7  A    between atoms: N_20  and  C_19 
REMARK       I    between atoms: C_22  and  N_20 
ROOT
ATOM      1  C   LIG d   1       0.830  82.136 110.932  0.00  0.00     0.161 C 
ATOM      2  C   LIG d   1      -0.058  81.122 111.327  0.00  0.00     0.016 C 
ATOM      3  C   LIG d   1      -1.049  81.299 112.319  0.00  0.00     0.038 C 
ATOM      4  C   LIG d   1      -1.321  82.555 112.881  0.00  0.00     0.028 C 
ATOM      5  C   LIG d   1      -0.117  83.492 112.880  0.00  0.00    -0.047 C 
ATOM      6  C   LIG d   1       0.476  83.545 111.454  0.00  0.00     0.091 C 
ENDROOT
BRANCH   1   7
ATOM      7  O   LIG d   1       0.949  82.149 109.496  0.00  0.00    -0.368 OA
BRANCH   7   8
ATOM      8  C   LIG d   1       2.269  81.877 108.963  0.00  0.00     0.119 C 
BRANCH   8   9
ATOM      9  C   LIG d   1       3.200  81.593 110.157  0.00  0.00     0.028 C 
ATOM     10  C   LIG d   1       4.116  80.382 109.912  0.00  0.00     0.006 C 
ENDBRANCH   8   9
BRANCH   8  11
ATOM     11  C   LIG d   1       2.857  83.112 108.274  0.00  0.00     0.028 C 
ATOM     12  C   LIG d   1       1.780  84.028 107.672  0.00  0.00     0.006 C 
ENDBRANCH   8  11
ENDBRANCH   7   8
ENDBRANCH   1   7
BRANCH   6  13
ATOM     13  N   LIG d   1       1.708  84.373 111.383  0.00  0.00    -0.311 N 
ATOM     14  C   LIG d   1       1.715  85.644 110.986  0.00  0.00     0.210 C 
ATOM     15  C   LIG d   1       3.095  86.308 110.967  0.00  0.00     0.109 C 
ATOM     16  O   LIG d   1       0.705  86.294 110.677  0.00  0.00    -0.276 OA
ATOM     17  H   LIG d   1       2.569  83.934 111.645  0.00  0.00     0.149 HD
ENDBRANCH   6  13
BRANCH   5  18
ATOM     18  N   LIG d   1      -0.576  84.807 113.365  0.00  0.00     0.381 N 
ATOM     19  H   LIG d   1      -1.276  84.684 114.068  0.00  0.00    -0.090 HD
ATOM     20  H   LIG d   1      -0.985  85.312 112.598  0.00  0.00    -0.090 HD
ATOM     21  H   LIG d   1       0.193  85.320 113.737  0.00  0.00    -0.090 HD
ENDBRANCH   5  18
BRANCH   3  22
ATOM     22  C   LIG d   1      -1.755  80.201 112.789  0.00  0.00     0.382 C 
ATOM     23  O   LIG d   1      -3.004  80.162 112.673  0.00  0.00    -0.241 OA
ATOM     24  O   LIG d   1      -1.164  79.270 113.366  0.00  0.00    -0.241 OA
ENDBRANCH   3  22
TORSDOF 7
ENDMDL
MODEL 7
REMARK VINA RESULT:      -5.1      2.340      6.047
REMARK  7 active torsions:
REMARK  status: ('A' for Active; 'I' for Inactive)
REMARK    1  A    between atoms: C_2  and  C_3 
REMARK    2  A    between atoms: C_3  and  O_6 
REMARK    3  A    between atoms: C_3  and  C_4 
REMARK    4  A    between atoms: C_7  and  O_6 
REMARK    5  A    between atoms: C_9  and  C_10 
REMARK    6  A    between atoms: N_15  and  C_14 
REMARK    7  A    between atoms: N_20  and  C_19 
REMARK       I    between atoms: C_22  and  N_20 
ROOT
ATOM      1  C   LIG d   1       0.446  82.232 110.537  0.00  0.00     0.161 C 
ATOM      2  C   LIG d   1       1.267  81.137 110.220  0.00  0.00     0.016 C 
ATOM      3  C   LIG d   1       2.603  81.269 109.776  0.00  0.00     0.038 C 
ATOM      4  C   LIG d   1       3.261  82.508 109.763  0.00  0.00     0.028 C 
ATOM      5  C   LIG d   1       2.318  83.693 109.592  0.00  0.00    -0.047 C 
ATOM      6  C   LIG d   1       1.182  83.585 110.635  0.00  0.00     0.091 C 
ENDROOT
BRANCH   1   7
ATOM      7  O   LIG d   1      -0.277  81.965 111.755  0.00  0.00    -0.368 OA
BRANCH   7   8
ATOM      8  C   LIG d   1       0.496  81.402 112.843  0.00  0.00     0.119 C 
BRANCH   8   9
ATOM      9  C   LIG d   1      -0.376  80.327 113.522  0.00  0.00     0.028 C 
ATOM     10  C   LIG d   1       0.414  79.486 114.538  0.00  0.00     0.006 C 
ENDBRANCH   8   9
BRANCH   8  11
ATOM     11  C   LIG d   1       0.771  82.446 113.930  0.00  0.00     0.028 C 
ATOM     12  C   LIG d   1      -0.321  83.524 114.011  0.00  0.00     0.006 C 
ENDBRANCH   8  11
ENDBRANCH   7   8
ENDBRANCH   1   7
BRANCH   6  13
ATOM     13  N   LIG d   1       0.168  84.661 110.482  0.00  0.00    -0.311 N 
ATOM     14  C   LIG d   1       0.192  85.796 111.178  0.00  0.00     0.210 C 
ATOM     15  C   LIG d   1      -0.959  86.762 110.881  0.00  0.00     0.109 C 
ATOM     16  O   LIG d   1       1.075  86.108 111.991  0.00  0.00    -0.276 OA
ATOM     17  H   LIG d   1      -0.568  84.504 109.821  0.00  0.00     0.149 HD
ENDBRANCH   6  13
BRANCH   5  18
ATOM     18  N   LIG d   1       3.118  84.924 109.735  0.00  0.00     0.381 N 
ATOM     19  H   LIG d   1       3.774  84.817 110.483  0.00  0.00    -0.090 HD
ATOM     20  H   LIG d   1       2.504  85.687 109.959  0.00  0.00    -0.090 HD
ATOM     21  H   LIG d   1       3.602  85.117 108.885  0.00  0.00    -0.090 HD
ENDBRANCH   5  18
BRANCH   3  22
ATOM     22  C   LIG d   1       3.282  80.157 109.301  0.00  0.00     0.382 C 
ATOM     23  O   LIG d   1       4.537  80.153 109.275  0.00  0.00    -0.241 OA
ATOM     24  O   LIG d   1       2.656  79.176 108.858  0.00  0.00    -0.241 OA
ENDBRANCH   3  22
TORSDOF 7
ENDMDL
MODEL 8
REMARK VINA RESULT:      -5.1      2.228      4.699
REMARK  7 active torsions:
REMARK  status: ('A' for Active; 'I' for Inactive)
REMARK    1  A    between atoms: C_2  and  C_3 
REMARK    2  A    between atoms: C_3  and  O_6 
REMARK    3  A    between atoms: C_3  and  C_4 
REMARK    4  A    between atoms: C_7  and  O_6 
REMARK    5  A    between atoms: C_9  and  C_10 
REMARK    6  A    between atoms: N_15  and  C_14 
REMARK    7  A    between atoms: N_20  and  C_19 
REMARK       I    between atoms: C_22  and  N_20 
ROOT
ATOM      1  C   LIG d   1       1.034  82.529 111.785  0.00  0.00     0.161 C 
ATOM      2  C   LIG d   1       1.934  83.374 111.114  0.00  0.00     0.016 C 
ATOM      3  C   LIG d   1       2.628  82.997 109.941  0.00  0.00     0.038 C 
ATOM      4  C   LIG d   1       2.353  81.797 109.270  0.00  0.00     0.028 C 
ATOM      5  C   LIG d   1       1.823  80.698 110.186  0.00  0.00    -0.047 C 
ATOM      6  C   LIG d   1       0.638  81.257 111.006  0.00  0.00     0.091 C 
ENDROOT
BRANCH   1   7
ATOM      7  O   LIG d   1      -0.142  83.270 112.165  0.00  0.00    -0.368 OA
BRANCH   7   8
ATOM      8  C   LIG d   1       0.083  84.617 112.649  0.00  0.00     0.119 C 
BRANCH   8   9
ATOM      9  C   LIG d   1      -0.481  84.695 114.081  0.00  0.00     0.028 C 
ATOM     10  C   LIG d   1      -1.307  85.970 114.318  0.00  0.00     0.006 C 
ENDBRANCH   8   9
BRANCH   8  11
ATOM     11  C   LIG d   1      -0.719  85.641 111.841  0.00  0.00     0.028 C 
ATOM     12  C   LIG d   1       0.143  86.406 110.825  0.00  0.00     0.006 C 
ENDBRANCH   8  11
ENDBRANCH   7   8
ENDBRANCH   1   7
BRANCH   6  13
ATOM     13  N   LIG d   1       0.114  80.273 111.988  0.00  0.00    -0.311 N 
ATOM     14  C   LIG d   1      -0.798  79.350 111.686  0.00  0.00     0.210 C 
ATOM     15  C   LIG d   1      -1.215  78.448 112.852  0.00  0.00     0.109 C 
ATOM     16  O   LIG d   1      -1.278  79.173 110.557  0.00  0.00    -0.276 OA
ATOM     17  H   LIG d   1       0.472  80.325 112.922  0.00  0.00     0.149 HD
ENDBRANCH   6  13
BRANCH   5  18
ATOM     18  N   LIG d   1       1.449  79.552 109.336  0.00  0.00     0.381 N 
ATOM     19  H   LIG d   1       0.452  79.476 109.289  0.00  0.00    -0.090 HD
ATOM     20  H   LIG d   1       1.810  78.710 109.749  0.00  0.00    -0.090 HD
ATOM     21  H   LIG d   1       1.824  79.669 108.421  0.00  0.00    -0.090 HD
ENDBRANCH   5  18
BRANCH   3  22
ATOM     22  C   LIG d   1       3.638  83.810 109.450  0.00  0.00     0.382 C 
ATOM     23  O   LIG d   1       4.568  83.312 108.770  0.00  0.00    -0.241 OA
ATOM     24  O   LIG d   1       3.656  85.027 109.715  0.00  0.00    -0.241 OA
ENDBRANCH   3  22
TORSDOF 7
ENDMDL
MODEL 9
REMARK VINA RESULT:      -5.0      2.307      5.884
REMARK  7 active torsions:
REMARK  status: ('A' for Active; 'I' for Inactive)
REMARK    1  A    between atoms: C_2  and  C_3 
REMARK    2  A    between atoms: C_3  and  O_6 
REMARK    3  A    between atoms: C_3  and  C_4 
REMARK    4  A    between atoms: C_7  and  O_6 
REMARK    5  A    between atoms: C_9  and  C_10 
REMARK    6  A    between atoms: N_15  and  C_14 
REMARK    7  A    between atoms: N_20  and  C_19 
REMARK       I    between atoms: C_22  and  N_20 
ROOT
ATOM      1  C   LIG d   1       0.762  83.127 110.113  0.00  0.00     0.161 C 
ATOM      2  C   LIG d   1       1.708  82.461 109.316  0.00  0.00     0.016 C 
ATOM      3  C   LIG d   1       3.091  82.756 109.338  0.00  0.00     0.038 C 
ATOM      4  C   LIG d   1       3.645  83.640 110.276  0.00  0.00     0.028 C 
ATOM      5  C   LIG d   1       2.666  84.706 110.757  0.00  0.00    -0.047 C 
ATOM      6  C   LIG d   1       1.363  84.016 111.222  0.00  0.00     0.091 C 
ENDROOT
BRANCH   1   7
ATOM      7  O   LIG d   1      -0.158  82.173 110.679  0.00  0.00    -0.368 OA
BRANCH   7   8
ATOM      8  C   LIG d   1       0.427  80.949 111.190  0.00  0.00     0.119 C 
BRANCH   8   9
ATOM      9  C   LIG d   1      -0.413  79.775 110.651  0.00  0.00     0.028 C 
ATOM     10  C   LIG d   1       0.173  79.178 109.360  0.00  0.00     0.006 C 
ENDBRANCH   8   9
BRANCH   8  11
ATOM     11  C   LIG d   1       0.306  80.867 112.714  0.00  0.00     0.028 C 
ATOM     12  C   LIG d   1      -0.942  81.585 113.253  0.00  0.00     0.006 C 
ENDBRANCH   8  11
ENDBRANCH   7   8
ENDBRANCH   1   7
BRANCH   6  13
ATOM     13  N   LIG d   1       0.319  84.993 111.629  0.00  0.00    -0.311 N 
ATOM     14  C   LIG d   1      -0.014  85.224 112.898  0.00  0.00     0.210 C 
ATOM     15  C   LIG d   1      -1.129  86.255 113.097  0.00  0.00     0.109 C 
ATOM     16  O   LIG d   1       0.531  84.696 113.880  0.00  0.00    -0.276 OA
ATOM     17  H   LIG d   1      -0.152  85.488 110.898  0.00  0.00     0.149 HD
ENDBRANCH   6  13
BRANCH   5  18
ATOM     18  N   LIG d   1       3.330  85.470 111.829  0.00  0.00     0.381 N 
ATOM     19  H   LIG d   1       2.672  86.085 112.264  0.00  0.00    -0.090 HD
ATOM     20  H   LIG d   1       4.062  86.027 111.425  0.00  0.00    -0.090 HD
ATOM     21  H   LIG d   1       3.711  84.847 112.507  0.00  0.00    -0.090 HD
ENDBRANCH   5  18
BRANCH   3  22
ATOM     22  C   LIG d   1       3.929  82.193 108.388  0.00  0.00     0.382 C 
ATOM     23  O   LIG d   1       4.370  82.895 107.446  0.00  0.00    -0.241 OA
ATOM     24  O   LIG d   1       4.215  80.982 108.436  0.00  0.00    -0.241 OA
ENDBRANCH   3  22
TORSDOF 7
ENDMDL
