MODEL 1
REMARK VINA RESULT:      -7.0      0.000      0.000
REMARK  7 active torsions:
REMARK  status: ('A' for Active; 'I' for Inactive)
REMARK    1  A    between atoms: C_2  and  C_3 
REMARK    2  A    between atoms: C_3  and  O_6 
REMARK    3  A    between atoms: C_3  and  C_4 
REMARK    4  A    between atoms: C_7  and  O_6 
REMARK    5  A    between atoms: C_9  and  C_10 
REMARK    6  A    between atoms: N_15  and  C_14 
REMARK    7  A    between atoms: N_20  and  C_19 
REMARK       I    between atoms: C_22  and  N_20 
ROOT
ATOM      1  C   LIG d   1       0.321  82.618 111.014  0.00  0.00     0.161 C 
ATOM      2  C   LIG d   1      -0.778  82.305 111.830  0.00  0.00     0.016 C 
ATOM      3  C   LIG d   1      -1.219  80.983 112.070  0.00  0.00     0.038 C 
ATOM      4  C   LIG d   1      -0.492  79.868 111.627  0.00  0.00     0.028 C 
ATOM      5  C   LIG d   1       0.338  80.143 110.378  0.00  0.00    -0.047 C 
ATOM      6  C   LIG d   1       1.193  81.410 110.613  0.00  0.00     0.091 C 
ENDROOT
BRANCH   1   7
ATOM      7  O   LIG d   1       1.129  83.630 111.648  0.00  0.00    -0.368 OA
BRANCH   7   8
ATOM      8  C   LIG d   1       1.128  84.934 111.017  0.00  0.00     0.119 C 
BRANCH   8   9
ATOM      9  C   LIG d   1       0.180  84.861 109.805  0.00  0.00     0.028 C 
ATOM     10  C   LIG d   1      -0.856  85.998 109.801  0.00  0.00     0.006 C 
ENDBRANCH   8   9
BRANCH   8  11
ATOM     11  C   LIG d   1       2.505  85.271 110.436  0.00  0.00     0.028 C 
ATOM     12  C   LIG d   1       3.378  86.084 111.405  0.00  0.00     0.006 C 
ENDBRANCH   8  11
ENDBRANCH   7   8
ENDBRANCH   1   7
BRANCH   6  13
ATOM     13  N   LIG d   1       1.973  81.798 109.409  0.00  0.00    -0.311 N 
ATOM     14  C   LIG d   1       3.301  81.903 109.399  0.00  0.00     0.210 C 
ATOM     15  C   LIG d   1       3.905  82.336 108.059  0.00  0.00     0.109 C 
ATOM     16  O   LIG d   1       4.038  81.648 110.363  0.00  0.00    -0.276 OA
ATOM     17  H   LIG d   1       1.457  81.993 108.574  0.00  0.00     0.149 HD
ENDBRANCH   6  13
BRANCH   5  18
ATOM     18  N   LIG d   1       1.149  78.940 110.108  0.00  0.00     0.381 N 
ATOM     19  H   LIG d   1       0.887  78.208 110.737  0.00  0.00    -0.090 HD
ATOM     20  H   LIG d   1       2.117  79.159 110.264  0.00  0.00    -0.090 HD
ATOM     21  H   LIG d   1       1.015  78.644 109.166  0.00  0.00    -0.090 HD
ENDBRANCH   5  18
BRANCH   3  22
ATOM     22  C   LIG d   1      -2.422  80.768 112.726  0.00  0.00     0.382 C 
ATOM     23  O   LIG d   1      -3.444  81.413 112.389  0.00  0.00    -0.241 OA
ATOM     24  O   LIG d   1      -2.487  79.969 113.679  0.00  0.00    -0.241 OA
ENDBRANCH   3  22
TORSDOF 7
ENDMDL
MODEL 2
REMARK VINA RESULT:      -6.8      0.466      1.737
REMARK  7 active torsions:
REMARK  status: ('A' for Active; 'I' for Inactive)
REMARK    1  A    between atoms: C_2  and  C_3 
REMARK    2  A    between atoms: C_3  and  O_6 
REMARK    3  A    between atoms: C_3  and  C_4 
REMARK    4  A    between atoms: C_7  and  O_6 
REMARK    5  A    between atoms: C_9  and  C_10 
REMARK    6  A    between atoms: N_15  and  C_14 
REMARK    7  A    between atoms: N_20  and  C_19 
REMARK       I    between atoms: C_22  and  N_20 
ROOT
ATOM      1  C   LIG d   1       0.393  82.660 110.899  0.00  0.00     0.161 C 
ATOM      2  C   LIG d   1      -0.689  82.358 111.742  0.00  0.00     0.016 C 
ATOM      3  C   LIG d   1      -1.105  81.039 112.032  0.00  0.00     0.038 C 
ATOM      4  C   LIG d   1      -0.368  79.920 111.615  0.00  0.00     0.028 C 
ATOM      5  C   LIG d   1       0.439  80.166 110.345  0.00  0.00    -0.047 C 
ATOM      6  C   LIG d   1       1.277  81.452 110.524  0.00  0.00     0.091 C 
ENDROOT
BRANCH   1   7
ATOM      7  O   LIG d   1       1.195  83.704 111.486  0.00  0.00    -0.368 OA
BRANCH   7   8
ATOM      8  C   LIG d   1       1.494  84.835 110.632  0.00  0.00     0.119 C 
BRANCH   8   9
ATOM      9  C   LIG d   1       3.005  85.115 110.747  0.00  0.00     0.028 C 
ATOM     10  C   LIG d   1       3.308  86.372 111.579  0.00  0.00     0.006 C 
ENDBRANCH   8   9
BRANCH   8  11
ATOM     11  C   LIG d   1       0.807  86.109 111.133  0.00  0.00     0.028 C 
ATOM     12  C   LIG d   1      -0.640  86.243 110.630  0.00  0.00     0.006 C 
ENDBRANCH   8  11
ENDBRANCH   7   8
ENDBRANCH   1   7
BRANCH   6  13
ATOM     13  N   LIG d   1       2.033  81.811 109.296  0.00  0.00    -0.311 N 
ATOM     14  C   LIG d   1       3.364  81.843 109.237  0.00  0.00     0.210 C 
ATOM     15  C   LIG d   1       3.941  82.259 107.880  0.00  0.00     0.109 C 
ATOM     16  O   LIG d   1       4.121  81.535 110.170  0.00  0.00    -0.276 OA
ATOM     17  H   LIG d   1       1.498  82.045 108.483  0.00  0.00     0.149 HD
ENDBRANCH   6  13
BRANCH   5  18
ATOM     18  N   LIG d   1       1.264  78.967 110.102  0.00  0.00     0.381 N 
ATOM     19  H   LIG d   1       1.798  78.752 110.920  0.00  0.00    -0.090 HD
ATOM     20  H   LIG d   1       1.901  79.158 109.350  0.00  0.00    -0.090 HD
ATOM     21  H   LIG d   1       0.681  78.195 109.865  0.00  0.00    -0.090 HD
ENDBRANCH   5  18
BRANCH   3  22
ATOM     22  C   LIG d   1      -2.294  80.828 112.713  0.00  0.00     0.382 C 
ATOM     23  O   LIG d   1      -2.335  80.011 113.665  0.00  0.00    -0.241 OA
ATOM     24  O   LIG d   1      -3.337  81.410 112.360  0.00  0.00    -0.241 OA
ENDBRANCH   3  22
TORSDOF 7
ENDMDL
MODEL 3
REMARK VINA RESULT:      -6.7      2.477      4.548
REMARK  7 active torsions:
REMARK  status: ('A' for Active; 'I' for Inactive)
REMARK    1  A    between atoms: C_2  and  C_3 
REMARK    2  A    between atoms: C_3  and  O_6 
REMARK    3  A    between atoms: C_3  and  C_4 
REMARK    4  A    between atoms: C_7  and  O_6 
REMARK    5  A    between atoms: C_9  and  C_10 
REMARK    6  A    between atoms: N_15  and  C_14 
REMARK    7  A    between atoms: N_20  and  C_19 
REMARK       I    between atoms: C_22  and  N_20 
ROOT
ATOM      1  C   LIG d   1       2.501  82.939 111.499  0.00  0.00     0.161 C 
ATOM      2  C   LIG d   1       1.667  81.810 111.457  0.00  0.00     0.016 C 
ATOM      3  C   LIG d   1       0.279  81.857 111.722  0.00  0.00     0.038 C 
ATOM      4  C   LIG d   1      -0.401  83.072 111.900  0.00  0.00     0.028 C 
ATOM      5  C   LIG d   1       0.483  84.186 112.449  0.00  0.00    -0.047 C 
ATOM      6  C   LIG d   1       1.758  84.289 111.581  0.00  0.00     0.091 C 
ENDROOT
BRANCH   1   7
ATOM      7  O   LIG d   1       3.395  82.927 110.368  0.00  0.00    -0.368 OA
BRANCH   7   8
ATOM      8  C   LIG d   1       3.103  81.955 109.335  0.00  0.00     0.119 C 
BRANCH   8   9
ATOM      9  C   LIG d   1       4.376  81.112 109.120  0.00  0.00     0.028 C 
ATOM     10  C   LIG d   1       4.141  79.616 109.388  0.00  0.00     0.006 C 
ENDBRANCH   8   9
BRANCH   8  11
ATOM     11  C   LIG d   1       2.835  82.635 107.989  0.00  0.00     0.028 C 
ATOM     12  C   LIG d   1       1.423  83.232 107.894  0.00  0.00     0.006 C 
ENDBRANCH   8  11
ENDBRANCH   7   8
ENDBRANCH   1   7
BRANCH   6  13
ATOM     13  N   LIG d   1       2.717  85.299 112.100  0.00  0.00    -0.311 N 
ATOM     14  C   LIG d   1       2.706  86.578 111.729  0.00  0.00     0.210 C 
ATOM     15  C   LIG d   1       3.794  87.446 112.369  0.00  0.00     0.109 C 
ATOM     16  O   LIG d   1       1.879  87.084 110.956  0.00  0.00    -0.276 OA
ATOM     17  H   LIG d   1       3.404  84.981 112.755  0.00  0.00     0.149 HD
ENDBRANCH   6  13
BRANCH   5  18
ATOM     18  N   LIG d   1      -0.315  85.427 112.454  0.00  0.00     0.381 N 
ATOM     19  H   LIG d   1       0.291  86.219 112.376  0.00  0.00    -0.090 HD
ATOM     20  H   LIG d   1      -0.809  85.492 113.326  0.00  0.00    -0.090 HD
ATOM     21  H   LIG d   1      -0.962  85.419 111.697  0.00  0.00    -0.090 HD
ENDBRANCH   5  18
BRANCH   3  22
ATOM     22  C   LIG d   1      -0.437  80.677 111.852  0.00  0.00     0.382 C 
ATOM     23  O   LIG d   1      -0.998  80.399 112.939  0.00  0.00    -0.241 OA
ATOM     24  O   LIG d   1      -0.493  79.865 110.908  0.00  0.00    -0.241 OA
ENDBRANCH   3  22
TORSDOF 7
ENDMDL
MODEL 4
REMARK VINA RESULT:      -6.5      2.722      5.756
REMARK  7 active torsions:
REMARK  status: ('A' for Active; 'I' for Inactive)
REMARK    1  A    between atoms: C_2  and  C_3 
REMARK    2  A    between atoms: C_3  and  O_6 
REMARK    3  A    between atoms: C_3  and  C_4 
REMARK    4  A    between atoms: C_7  and  O_6 
REMARK    5  A    between atoms: C_9  and  C_10 
REMARK    6  A    between atoms: N_15  and  C_14 
REMARK    7  A    between atoms: N_20  and  C_19 
REMARK       I    between atoms: C_22  and  N_20 
ROOT
ATOM      1  C   LIG d   1       2.868  84.229 110.673  0.00  0.00     0.161 C 
ATOM      2  C   LIG d   1       3.390  85.517 110.883  0.00  0.00     0.016 C 
ATOM      3  C   LIG d   1       3.358  86.175 112.134  0.00  0.00     0.038 C 
ATOM      4  C   LIG d   1       2.936  85.524 113.303  0.00  0.00     0.028 C 
ATOM      5  C   LIG d   1       1.934  84.404 113.045  0.00  0.00    -0.047 C 
ATOM      6  C   LIG d   1       2.504  83.461 111.961  0.00  0.00     0.091 C 
ENDROOT
BRANCH   1   7
ATOM      7  O   LIG d   1       3.782  83.457 109.870  0.00  0.00    -0.368 OA
BRANCH   7   8
ATOM      8  C   LIG d   1       3.345  83.150 108.523  0.00  0.00     0.119 C 
BRANCH   8   9
ATOM      9  C   LIG d   1       1.840  83.470 108.441  0.00  0.00     0.028 C 
ATOM     10  C   LIG d   1       1.341  83.575 106.990  0.00  0.00     0.006 C 
ENDBRANCH   8   9
BRANCH   8  11
ATOM     11  C   LIG d   1       3.458  81.651 108.229  0.00  0.00     0.028 C 
ATOM     12  C   LIG d   1       4.112  80.866 109.377  0.00  0.00     0.006 C 
ENDBRANCH   8  11
ENDBRANCH   7   8
ENDBRANCH   1   7
BRANCH   6  13
ATOM     13  N   LIG d   1       1.550  82.384 111.588  0.00  0.00    -0.311 N 
ATOM     14  C   LIG d   1       1.508  81.200 112.195  0.00  0.00     0.210 C 
ATOM     15  C   LIG d   1       0.463  80.226 111.642  0.00  0.00     0.109 C 
ATOM     16  O   LIG d   1       2.215  80.874 113.161  0.00  0.00    -0.276 OA
ATOM     17  H   LIG d   1       0.919  82.575 110.834  0.00  0.00     0.149 HD
ENDBRANCH   6  13
BRANCH   5  18
ATOM     18  N   LIG d   1       1.686  83.724 114.330  0.00  0.00     0.381 N 
ATOM     19  H   LIG d   1       0.755  83.918 114.641  0.00  0.00    -0.090 HD
ATOM     20  H   LIG d   1       2.328  84.080 115.016  0.00  0.00    -0.090 HD
ATOM     21  H   LIG d   1       1.811  82.741 114.225  0.00  0.00    -0.090 HD
ENDBRANCH   5  18
BRANCH   3  22
ATOM     22  C   LIG d   1       3.716  87.512 112.216  0.00  0.00     0.382 C 
ATOM     23  O   LIG d   1       4.923  87.844 112.135  0.00  0.00    -0.241 OA
ATOM     24  O   LIG d   1       2.851  88.386 112.415  0.00  0.00    -0.241 OA
ENDBRANCH   3  22
TORSDOF 7
ENDMDL
MODEL 5
REMARK VINA RESULT:      -6.2      2.697      4.704
REMARK  7 active torsions:
REMARK  status: ('A' for Active; 'I' for Inactive)
REMARK    1  A    between atoms: C_2  and  C_3 
REMARK    2  A    between atoms: C_3  and  O_6 
REMARK    3  A    between atoms: C_3  and  C_4 
REMARK    4  A    between atoms: C_7  and  O_6 
REMARK    5  A    between atoms: C_9  and  C_10 
REMARK    6  A    between atoms: N_15  and  C_14 
REMARK    7  A    between atoms: N_20  and  C_19 
REMARK       I    between atoms: C_22  and  N_20 
ROOT
ATOM      1  C   LIG d   1       2.928  82.831 110.317  0.00  0.00     0.161 C 
ATOM      2  C   LIG d   1       3.337  81.663 109.652  0.00  0.00     0.016 C 
ATOM      3  C   LIG d   1       2.879  80.371 109.996  0.00  0.00     0.038 C 
ATOM      4  C   LIG d   1       1.857  80.173 110.936  0.00  0.00     0.028 C 
ATOM      5  C   LIG d   1       1.777  81.276 111.986  0.00  0.00    -0.047 C 
ATOM      6  C   LIG d   1       1.729  82.646 111.271  0.00  0.00     0.091 C 
ENDROOT
BRANCH   1   7
ATOM      7  O   LIG d   1       2.647  83.867 109.355  0.00  0.00    -0.368 OA
BRANCH   7   8
ATOM      8  C   LIG d   1       1.312  83.868 108.790  0.00  0.00     0.119 C 
BRANCH   8   9
ATOM      9  C   LIG d   1       1.394  83.193 107.407  0.00  0.00     0.028 C 
ATOM     10  C   LIG d   1       1.130  84.179 106.257  0.00  0.00     0.006 C 
ENDBRANCH   8   9
BRANCH   8  11
ATOM     11  C   LIG d   1       0.823  85.294 108.518  0.00  0.00     0.028 C 
ATOM     12  C   LIG d   1      -0.416  85.667 109.346  0.00  0.00     0.006 C 
ENDBRANCH   8  11
ENDBRANCH   7   8
ENDBRANCH   1   7
BRANCH   6  13
ATOM     13  N   LIG d   1       1.735  83.784 112.226  0.00  0.00    -0.311 N 
ATOM     14  C   LIG d   1       0.626  84.376 112.668  0.00  0.00     0.210 C 
ATOM     15  C   LIG d   1       0.857  85.544 113.633  0.00  0.00     0.109 C 
ATOM     16  O   LIG d   1      -0.527  84.023 112.379  0.00  0.00    -0.276 OA
ATOM     17  H   LIG d   1       2.628  84.114 112.537  0.00  0.00     0.149 HD
ENDBRANCH   6  13
BRANCH   5  18
ATOM     18  N   LIG d   1       0.586  81.016 112.816  0.00  0.00     0.381 N 
ATOM     19  H   LIG d   1       0.016  81.837 112.858  0.00  0.00    -0.090 HD
ATOM     20  H   LIG d   1       0.883  80.791 113.749  0.00  0.00    -0.090 HD
ATOM     21  H   LIG d   1       0.063  80.259 112.435  0.00  0.00    -0.090 HD
ENDBRANCH   5  18
BRANCH   3  22
ATOM     22  C   LIG d   1       3.474  79.256 109.425  0.00  0.00     0.382 C 
ATOM     23  O   LIG d   1       2.791  78.229 109.197  0.00  0.00    -0.241 OA
ATOM     24  O   LIG d   1       4.694  79.249 109.175  0.00  0.00    -0.241 OA
ENDBRANCH   3  22
TORSDOF 7
ENDMDL
MODEL 6
REMARK VINA RESULT:      -6.0      2.377      5.735
REMARK  7 active torsions:
REMARK  status: ('A' for Active; 'I' for Inactive)
REMARK    1  A    between atoms: C_2  and  C_3 
REMARK    2  A    between atoms: C_3  and  O_6 
REMARK    3  A    between atoms: C_3  and  C_4 
REMARK    4  A    between atoms: C_7  and  O_6 
REMARK    5  A    between atoms: C_9  and  C_10 
REMARK    6  A    between atoms: N_15  and  C_14 
REMARK    7  A    between atoms: N_20  and  C_19 
REMARK       I    between atoms: C_22  and  N_20 
ROOT
ATOM      1  C   LIG d   1       1.157  83.093 110.689  0.00  0.00     0.161 C 
ATOM      2  C   LIG d   1       1.789  84.331 110.488  0.00  0.00     0.016 C 
ATOM      3  C   LIG d   1       2.425  85.056 111.522  0.00  0.00     0.038 C 
ATOM      4  C   LIG d   1       2.605  84.516 112.804  0.00  0.00     0.028 C 
ATOM      5  C   LIG d   1       1.543  83.489 113.183  0.00  0.00    -0.047 C 
ATOM      6  C   LIG d   1       1.439  82.436 112.056  0.00  0.00     0.091 C 
ENDROOT
BRANCH   1   7
ATOM      7  O   LIG d   1       1.501  82.190 109.619  0.00  0.00    -0.368 OA
BRANCH   7   8
ATOM      8  C   LIG d   1       2.614  81.298 109.871  0.00  0.00     0.119 C 
BRANCH   8   9
ATOM      9  C   LIG d   1       3.703  81.610 108.826  0.00  0.00     0.028 C 
ATOM     10  C   LIG d   1       4.945  82.267 109.451  0.00  0.00     0.006 C 
ENDBRANCH   8   9
BRANCH   8  11
ATOM     11  C   LIG d   1       2.224  79.837 109.628  0.00  0.00     0.028 C 
ATOM     12  C   LIG d   1       0.810  79.687 109.044  0.00  0.00     0.006 C 
ENDBRANCH   8  11
ENDBRANCH   7   8
ENDBRANCH   1   7
BRANCH   6  13
ATOM     13  N   LIG d   1       0.364  81.441 112.308  0.00  0.00    -0.311 N 
ATOM     14  C   LIG d   1      -0.928  81.688 112.096  0.00  0.00     0.210 C 
ATOM     15  C   LIG d   1      -1.872  80.532 112.439  0.00  0.00     0.109 C 
ATOM     16  O   LIG d   1      -1.378  82.744 111.625  0.00  0.00    -0.276 OA
ATOM     17  H   LIG d   1       0.643  80.547 112.661  0.00  0.00     0.149 HD
ENDBRANCH   6  13
BRANCH   5  18
ATOM     18  N   LIG d   1       1.928  82.909 114.483  0.00  0.00     0.381 N 
ATOM     19  H   LIG d   1       1.181  82.347 114.838  0.00  0.00    -0.090 HD
ATOM     20  H   LIG d   1       2.099  83.654 115.135  0.00  0.00    -0.090 HD
ATOM     21  H   LIG d   1       2.750  82.354 114.379  0.00  0.00    -0.090 HD
ENDBRANCH   5  18
BRANCH   3  22
ATOM     22  C   LIG d   1       2.855  86.354 111.288  0.00  0.00     0.382 C 
ATOM     23  O   LIG d   1       2.016  87.271 111.118  0.00  0.00    -0.241 OA
ATOM     24  O   LIG d   1       4.071  86.610 111.199  0.00  0.00    -0.241 OA
ENDBRANCH   3  22
TORSDOF 7
ENDMDL
MODEL 7
REMARK VINA RESULT:      -5.9      1.955      4.943
REMARK  7 active torsions:
REMARK  status: ('A' for Active; 'I' for Inactive)
REMARK    1  A    between atoms: C_2  and  C_3 
REMARK    2  A    between atoms: C_3  and  O_6 
REMARK    3  A    between atoms: C_3  and  C_4 
REMARK    4  A    between atoms: C_7  and  O_6 
REMARK    5  A    between atoms: C_9  and  C_10 
REMARK    6  A    between atoms: N_15  and  C_14 
REMARK    7  A    between atoms: N_20  and  C_19 
REMARK       I    between atoms: C_22  and  N_20 
ROOT
ATOM      1  C   LIG d   1       1.718  81.778 112.202  0.00  0.00     0.161 C 
ATOM      2  C   LIG d   1       2.393  82.388 111.131  0.00  0.00     0.016 C 
ATOM      3  C   LIG d   1       2.181  82.039 109.778  0.00  0.00     0.038 C 
ATOM      4  C   LIG d   1       1.164  81.155 109.390  0.00  0.00     0.028 C 
ATOM      5  C   LIG d   1       0.801  80.139 110.469  0.00  0.00    -0.047 C 
ATOM      6  C   LIG d   1       0.525  80.889 111.792  0.00  0.00     0.091 C 
ENDROOT
BRANCH   1   7
ATOM      7  O   LIG d   1       1.295  82.779 113.148  0.00  0.00    -0.368 OA
BRANCH   7   8
ATOM      8  C   LIG d   1       1.225  84.138 112.650  0.00  0.00     0.119 C 
BRANCH   8   9
ATOM      9  C   LIG d   1       1.765  85.065 113.756  0.00  0.00     0.028 C 
ATOM     10  C   LIG d   1       2.978  85.888 113.291  0.00  0.00     0.006 C 
ENDBRANCH   8   9
BRANCH   8  11
ATOM     11  C   LIG d   1      -0.225  84.575 112.426  0.00  0.00     0.028 C 
ATOM     12  C   LIG d   1      -0.359  85.669 111.354  0.00  0.00     0.006 C 
ENDBRANCH   8  11
ENDBRANCH   7   8
ENDBRANCH   1   7
BRANCH   6  13
ATOM     13  N   LIG d   1       0.245  79.964 112.920  0.00  0.00    -0.311 N 
ATOM     14  C   LIG d   1      -0.973  79.509 113.210  0.00  0.00     0.210 C 
ATOM     15  C   LIG d   1      -1.044  78.581 114.427  0.00  0.00     0.109 C 
ATOM     16  O   LIG d   1      -1.996  79.760 112.556  0.00  0.00    -0.276 OA
ATOM     17  H   LIG d   1       1.023  79.684 113.485  0.00  0.00     0.149 HD
ENDBRANCH   6  13
BRANCH   5  18
ATOM     18  N   LIG d   1      -0.363  79.372 109.985  0.00  0.00     0.381 N 
ATOM     19  H   LIG d   1      -1.027  79.262 110.725  0.00  0.00    -0.090 HD
ATOM     20  H   LIG d   1      -0.055  78.459 109.700  0.00  0.00    -0.090 HD
ATOM     21  H   LIG d   1      -0.786  79.843 109.217  0.00  0.00    -0.090 HD
ENDBRANCH   5  18
BRANCH   3  22
ATOM     22  C   LIG d   1       3.020  82.548 108.798  0.00  0.00     0.382 C 
ATOM     23  O   LIG d   1       2.594  82.706 107.628  0.00  0.00    -0.241 OA
ATOM     24  O   LIG d   1       4.210  82.809 109.058  0.00  0.00    -0.241 OA
ENDBRANCH   3  22
TORSDOF 7
ENDMDL
MODEL 8
REMARK VINA RESULT:      -5.8      1.911      2.404
REMARK  7 active torsions:
REMARK  status: ('A' for Active; 'I' for Inactive)
REMARK    1  A    between atoms: C_2  and  C_3 
REMARK    2  A    between atoms: C_3  and  O_6 
REMARK    3  A    between atoms: C_3  and  C_4 
REMARK    4  A    between atoms: C_7  and  O_6 
REMARK    5  A    between atoms: C_9  and  C_10 
REMARK    6  A    between atoms: N_15  and  C_14 
REMARK    7  A    between atoms: N_20  and  C_19 
REMARK       I    between atoms: C_22  and  N_20 
ROOT
ATOM      1  C   LIG d   1       0.026  82.657 110.722  0.00  0.00     0.161 C 
ATOM      2  C   LIG d   1      -0.354  81.819 111.783  0.00  0.00     0.016 C 
ATOM      3  C   LIG d   1      -0.224  80.411 111.748  0.00  0.00     0.038 C 
ATOM      4  C   LIG d   1       0.440  79.754 110.702  0.00  0.00     0.028 C 
ATOM      5  C   LIG d   1       0.388  80.513 109.380  0.00  0.00    -0.047 C 
ATOM      6  C   LIG d   1       0.855  81.967 109.618  0.00  0.00     0.091 C 
ENDROOT
BRANCH   1   7
ATOM      7  O   LIG d   1       0.732  83.805 111.234  0.00  0.00    -0.368 OA
BRANCH   7   8
ATOM      8  C   LIG d   1       1.974  83.532 111.927  0.00  0.00     0.119 C 
BRANCH   8   9
ATOM      9  C   LIG d   1       1.926  84.278 113.275  0.00  0.00     0.028 C 
ATOM     10  C   LIG d   1       2.771  85.563 113.265  0.00  0.00     0.006 C 
ENDBRANCH   8   9
BRANCH   8  11
ATOM     11  C   LIG d   1       3.172  84.124 111.179  0.00  0.00     0.028 C 
ATOM     12  C   LIG d   1       4.196  83.059 110.755  0.00  0.00     0.006 C 
ENDBRANCH   8  11
ENDBRANCH   7   8
ENDBRANCH   1   7
BRANCH   6  13
ATOM     13  N   LIG d   1       0.754  82.802 108.392  0.00  0.00    -0.311 N 
ATOM     14  C   LIG d   1       1.755  82.959 107.528  0.00  0.00     0.210 C 
ATOM     15  C   LIG d   1       1.447  83.878 106.341  0.00  0.00     0.109 C 
ATOM     16  O   LIG d   1       2.859  82.399 107.614  0.00  0.00    -0.276 OA
ATOM     17  H   LIG d   1      -0.117  83.268 108.228  0.00  0.00     0.149 HD
ENDBRANCH   6  13
BRANCH   5  18
ATOM     18  N   LIG d   1       1.233  79.785 108.415  0.00  0.00     0.381 N 
ATOM     19  H   LIG d   1       0.657  79.244 107.801  0.00  0.00    -0.090 HD
ATOM     20  H   LIG d   1       1.835  79.157 108.918  0.00  0.00    -0.090 HD
ATOM     21  H   LIG d   1       1.780  80.429 107.887  0.00  0.00    -0.090 HD
ENDBRANCH   5  18
BRANCH   3  22
ATOM     22  C   LIG d   1      -0.797  79.643 112.750  0.00  0.00     0.382 C 
ATOM     23  O   LIG d   1      -1.884  79.052 112.543  0.00  0.00    -0.241 OA
ATOM     24  O   LIG d   1      -0.263  79.570 113.873  0.00  0.00    -0.241 OA
ENDBRANCH   3  22
TORSDOF 7
ENDMDL
MODEL 9
REMARK VINA RESULT:      -5.7      2.117      4.359
REMARK  7 active torsions:
REMARK  status: ('A' for Active; 'I' for Inactive)
REMARK    1  A    between atoms: C_2  and  C_3 
REMARK    2  A    between atoms: C_3  and  O_6 
REMARK    3  A    between atoms: C_3  and  C_4 
REMARK    4  A    between atoms: C_7  and  O_6 
REMARK    5  A    between atoms: C_9  and  C_10 
REMARK    6  A    between atoms: N_15  and  C_14 
REMARK    7  A    between atoms: N_20  and  C_19 
REMARK       I    between atoms: C_22  and  N_20 
ROOT
ATOM      1  C   LIG d   1       1.705  82.047 110.936  0.00  0.00     0.161 C 
ATOM      2  C   LIG d   1       0.720  81.072 111.167  0.00  0.00     0.016 C 
ATOM      3  C   LIG d   1      -0.523  81.351 111.780  0.00  0.00     0.038 C 
ATOM      4  C   LIG d   1      -0.929  82.662 112.070  0.00  0.00     0.028 C 
ATOM      5  C   LIG d   1       0.235  83.615 112.317  0.00  0.00    -0.047 C 
ATOM      6  C   LIG d   1       1.235  83.502 111.145  0.00  0.00     0.091 C 
ENDROOT
BRANCH   1   7
ATOM      7  O   LIG d   1       2.256  81.882 109.615  0.00  0.00    -0.368 OA
BRANCH   7   8
ATOM      8  C   LIG d   1       3.196  80.793 109.447  0.00  0.00     0.119 C 
BRANCH   8   9
ATOM      9  C   LIG d   1       4.431  81.355 108.717  0.00  0.00     0.028 C 
ATOM     10  C   LIG d   1       5.105  82.496 109.498  0.00  0.00     0.006 C 
ENDBRANCH   8   9
BRANCH   8  11
ATOM     11  C   LIG d   1       2.635  79.710 108.520  0.00  0.00     0.028 C 
ATOM     12  C   LIG d   1       2.584  78.325 109.184  0.00  0.00     0.006 C 
ENDBRANCH   8  11
ENDBRANCH   7   8
ENDBRANCH   1   7
BRANCH   6  13
ATOM     13  N   LIG d   1       2.446  84.340 111.348  0.00  0.00    -0.311 N 
ATOM     14  C   LIG d   1       2.602  85.546 110.805  0.00  0.00     0.210 C 
ATOM     15  C   LIG d   1       3.934  86.232 111.126  0.00  0.00     0.109 C 
ATOM     16  O   LIG d   1       1.752  86.126 110.113  0.00  0.00    -0.276 OA
ATOM     17  H   LIG d   1       3.173  83.960 111.922  0.00  0.00     0.149 HD
ENDBRANCH   6  13
BRANCH   5  18
ATOM     18  N   LIG d   1      -0.325  84.972 112.470  0.00  0.00     0.381 N 
ATOM     19  H   LIG d   1      -0.846  85.029 113.323  0.00  0.00    -0.090 HD
ATOM     20  H   LIG d   1      -0.951  85.153 111.706  0.00  0.00    -0.090 HD
ATOM     21  H   LIG d   1       0.409  85.645 112.475  0.00  0.00    -0.090 HD
ENDBRANCH   5  18
BRANCH   3  22
ATOM     22  C   LIG d   1      -1.358  80.306 112.146  0.00  0.00     0.382 C 
ATOM     23  O   LIG d   1      -2.048  80.392 113.191  0.00  0.00    -0.241 OA
ATOM     24  O   LIG d   1      -1.397  79.261 111.470  0.00  0.00    -0.241 OA
ENDBRANCH   3  22
TORSDOF 7
ENDMDL
