MODEL 1
REMARK VINA RESULT:      -6.7      0.000      0.000
REMARK  7 active torsions:
REMARK  status: ('A' for Active; 'I' for Inactive)
REMARK    1  A    between atoms: C_2  and  C_3 
REMARK    2  A    between atoms: C_3  and  O_6 
REMARK    3  A    between atoms: C_3  and  C_4 
REMARK    4  A    between atoms: C_7  and  O_6 
REMARK    5  A    between atoms: C_9  and  C_10 
REMARK    6  A    between atoms: N_15  and  C_14 
REMARK    7  A    between atoms: N_20  and  C_19 
REMARK       I    between atoms: C_22  and  N_20 
ROOT
ATOM      1  C   LIG d   1       1.741  83.032 110.956  0.00  0.00     0.161 C 
ATOM      2  C   LIG d   1       2.714  82.548 110.066  0.00  0.00     0.016 C 
ATOM      3  C   LIG d   1       2.685  81.248 109.513  0.00  0.00     0.038 C 
ATOM      4  C   LIG d   1       1.591  80.388 109.695  0.00  0.00     0.028 C 
ATOM      5  C   LIG d   1       0.830  80.645 110.992  0.00  0.00    -0.047 C 
ATOM      6  C   LIG d   1       0.482  82.148 111.080  0.00  0.00     0.091 C 
ENDROOT
BRANCH   1   7
ATOM      7  O   LIG d   1       1.374  84.378 110.596  0.00  0.00    -0.368 OA
BRANCH   7   8
ATOM      8  C   LIG d   1       0.352  84.510 109.577  0.00  0.00     0.119 C 
BRANCH   8   9
ATOM      9  C   LIG d   1       1.016  85.132 108.333  0.00  0.00     0.028 C 
ATOM     10  C   LIG d   1       1.362  84.081 107.265  0.00  0.00     0.006 C 
ENDBRANCH   8   9
BRANCH   8  11
ATOM     11  C   LIG d   1      -0.731  85.506 110.000  0.00  0.00     0.028 C 
ATOM     12  C   LIG d   1      -0.571  85.980 111.453  0.00  0.00     0.006 C 
ENDBRANCH   8  11
ENDBRANCH   7   8
ENDBRANCH   1   7
BRANCH   6  13
ATOM     13  N   LIG d   1      -0.191  82.500 112.358  0.00  0.00    -0.311 N 
ATOM     14  C   LIG d   1      -1.514  82.533 112.505  0.00  0.00     0.210 C 
ATOM     15  C   LIG d   1      -2.000  82.940 113.900  0.00  0.00     0.109 C 
ATOM     16  O   LIG d   1      -2.332  82.233 111.622  0.00  0.00    -0.276 OA
ATOM     17  H   LIG d   1       0.398  82.727 113.136  0.00  0.00     0.149 HD
ENDBRANCH   6  13
BRANCH   5  18
ATOM     18  N   LIG d   1      -0.362  79.775 110.988  0.00  0.00     0.381 N 
ATOM     19  H   LIG d   1      -0.729  79.699 111.916  0.00  0.00    -0.090 HD
ATOM     20  H   LIG d   1      -0.093  78.857 110.679  0.00  0.00    -0.090 HD
ATOM     21  H   LIG d   1      -1.055  80.149 110.378  0.00  0.00    -0.090 HD
ENDBRANCH   5  18
BRANCH   3  22
ATOM     22  C   LIG d   1       3.778  80.780 108.799  0.00  0.00     0.382 C 
ATOM     23  O   LIG d   1       4.314  79.691 109.115  0.00  0.00    -0.241 OA
ATOM     24  O   LIG d   1       4.262  81.455 107.871  0.00  0.00    -0.241 OA
ENDBRANCH   3  22
TORSDOF 7
ENDMDL
MODEL 2
REMARK VINA RESULT:      -6.6      1.244      1.690
REMARK  7 active torsions:
REMARK  status: ('A' for Active; 'I' for Inactive)
REMARK    1  A    between atoms: C_2  and  C_3 
REMARK    2  A    between atoms: C_3  and  O_6 
REMARK    3  A    between atoms: C_3  and  C_4 
REMARK    4  A    between atoms: C_7  and  O_6 
REMARK    5  A    between atoms: C_9  and  C_10 
REMARK    6  A    between atoms: N_15  and  C_14 
REMARK    7  A    between atoms: N_20  and  C_19 
REMARK       I    between atoms: C_22  and  N_20 
ROOT
ATOM      1  C   LIG d   1       1.660  83.157 111.111  0.00  0.00     0.161 C 
ATOM      2  C   LIG d   1       2.659  82.937 110.148  0.00  0.00     0.016 C 
ATOM      3  C   LIG d   1       2.745  81.758 109.372  0.00  0.00     0.038 C 
ATOM      4  C   LIG d   1       1.742  80.777 109.400  0.00  0.00     0.028 C 
ATOM      5  C   LIG d   1       0.984  80.724 110.722  0.00  0.00    -0.047 C 
ATOM      6  C   LIG d   1       0.495  82.147 111.077  0.00  0.00     0.091 C 
ENDROOT
BRANCH   1   7
ATOM      7  O   LIG d   1       1.160  84.504 110.996  0.00  0.00    -0.368 OA
BRANCH   7   8
ATOM      8  C   LIG d   1       1.686  85.288 109.898  0.00  0.00     0.119 C 
BRANCH   8   9
ATOM      9  C   LIG d   1       2.157  86.637 110.475  0.00  0.00     0.028 C 
ATOM     10  C   LIG d   1       3.440  86.501 111.312  0.00  0.00     0.006 C 
ENDBRANCH   8   9
BRANCH   8  11
ATOM     11  C   LIG d   1       0.590  85.640 108.888  0.00  0.00     0.028 C 
ATOM     12  C   LIG d   1      -0.780  85.863 109.550  0.00  0.00     0.006 C 
ENDBRANCH   8  11
ENDBRANCH   7   8
ENDBRANCH   1   7
BRANCH   6  13
ATOM     13  N   LIG d   1      -0.185  82.200 112.398  0.00  0.00    -0.311 N 
ATOM     14  C   LIG d   1      -1.503  82.326 112.539  0.00  0.00     0.210 C 
ATOM     15  C   LIG d   1      -1.996  82.380 113.989  0.00  0.00     0.109 C 
ATOM     16  O   LIG d   1      -2.314  82.367 111.602  0.00  0.00    -0.276 OA
ATOM     17  H   LIG d   1       0.395  82.141 113.212  0.00  0.00     0.149 HD
ENDBRANCH   6  13
BRANCH   5  18
ATOM     18  N   LIG d   1      -0.118  79.756 110.565  0.00  0.00     0.381 N 
ATOM     19  H   LIG d   1      -0.333  79.643 109.594  0.00  0.00    -0.090 HD
ATOM     20  H   LIG d   1      -0.934  80.115 111.028  0.00  0.00    -0.090 HD
ATOM     21  H   LIG d   1       0.139  78.879 110.960  0.00  0.00    -0.090 HD
ENDBRANCH   5  18
BRANCH   3  22
ATOM     22  C   LIG d   1       3.864  81.533 108.585  0.00  0.00     0.382 C 
ATOM     23  O   LIG d   1       4.251  82.413 107.779  0.00  0.00    -0.241 OA
ATOM     24  O   LIG d   1       4.467  80.444 108.639  0.00  0.00    -0.241 OA
ENDBRANCH   3  22
TORSDOF 7
ENDMDL
MODEL 3
REMARK VINA RESULT:      -6.1      1.426      2.096
REMARK  7 active torsions:
REMARK  status: ('A' for Active; 'I' for Inactive)
REMARK    1  A    between atoms: C_2  and  C_3 
REMARK    2  A    between atoms: C_3  and  O_6 
REMARK    3  A    between atoms: C_3  and  C_4 
REMARK    4  A    between atoms: C_7  and  O_6 
REMARK    5  A    between atoms: C_9  and  C_10 
REMARK    6  A    between atoms: N_15  and  C_14 
REMARK    7  A    between atoms: N_20  and  C_19 
REMARK       I    between atoms: C_22  and  N_20 
ROOT
ATOM      1  C   LIG d   1       1.875  82.911 111.129  0.00  0.00     0.161 C 
ATOM      2  C   LIG d   1       2.844  82.458 110.218  0.00  0.00     0.016 C 
ATOM      3  C   LIG d   1       2.759  81.217 109.544  0.00  0.00     0.038 C 
ATOM      4  C   LIG d   1       1.615  80.409 109.622  0.00  0.00     0.028 C 
ATOM      5  C   LIG d   1       0.834  80.587 110.919  0.00  0.00    -0.047 C 
ATOM      6  C   LIG d   1       0.567  82.093 111.141  0.00  0.00     0.091 C 
ENDROOT
BRANCH   1   7
ATOM      7  O   LIG d   1       1.592  84.304 110.888  0.00  0.00    -0.368 OA
BRANCH   7   8
ATOM      8  C   LIG d   1       2.064  85.233 111.895  0.00  0.00     0.119 C 
BRANCH   8   9
ATOM      9  C   LIG d   1       0.825  85.839 112.582  0.00  0.00     0.028 C 
ATOM     10  C   LIG d   1      -0.393  85.903 111.646  0.00  0.00     0.006 C 
ENDBRANCH   8   9
BRANCH   8  11
ATOM     11  C   LIG d   1       2.796  86.419 111.259  0.00  0.00     0.028 C 
ATOM     12  C   LIG d   1       3.580  87.253 112.284  0.00  0.00     0.006 C 
ENDBRANCH   8  11
ENDBRANCH   7   8
ENDBRANCH   1   7
BRANCH   6  13
ATOM     13  N   LIG d   1      -0.120  82.363 112.432  0.00  0.00    -0.311 N 
ATOM     14  C   LIG d   1      -1.442  82.467 112.550  0.00  0.00     0.210 C 
ATOM     15  C   LIG d   1      -1.942  82.768 113.967  0.00  0.00     0.109 C 
ATOM     16  O   LIG d   1      -2.251  82.308 111.623  0.00  0.00    -0.276 OA
ATOM     17  H   LIG d   1       0.458  82.475 113.241  0.00  0.00     0.149 HD
ENDBRANCH   6  13
BRANCH   5  18
ATOM     18  N   LIG d   1      -0.402  79.790 110.808  0.00  0.00     0.381 N 
ATOM     19  H   LIG d   1      -0.277  78.905 111.258  0.00  0.00    -0.090 HD
ATOM     20  H   LIG d   1      -0.596  79.624 109.836  0.00  0.00    -0.090 HD
ATOM     21  H   LIG d   1      -1.162  80.279 111.227  0.00  0.00    -0.090 HD
ENDBRANCH   5  18
BRANCH   3  22
ATOM     22  C   LIG d   1       3.843  80.757 108.814  0.00  0.00     0.382 C 
ATOM     23  O   LIG d   1       4.421  79.695 109.150  0.00  0.00    -0.241 OA
ATOM     24  O   LIG d   1       4.280  81.412 107.849  0.00  0.00    -0.241 OA
ENDBRANCH   3  22
TORSDOF 7
ENDMDL
MODEL 4
REMARK VINA RESULT:      -5.6      2.038      4.175
REMARK  7 active torsions:
REMARK  status: ('A' for Active; 'I' for Inactive)
REMARK    1  A    between atoms: C_2  and  C_3 
REMARK    2  A    between atoms: C_3  and  O_6 
REMARK    3  A    between atoms: C_3  and  C_4 
REMARK    4  A    between atoms: C_7  and  O_6 
REMARK    5  A    between atoms: C_9  and  C_10 
REMARK    6  A    between atoms: N_15  and  C_14 
REMARK    7  A    between atoms: N_20  and  C_19 
REMARK       I    between atoms: C_22  and  N_20 
ROOT
ATOM      1  C   LIG d   1       0.575  82.094 109.854  0.00  0.00     0.161 C 
ATOM      2  C   LIG d   1       1.416  80.993 109.622  0.00  0.00     0.016 C 
ATOM      3  C   LIG d   1       2.826  81.087 109.576  0.00  0.00     0.038 C 
ATOM      4  C   LIG d   1       3.502  82.269 109.911  0.00  0.00     0.028 C 
ATOM      5  C   LIG d   1       2.680  83.529 109.658  0.00  0.00    -0.047 C 
ATOM      6  C   LIG d   1       1.298  83.371 110.332  0.00  0.00     0.091 C 
ENDROOT
BRANCH   1   7
ATOM      7  O   LIG d   1      -0.463  81.729 110.785  0.00  0.00    -0.368 OA
BRANCH   7   8
ATOM      8  C   LIG d   1      -0.093  80.776 111.811  0.00  0.00     0.119 C 
BRANCH   8   9
ATOM      9  C   LIG d   1      -1.300  79.844 112.035  0.00  0.00     0.028 C 
ATOM     10  C   LIG d   1      -2.253  80.369 113.121  0.00  0.00     0.006 C 
ENDBRANCH   8   9
BRANCH   8  11
ATOM     11  C   LIG d   1       0.140  81.468 113.157  0.00  0.00     0.028 C 
ATOM     12  C   LIG d   1       1.617  81.468 113.580  0.00  0.00     0.006 C 
ENDBRANCH   8  11
ENDBRANCH   7   8
ENDBRANCH   1   7
BRANCH   6  13
ATOM     13  N   LIG d   1       0.401  84.524 110.062  0.00  0.00    -0.311 N 
ATOM     14  C   LIG d   1       0.230  85.535 110.912  0.00  0.00     0.210 C 
ATOM     15  C   LIG d   1      -0.755  86.612 110.447  0.00  0.00     0.109 C 
ATOM     16  O   LIG d   1       0.826  85.659 111.993  0.00  0.00    -0.276 OA
ATOM     17  H   LIG d   1      -0.098  84.521 109.194  0.00  0.00     0.149 HD
ENDBRANCH   6  13
BRANCH   5  18
ATOM     18  N   LIG d   1       3.450  84.675 110.178  0.00  0.00     0.381 N 
ATOM     19  H   LIG d   1       3.214  85.502 109.666  0.00  0.00    -0.090 HD
ATOM     20  H   LIG d   1       4.430  84.493 110.050  0.00  0.00    -0.090 HD
ATOM     21  H   LIG d   1       3.253  84.807 111.145  0.00  0.00    -0.090 HD
ENDBRANCH   5  18
BRANCH   3  22
ATOM     22  C   LIG d   1       3.573  79.998 109.152  0.00  0.00     0.382 C 
ATOM     23  O   LIG d   1       4.792  80.138 108.892  0.00  0.00    -0.241 OA
ATOM     24  O   LIG d   1       3.033  78.888 108.984  0.00  0.00    -0.241 OA
ENDBRANCH   3  22
TORSDOF 7
ENDMDL
MODEL 5
REMARK VINA RESULT:      -5.5      3.101      4.896
REMARK  7 active torsions:
REMARK  status: ('A' for Active; 'I' for Inactive)
REMARK    1  A    between atoms: C_2  and  C_3 
REMARK    2  A    between atoms: C_3  and  O_6 
REMARK    3  A    between atoms: C_3  and  C_4 
REMARK    4  A    between atoms: C_7  and  O_6 
REMARK    5  A    between atoms: C_9  and  C_10 
REMARK    6  A    between atoms: N_15  and  C_14 
REMARK    7  A    between atoms: N_20  and  C_19 
REMARK       I    between atoms: C_22  and  N_20 
ROOT
ATOM      1  C   LIG d   1       1.372  83.614 113.010  0.00  0.00     0.161 C 
ATOM      2  C   LIG d   1       2.106  84.754 112.642  0.00  0.00     0.016 C 
ATOM      3  C   LIG d   1       1.883  85.470 111.444  0.00  0.00     0.038 C 
ATOM      4  C   LIG d   1       0.801  85.182 110.599  0.00  0.00     0.028 C 
ATOM      5  C   LIG d   1       0.344  83.729 110.674  0.00  0.00    -0.047 C 
ATOM      6  C   LIG d   1       0.115  83.350 112.155  0.00  0.00     0.091 C 
ENDROOT
BRANCH   1   7
ATOM      7  O   LIG d   1       1.022  83.688 114.406  0.00  0.00    -0.368 OA
BRANCH   7   8
ATOM      8  C   LIG d   1       0.151  84.781 114.787  0.00  0.00     0.119 C 
BRANCH   8   9
ATOM      9  C   LIG d   1       0.876  85.592 115.879  0.00  0.00     0.028 C 
ATOM     10  C   LIG d   1       1.248  87.008 115.408  0.00  0.00     0.006 C 
ENDBRANCH   8   9
BRANCH   8  11
ATOM     11  C   LIG d   1      -1.132  84.268 115.449  0.00  0.00     0.028 C 
ATOM     12  C   LIG d   1      -1.049  82.783 115.836  0.00  0.00     0.006 C 
ENDBRANCH   8  11
ENDBRANCH   7   8
ENDBRANCH   1   7
BRANCH   6  13
ATOM     13  N   LIG d   1      -0.253  81.920 112.324  0.00  0.00    -0.311 N 
ATOM     14  C   LIG d   1      -1.509  81.479 112.302  0.00  0.00     0.210 C 
ATOM     15  C   LIG d   1      -1.668  79.971 112.517  0.00  0.00     0.109 C 
ATOM     16  O   LIG d   1      -2.504  82.189 112.094  0.00  0.00    -0.276 OA
ATOM     17  H   LIG d   1       0.496  81.271 112.468  0.00  0.00     0.149 HD
ENDBRANCH   6  13
BRANCH   5  18
ATOM     18  N   LIG d   1      -0.873  83.601 109.849  0.00  0.00     0.381 N 
ATOM     19  H   LIG d   1      -0.838  84.253 109.092  0.00  0.00    -0.090 HD
ATOM     20  H   LIG d   1      -1.673  83.818 110.416  0.00  0.00    -0.090 HD
ATOM     21  H   LIG d   1      -0.949  82.673 109.495  0.00  0.00    -0.090 HD
ENDBRANCH   5  18
BRANCH   3  22
ATOM     22  C   LIG d   1       2.771  86.463 111.061  0.00  0.00     0.382 C 
ATOM     23  O   LIG d   1       2.470  87.670 111.221  0.00  0.00    -0.241 OA
ATOM     24  O   LIG d   1       3.852  86.168 110.517  0.00  0.00    -0.241 OA
ENDBRANCH   3  22
TORSDOF 7
ENDMDL
MODEL 6
REMARK VINA RESULT:      -5.0      2.733      4.662
REMARK  7 active torsions:
REMARK  status: ('A' for Active; 'I' for Inactive)
REMARK    1  A    between atoms: C_2  and  C_3 
REMARK    2  A    between atoms: C_3  and  O_6 
REMARK    3  A    between atoms: C_3  and  C_4 
REMARK    4  A    between atoms: C_7  and  O_6 
REMARK    5  A    between atoms: C_9  and  C_10 
REMARK    6  A    between atoms: N_15  and  C_14 
REMARK    7  A    between atoms: N_20  and  C_19 
REMARK       I    between atoms: C_22  and  N_20 
ROOT
ATOM      1  C   LIG d   1       1.824  83.276 111.932  0.00  0.00     0.161 C 
ATOM      2  C   LIG d   1       0.997  82.158 111.736  0.00  0.00     0.016 C 
ATOM      3  C   LIG d   1      -0.021  81.775 112.640  0.00  0.00     0.038 C 
ATOM      4  C   LIG d   1      -0.383  82.577 113.733  0.00  0.00     0.028 C 
ATOM      5  C   LIG d   1       0.757  83.449 114.248  0.00  0.00    -0.047 C 
ATOM      6  C   LIG d   1       1.370  84.226 113.060  0.00  0.00     0.091 C 
ENDROOT
BRANCH   1   7
ATOM      7  O   LIG d   1       1.966  84.001 110.694  0.00  0.00    -0.368 OA
BRANCH   7   8
ATOM      8  C   LIG d   1       2.456  83.240 109.563  0.00  0.00     0.119 C 
BRANCH   8   9
ATOM      9  C   LIG d   1       3.980  83.452 109.487  0.00  0.00     0.028 C 
ATOM     10  C   LIG d   1       4.641  82.582 108.405  0.00  0.00     0.006 C 
ENDBRANCH   8   9
BRANCH   8  11
ATOM     11  C   LIG d   1       1.905  83.787 108.243  0.00  0.00     0.028 C 
ATOM     12  C   LIG d   1       0.915  84.945 108.444  0.00  0.00     0.006 C 
ENDBRANCH   8  11
ENDBRANCH   7   8
ENDBRANCH   1   7
BRANCH   6  13
ATOM     13  N   LIG d   1       2.547  85.040 113.463  0.00  0.00    -0.311 N 
ATOM     14  C   LIG d   1       2.467  86.323 113.811  0.00  0.00     0.210 C 
ATOM     15  C   LIG d   1       3.803  86.980 114.172  0.00  0.00     0.109 C 
ATOM     16  O   LIG d   1       1.411  86.970 113.887  0.00  0.00    -0.276 OA
ATOM     17  H   LIG d   1       3.439  84.585 113.459  0.00  0.00     0.149 HD
ENDBRANCH   6  13
BRANCH   5  18
ATOM     18  N   LIG d   1       0.206  84.331 115.294  0.00  0.00     0.381 N 
ATOM     19  H   LIG d   1      -0.711  84.634 115.033  0.00  0.00    -0.090 HD
ATOM     20  H   LIG d   1       0.794  85.142 115.378  0.00  0.00    -0.090 HD
ATOM     21  H   LIG d   1       0.169  83.847 116.163  0.00  0.00    -0.090 HD
ENDBRANCH   5  18
BRANCH   3  22
ATOM     22  C   LIG d   1      -0.662  80.556 112.477  0.00  0.00     0.382 C 
ATOM     23  O   LIG d   1      -0.831  79.800 113.464  0.00  0.00    -0.241 OA
ATOM     24  O   LIG d   1      -1.034  80.184 111.348  0.00  0.00    -0.241 OA
ENDBRANCH   3  22
TORSDOF 7
ENDMDL
MODEL 7
REMARK VINA RESULT:      -4.9      2.233      3.343
REMARK  7 active torsions:
REMARK  status: ('A' for Active; 'I' for Inactive)
REMARK    1  A    between atoms: C_2  and  C_3 
REMARK    2  A    between atoms: C_3  and  O_6 
REMARK    3  A    between atoms: C_3  and  C_4 
REMARK    4  A    between atoms: C_7  and  O_6 
REMARK    5  A    between atoms: C_9  and  C_10 
REMARK    6  A    between atoms: N_15  and  C_14 
REMARK    7  A    between atoms: N_20  and  C_19 
REMARK       I    between atoms: C_22  and  N_20 
ROOT
ATOM      1  C   LIG d   1       1.926  81.442 111.891  0.00  0.00     0.161 C 
ATOM      2  C   LIG d   1       3.010  81.542 111.004  0.00  0.00     0.016 C 
ATOM      3  C   LIG d   1       2.945  82.229 109.769  0.00  0.00     0.038 C 
ATOM      4  C   LIG d   1       1.828  82.996 109.406  0.00  0.00     0.028 C 
ATOM      5  C   LIG d   1       0.528  82.510 110.037  0.00  0.00    -0.047 C 
ATOM      6  C   LIG d   1       0.734  82.366 111.563  0.00  0.00     0.091 C 
ENDROOT
BRANCH   1   7
ATOM      7  O   LIG d   1       2.377  81.668 113.241  0.00  0.00    -0.368 OA
BRANCH   7   8
ATOM      8  C   LIG d   1       2.113  82.982 113.791  0.00  0.00     0.119 C 
BRANCH   8   9
ATOM      9  C   LIG d   1       3.435  83.774 113.750  0.00  0.00     0.028 C 
ATOM     10  C   LIG d   1       3.409  84.906 112.709  0.00  0.00     0.006 C 
ENDBRANCH   8   9
BRANCH   8  11
ATOM     11  C   LIG d   1       1.734  82.901 115.272  0.00  0.00     0.028 C 
ATOM     12  C   LIG d   1       0.636  83.904 115.662  0.00  0.00     0.006 C 
ENDBRANCH   8  11
ENDBRANCH   7   8
ENDBRANCH   1   7
BRANCH   6  13
ATOM     13  N   LIG d   1      -0.464  81.815 112.247  0.00  0.00    -0.311 N 
ATOM     14  C   LIG d   1      -1.414  82.575 112.789  0.00  0.00     0.210 C 
ATOM     15  C   LIG d   1      -2.553  81.805 113.463  0.00  0.00     0.109 C 
ATOM     16  O   LIG d   1      -1.438  83.815 112.746  0.00  0.00    -0.276 OA
ATOM     17  H   LIG d   1      -0.541  80.818 112.300  0.00  0.00     0.149 HD
ENDBRANCH   6  13
BRANCH   5  18
ATOM     18  N   LIG d   1      -0.528  83.478 109.685  0.00  0.00     0.381 N 
ATOM     19  H   LIG d   1      -0.220  84.054 108.928  0.00  0.00    -0.090 HD
ATOM     20  H   LIG d   1      -0.705  84.068 110.479  0.00  0.00    -0.090 HD
ATOM     21  H   LIG d   1      -1.361  82.996 109.428  0.00  0.00    -0.090 HD
ENDBRANCH   5  18
BRANCH   3  22
ATOM     22  C   LIG d   1       3.991  82.119 108.866  0.00  0.00     0.382 C 
ATOM     23  O   LIG d   1       4.072  81.114 108.119  0.00  0.00    -0.241 OA
ATOM     24  O   LIG d   1       4.879  82.991 108.819  0.00  0.00    -0.241 OA
ENDBRANCH   3  22
TORSDOF 7
ENDMDL
MODEL 8
REMARK VINA RESULT:      -4.8      3.066      5.193
REMARK  7 active torsions:
REMARK  status: ('A' for Active; 'I' for Inactive)
REMARK    1  A    between atoms: C_2  and  C_3 
REMARK    2  A    between atoms: C_3  and  O_6 
REMARK    3  A    between atoms: C_3  and  C_4 
REMARK    4  A    between atoms: C_7  and  O_6 
REMARK    5  A    between atoms: C_9  and  C_10 
REMARK    6  A    between atoms: N_15  and  C_14 
REMARK    7  A    between atoms: N_20  and  C_19 
REMARK       I    between atoms: C_22  and  N_20 
ROOT
ATOM      1  C   LIG d   1       0.736  84.568 111.872  0.00  0.00     0.161 C 
ATOM      2  C   LIG d   1       0.921  83.997 110.602  0.00  0.00     0.016 C 
ATOM      3  C   LIG d   1       1.995  84.334 109.746  0.00  0.00     0.038 C 
ATOM      4  C   LIG d   1       3.048  85.159 110.167  0.00  0.00     0.028 C 
ATOM      5  C   LIG d   1       2.643  86.153 111.251  0.00  0.00    -0.047 C 
ATOM      6  C   LIG d   1       1.935  85.388 112.393  0.00  0.00     0.091 C 
ENDROOT
BRANCH   1   7
ATOM      7  O   LIG d   1       0.379  83.544 112.821  0.00  0.00    -0.368 OA
BRANCH   7   8
ATOM      8  C   LIG d   1      -1.029  83.444 113.150  0.00  0.00     0.119 C 
BRANCH   8   9
ATOM      9  C   LIG d   1      -1.267  84.280 114.423  0.00  0.00     0.028 C 
ATOM     10  C   LIG d   1      -0.339  83.868 115.578  0.00  0.00     0.006 C 
ENDBRANCH   8   9
BRANCH   8  11
ATOM     11  C   LIG d   1      -1.411  82.010 113.530  0.00  0.00     0.028 C 
ATOM     12  C   LIG d   1      -2.593  81.471 112.707  0.00  0.00     0.006 C 
ENDBRANCH   8  11
ENDBRANCH   7   8
ENDBRANCH   1   7
BRANCH   6  13
ATOM     13  N   LIG d   1       1.431  86.296 113.456  0.00  0.00    -0.311 N 
ATOM     14  C   LIG d   1       2.117  86.583 114.561  0.00  0.00     0.210 C 
ATOM     15  C   LIG d   1       1.406  87.525 115.537  0.00  0.00     0.109 C 
ATOM     16  O   LIG d   1       3.260  86.171 114.811  0.00  0.00    -0.276 OA
ATOM     17  H   LIG d   1       0.525  86.699 113.320  0.00  0.00     0.149 HD
ENDBRANCH   6  13
BRANCH   5  18
ATOM     18  N   LIG d   1       3.863  86.853 111.693  0.00  0.00     0.381 N 
ATOM     19  H   LIG d   1       3.715  87.255 112.597  0.00  0.00    -0.090 HD
ATOM     20  H   LIG d   1       4.064  87.595 111.047  0.00  0.00    -0.090 HD
ATOM     21  H   LIG d   1       4.629  86.215 111.727  0.00  0.00    -0.090 HD
ENDBRANCH   5  18
BRANCH   3  22
ATOM     22  C   LIG d   1       2.001  83.873 108.438  0.00  0.00     0.382 C 
ATOM     23  O   LIG d   1       2.874  83.052 108.067  0.00  0.00    -0.241 OA
ATOM     24  O   LIG d   1       1.173  84.303 107.613  0.00  0.00    -0.241 OA
ENDBRANCH   3  22
TORSDOF 7
ENDMDL
MODEL 9
REMARK VINA RESULT:      -4.7      2.334      3.687
REMARK  7 active torsions:
REMARK  status: ('A' for Active; 'I' for Inactive)
REMARK    1  A    between atoms: C_2  and  C_3 
REMARK    2  A    between atoms: C_3  and  O_6 
REMARK    3  A    between atoms: C_3  and  C_4 
REMARK    4  A    between atoms: C_7  and  O_6 
REMARK    5  A    between atoms: C_9  and  C_10 
REMARK    6  A    between atoms: N_15  and  C_14 
REMARK    7  A    between atoms: N_20  and  C_19 
REMARK       I    between atoms: C_22  and  N_20 
ROOT
ATOM      1  C   LIG d   1       1.514  82.481 112.233  0.00  0.00     0.161 C 
ATOM      2  C   LIG d   1       2.358  83.080 111.284  0.00  0.00     0.016 C 
ATOM      3  C   LIG d   1       2.487  82.616 109.954  0.00  0.00     0.038 C 
ATOM      4  C   LIG d   1       1.662  81.606 109.438  0.00  0.00     0.028 C 
ATOM      5  C   LIG d   1       1.153  80.638 110.500  0.00  0.00    -0.047 C 
ATOM      6  C   LIG d   1       0.523  81.447 111.657  0.00  0.00     0.091 C 
ENDROOT
BRANCH   1   7
ATOM      7  O   LIG d   1       0.805  83.498 112.968  0.00  0.00    -0.368 OA
BRANCH   7   8
ATOM      8  C   LIG d   1       1.237  83.714 114.334  0.00  0.00     0.119 C 
BRANCH   8   9
ATOM      9  C   LIG d   1       0.053  83.362 115.255  0.00  0.00     0.028 C 
ATOM     10  C   LIG d   1       0.302  82.080 116.068  0.00  0.00     0.006 C 
ENDBRANCH   8   9
BRANCH   8  11
ATOM     11  C   LIG d   1       1.529  85.194 114.598  0.00  0.00     0.028 C 
ATOM     12  C   LIG d   1       0.265  86.001 114.934  0.00  0.00     0.006 C 
ENDBRANCH   8  11
ENDBRANCH   7   8
ENDBRANCH   1   7
BRANCH   6  13
ATOM     13  N   LIG d   1       0.076  80.580 112.778  0.00  0.00    -0.311 N 
ATOM     14  C   LIG d   1      -1.150  80.065 112.862  0.00  0.00     0.210 C 
ATOM     15  C   LIG d   1      -1.410  79.215 114.110  0.00  0.00     0.109 C 
ATOM     16  O   LIG d   1      -2.036  80.205 112.006  0.00  0.00    -0.276 OA
ATOM     17  H   LIG d   1       0.741  80.389 113.501  0.00  0.00     0.149 HD
ENDBRANCH   6  13
BRANCH   5  18
ATOM     18  N   LIG d   1       0.198  79.722 109.848  0.00  0.00     0.381 N 
ATOM     19  H   LIG d   1      -0.551  79.510 110.477  0.00  0.00    -0.090 HD
ATOM     20  H   LIG d   1       0.671  78.865 109.622  0.00  0.00    -0.090 HD
ATOM     21  H   LIG d   1      -0.163  80.140 109.019  0.00  0.00    -0.090 HD
ENDBRANCH   5  18
BRANCH   3  22
ATOM     22  C   LIG d   1       3.479  83.138 109.138  0.00  0.00     0.382 C 
ATOM     23  O   LIG d   1       3.997  84.247 109.411  0.00  0.00    -0.241 OA
ATOM     24  O   LIG d   1       3.832  82.534 108.107  0.00  0.00    -0.241 OA
ENDBRANCH   3  22
TORSDOF 7
ENDMDL
