MODEL 1
REMARK VINA RESULT:      -7.2      0.000      0.000
REMARK  7 active torsions:
REMARK  status: ('A' for Active; 'I' for Inactive)
REMARK    1  A    between atoms: C_2  and  C_3 
REMARK    2  A    between atoms: C_3  and  O_6 
REMARK    3  A    between atoms: C_3  and  C_4 
REMARK    4  A    between atoms: C_7  and  O_6 
REMARK    5  A    between atoms: C_9  and  C_10 
REMARK    6  A    between atoms: N_15  and  C_14 
REMARK    7  A    between atoms: N_20  and  C_19 
REMARK       I    between atoms: C_22  and  N_20 
ROOT
ATOM      1  C   LIG d   1       0.242  82.854 111.319  0.00  0.00     0.161 C 
ATOM      2  C   LIG d   1      -0.927  82.485 112.005  0.00  0.00     0.016 C 
ATOM      3  C   LIG d   1      -1.336  81.143 112.181  0.00  0.00     0.038 C 
ATOM      4  C   LIG d   1      -0.519  80.065 111.809  0.00  0.00     0.028 C 
ATOM      5  C   LIG d   1       0.432  80.391 110.663  0.00  0.00    -0.047 C 
ATOM      6  C   LIG d   1       1.202  81.687 111.004  0.00  0.00     0.091 C 
ENDROOT
BRANCH   1   7
ATOM      7  O   LIG d   1       0.933  83.887 112.049  0.00  0.00    -0.368 OA
BRANCH   7   8
ATOM      8  C   LIG d   1       0.674  85.248 111.625  0.00  0.00     0.119 C 
BRANCH   8   9
ATOM      9  C   LIG d   1       0.259  85.200 110.142  0.00  0.00     0.028 C 
ATOM     10  C   LIG d   1      -0.966  86.082 109.846  0.00  0.00     0.006 C 
ENDBRANCH   8   9
BRANCH   8  11
ATOM     11  C   LIG d   1       1.949  86.096 111.662  0.00  0.00     0.028 C 
ATOM     12  C   LIG d   1       3.035  85.580 110.705  0.00  0.00     0.006 C 
ENDBRANCH   8  11
ENDBRANCH   7   8
ENDBRANCH   1   7
BRANCH   6  13
ATOM     13  N   LIG d   1       2.094  82.124 109.898  0.00  0.00    -0.311 N 
ATOM     14  C   LIG d   1       3.390  81.823 109.838  0.00  0.00     0.210 C 
ATOM     15  C   LIG d   1       4.130  82.391 108.623  0.00  0.00     0.109 C 
ATOM     16  O   LIG d   1       3.990  81.114 110.660  0.00  0.00    -0.276 OA
ATOM     17  H   LIG d   1       1.682  82.678 109.172  0.00  0.00     0.149 HD
ENDBRANCH   6  13
BRANCH   5  18
ATOM     18  N   LIG d   1       1.316  79.226 110.472  0.00  0.00     0.381 N 
ATOM     19  H   LIG d   1       1.956  79.157 111.238  0.00  0.00    -0.090 HD
ATOM     20  H   LIG d   1       1.847  79.356 109.628  0.00  0.00    -0.090 HD
ATOM     21  H   LIG d   1       0.774  78.393 110.407  0.00  0.00    -0.090 HD
ENDBRANCH   5  18
BRANCH   3  22
ATOM     22  C   LIG d   1      -2.593  80.870 112.697  0.00  0.00     0.382 C 
ATOM     23  O   LIG d   1      -2.781  79.829 113.372  0.00  0.00    -0.241 OA
ATOM     24  O   LIG d   1      -3.552  81.629 112.460  0.00  0.00    -0.241 OA
ENDBRANCH   3  22
TORSDOF 7
ENDMDL
MODEL 2
REMARK VINA RESULT:      -6.3      3.499      5.338
REMARK  7 active torsions:
REMARK  status: ('A' for Active; 'I' for Inactive)
REMARK    1  A    between atoms: C_2  and  C_3 
REMARK    2  A    between atoms: C_3  and  O_6 
REMARK    3  A    between atoms: C_3  and  C_4 
REMARK    4  A    between atoms: C_7  and  O_6 
REMARK    5  A    between atoms: C_9  and  C_10 
REMARK    6  A    between atoms: N_15  and  C_14 
REMARK    7  A    between atoms: N_20  and  C_19 
REMARK       I    between atoms: C_22  and  N_20 
ROOT
ATOM      1  C   LIG d   1       2.470  84.597 110.841  0.00  0.00     0.161 C 
ATOM      2  C   LIG d   1       3.210  83.402 110.853  0.00  0.00     0.016 C 
ATOM      3  C   LIG d   1       3.312  82.540 109.738  0.00  0.00     0.038 C 
ATOM      4  C   LIG d   1       2.803  82.892 108.479  0.00  0.00     0.028 C 
ATOM      5  C   LIG d   1       1.619  83.850 108.551  0.00  0.00    -0.047 C 
ATOM      6  C   LIG d   1       2.000  85.053 109.444  0.00  0.00     0.091 C 
ENDROOT
BRANCH   1   7
ATOM      7  O   LIG d   1       3.225  85.645 111.482  0.00  0.00    -0.368 OA
BRANCH   7   8
ATOM      8  C   LIG d   1       2.560  86.336 112.568  0.00  0.00     0.119 C 
BRANCH   8   9
ATOM      9  C   LIG d   1       3.648  86.810 113.551  0.00  0.00     0.028 C 
ATOM     10  C   LIG d   1       4.812  87.521 112.840  0.00  0.00     0.006 C 
ENDBRANCH   8   9
BRANCH   8  11
ATOM     11  C   LIG d   1       1.672  85.383 113.375  0.00  0.00     0.028 C 
ATOM     12  C   LIG d   1       2.329  84.923 114.685  0.00  0.00     0.006 C 
ENDBRANCH   8  11
ENDBRANCH   7   8
ENDBRANCH   1   7
BRANCH   6  13
ATOM     13  N   LIG d   1       0.869  85.997 109.636  0.00  0.00    -0.311 N 
ATOM     14  C   LIG d   1      -0.296  85.645 110.178  0.00  0.00     0.210 C 
ATOM     15  C   LIG d   1      -1.334  86.768 110.265  0.00  0.00     0.109 C 
ATOM     16  O   LIG d   1      -0.557  84.518 110.623  0.00  0.00    -0.276 OA
ATOM     17  H   LIG d   1       1.006  86.941 109.331  0.00  0.00     0.149 HD
ENDBRANCH   6  13
BRANCH   5  18
ATOM     18  N   LIG d   1       1.277  84.241 107.170  0.00  0.00     0.381 N 
ATOM     19  H   LIG d   1       0.333  84.571 107.136  0.00  0.00    -0.090 HD
ATOM     20  H   LIG d   1       1.350  83.433 106.576  0.00  0.00    -0.090 HD
ATOM     21  H   LIG d   1       1.898  84.952 106.854  0.00  0.00    -0.090 HD
ENDBRANCH   5  18
BRANCH   3  22
ATOM     22  C   LIG d   1       3.896  81.291 109.886  0.00  0.00     0.382 C 
ATOM     23  O   LIG d   1       4.488  80.756 108.917  0.00  0.00    -0.241 OA
ATOM     24  O   LIG d   1       3.801  80.673 110.963  0.00  0.00    -0.241 OA
ENDBRANCH   3  22
TORSDOF 7
ENDMDL
MODEL 3
REMARK VINA RESULT:      -5.1      2.705      5.535
REMARK  7 active torsions:
REMARK  status: ('A' for Active; 'I' for Inactive)
REMARK    1  A    between atoms: C_2  and  C_3 
REMARK    2  A    between atoms: C_3  and  O_6 
REMARK    3  A    between atoms: C_3  and  C_4 
REMARK    4  A    between atoms: C_7  and  O_6 
REMARK    5  A    between atoms: C_9  and  C_10 
REMARK    6  A    between atoms: N_15  and  C_14 
REMARK    7  A    between atoms: N_20  and  C_19 
REMARK       I    between atoms: C_22  and  N_20 
ROOT
ATOM      1  C   LIG d   1       1.551  83.409 112.019  0.00  0.00     0.161 C 
ATOM      2  C   LIG d   1       2.222  83.506 113.249  0.00  0.00     0.016 C 
ATOM      3  C   LIG d   1       2.720  84.723 113.770  0.00  0.00     0.038 C 
ATOM      4  C   LIG d   1       2.446  85.957 113.162  0.00  0.00     0.028 C 
ATOM      5  C   LIG d   1       2.207  85.852 111.660  0.00  0.00    -0.047 C 
ATOM      6  C   LIG d   1       1.145  84.761 111.396  0.00  0.00     0.091 C 
ENDROOT
BRANCH   1   7
ATOM      7  O   LIG d   1       0.398  82.555 112.158  0.00  0.00    -0.368 OA
BRANCH   7   8
ATOM      8  C   LIG d   1       0.644  81.131 112.052  0.00  0.00     0.119 C 
BRANCH   8   9
ATOM      9  C   LIG d   1       1.510  80.902 110.799  0.00  0.00     0.028 C 
ATOM     10  C   LIG d   1       0.673  80.505 109.571  0.00  0.00     0.006 C 
ENDBRANCH   8   9
BRANCH   8  11
ATOM     11  C   LIG d   1      -0.653  80.359 111.795  0.00  0.00     0.028 C 
ATOM     12  C   LIG d   1      -1.205  79.683 113.060  0.00  0.00     0.006 C 
ENDBRANCH   8  11
ENDBRANCH   7   8
ENDBRANCH   1   7
BRANCH   6  13
ATOM     13  N   LIG d   1       0.912  84.535 109.945  0.00  0.00    -0.311 N 
ATOM     14  C   LIG d   1       1.879  84.204 109.091  0.00  0.00     0.210 C 
ATOM     15  C   LIG d   1       1.428  84.038 107.636  0.00  0.00     0.109 C 
ATOM     16  O   LIG d   1       3.062  84.002 109.405  0.00  0.00    -0.276 OA
ATOM     17  H   LIG d   1      -0.024  84.648 109.610  0.00  0.00     0.149 HD
ENDBRANCH   6  13
BRANCH   5  18
ATOM     18  N   LIG d   1       1.797  87.186 111.180  0.00  0.00     0.381 N 
ATOM     19  H   LIG d   1       0.950  87.111 110.653  0.00  0.00    -0.090 HD
ATOM     20  H   LIG d   1       2.513  87.548 110.575  0.00  0.00    -0.090 HD
ATOM     21  H   LIG d   1       1.663  87.800 111.953  0.00  0.00    -0.090 HD
ENDBRANCH   5  18
BRANCH   3  22
ATOM     22  C   LIG d   1       3.537  84.708 114.891  0.00  0.00     0.382 C 
ATOM     23  O   LIG d   1       4.722  84.306 114.798  0.00  0.00    -0.241 OA
ATOM     24  O   LIG d   1       3.090  85.049 116.002  0.00  0.00    -0.241 OA
ENDBRANCH   3  22
TORSDOF 7
ENDMDL
MODEL 4
REMARK VINA RESULT:      -4.9      2.723      4.036
REMARK  7 active torsions:
REMARK  status: ('A' for Active; 'I' for Inactive)
REMARK    1  A    between atoms: C_2  and  C_3 
REMARK    2  A    between atoms: C_3  and  O_6 
REMARK    3  A    between atoms: C_3  and  C_4 
REMARK    4  A    between atoms: C_7  and  O_6 
REMARK    5  A    between atoms: C_9  and  C_10 
REMARK    6  A    between atoms: N_15  and  C_14 
REMARK    7  A    between atoms: N_20  and  C_19 
REMARK       I    between atoms: C_22  and  N_20 
ROOT
ATOM      1  C   LIG d   1       2.442  84.038 111.681  0.00  0.00     0.161 C 
ATOM      2  C   LIG d   1       1.447  85.007 111.895  0.00  0.00     0.016 C 
ATOM      3  C   LIG d   1       0.100  84.838 111.502  0.00  0.00     0.038 C 
ATOM      4  C   LIG d   1      -0.380  83.619 111.001  0.00  0.00     0.028 C 
ATOM      5  C   LIG d   1       0.691  82.788 110.302  0.00  0.00    -0.047 C 
ATOM      6  C   LIG d   1       1.915  82.657 111.237  0.00  0.00     0.091 C 
ENDROOT
BRANCH   1   7
ATOM      7  O   LIG d   1       3.257  83.906 112.862  0.00  0.00    -0.368 OA
BRANCH   7   8
ATOM      8  C   LIG d   1       4.326  84.874 113.009  0.00  0.00     0.119 C 
BRANCH   8   9
ATOM      9  C   LIG d   1       4.151  85.552 114.382  0.00  0.00     0.028 C 
ATOM     10  C   LIG d   1       5.026  84.908 115.471  0.00  0.00     0.006 C 
ENDBRANCH   8   9
BRANCH   8  11
ATOM     11  C   LIG d   1       4.202  86.002 111.981  0.00  0.00     0.028 C 
ATOM     12  C   LIG d   1       4.719  87.349 112.510  0.00  0.00     0.006 C 
ENDBRANCH   8  11
ENDBRANCH   7   8
ENDBRANCH   1   7
BRANCH   6  13
ATOM     13  N   LIG d   1       3.042  81.930 110.597  0.00  0.00    -0.311 N 
ATOM     14  C   LIG d   1       3.347  82.041 109.305  0.00  0.00     0.210 C 
ATOM     15  C   LIG d   1       4.534  81.189 108.845  0.00  0.00     0.109 C 
ATOM     16  O   LIG d   1       2.766  82.787 108.503  0.00  0.00    -0.276 OA
ATOM     17  H   LIG d   1       3.586  81.326 111.182  0.00  0.00     0.149 HD
ENDBRANCH   6  13
BRANCH   5  18
ATOM     18  N   LIG d   1       0.089  81.488 109.952  0.00  0.00     0.381 N 
ATOM     19  H   LIG d   1       0.726  80.961 109.388  0.00  0.00    -0.090 HD
ATOM     20  H   LIG d   1      -0.746  81.650 109.417  0.00  0.00    -0.090 HD
ATOM     21  H   LIG d   1      -0.131  80.980 110.780  0.00  0.00    -0.090 HD
ENDBRANCH   5  18
BRANCH   3  22
ATOM     22  C   LIG d   1      -0.776  85.911 111.572  0.00  0.00     0.382 C 
ATOM     23  O   LIG d   1      -0.894  86.689 110.594  0.00  0.00    -0.241 OA
ATOM     24  O   LIG d   1      -1.416  86.137 112.616  0.00  0.00    -0.241 OA
ENDBRANCH   3  22
TORSDOF 7
ENDMDL
MODEL 5
REMARK VINA RESULT:      -4.7      3.546      5.949
REMARK  7 active torsions:
REMARK  status: ('A' for Active; 'I' for Inactive)
REMARK    1  A    between atoms: C_2  and  C_3 
REMARK    2  A    between atoms: C_3  and  O_6 
REMARK    3  A    between atoms: C_3  and  C_4 
REMARK    4  A    between atoms: C_7  and  O_6 
REMARK    5  A    between atoms: C_9  and  C_10 
REMARK    6  A    between atoms: N_15  and  C_14 
REMARK    7  A    between atoms: N_20  and  C_19 
REMARK       I    between atoms: C_22  and  N_20 
ROOT
ATOM      1  C   LIG d   1       2.177  83.534 112.824  0.00  0.00     0.161 C 
ATOM      2  C   LIG d   1       2.961  83.018 113.869  0.00  0.00     0.016 C 
ATOM      3  C   LIG d   1       3.125  83.669 115.114  0.00  0.00     0.038 C 
ATOM      4  C   LIG d   1       2.389  84.814 115.454  0.00  0.00     0.028 C 
ATOM      5  C   LIG d   1       1.971  85.647 114.247  0.00  0.00    -0.047 C 
ATOM      6  C   LIG d   1       1.278  84.726 113.217  0.00  0.00     0.091 C 
ENDROOT
BRANCH   1   7
ATOM      7  O   LIG d   1       1.385  82.481 112.241  0.00  0.00    -0.368 OA
BRANCH   7   8
ATOM      8  C   LIG d   1       1.726  82.103 110.885  0.00  0.00     0.119 C 
BRANCH   8   9
ATOM      9  C   LIG d   1       2.446  80.742 110.950  0.00  0.00     0.028 C 
ATOM     10  C   LIG d   1       1.781  79.683 110.055  0.00  0.00     0.006 C 
ENDBRANCH   8   9
BRANCH   8  11
ATOM     11  C   LIG d   1       2.745  83.071 110.276  0.00  0.00     0.028 C 
ATOM     12  C   LIG d   1       2.212  83.788 109.025  0.00  0.00     0.006 C 
ENDBRANCH   8  11
ENDBRANCH   7   8
ENDBRANCH   1   7
BRANCH   6  13
ATOM     13  N   LIG d   1       0.913  85.445 111.969  0.00  0.00    -0.311 N 
ATOM     14  C   LIG d   1      -0.318  85.881 111.707  0.00  0.00     0.210 C 
ATOM     15  C   LIG d   1      -0.482  86.580 110.354  0.00  0.00     0.109 C 
ATOM     16  O   LIG d   1      -1.282  85.784 112.482  0.00  0.00    -0.276 OA
ATOM     17  H   LIG d   1       1.642  85.594 111.299  0.00  0.00     0.149 HD
ENDBRANCH   6  13
BRANCH   5  18
ATOM     18  N   LIG d   1       1.097  86.730 114.734  0.00  0.00     0.381 N 
ATOM     19  H   LIG d   1       0.853  87.335 113.976  0.00  0.00    -0.090 HD
ATOM     20  H   LIG d   1       1.598  87.269 115.418  0.00  0.00    -0.090 HD
ATOM     21  H   LIG d   1       0.273  86.347 115.141  0.00  0.00    -0.090 HD
ENDBRANCH   5  18
BRANCH   3  22
ATOM     22  C   LIG d   1       4.063  83.196 116.018  0.00  0.00     0.382 C 
ATOM     23  O   LIG d   1       4.581  83.979 116.851  0.00  0.00    -0.241 OA
ATOM     24  O   LIG d   1       4.431  82.007 115.983  0.00  0.00    -0.241 OA
ENDBRANCH   3  22
TORSDOF 7
ENDMDL
MODEL 6
REMARK VINA RESULT:      -4.5     24.532     27.283
REMARK  7 active torsions:
REMARK  status: ('A' for Active; 'I' for Inactive)
REMARK    1  A    between atoms: C_2  and  C_3 
REMARK    2  A    between atoms: C_3  and  O_6 
REMARK    3  A    between atoms: C_3  and  C_4 
REMARK    4  A    between atoms: C_7  and  O_6 
REMARK    5  A    between atoms: C_9  and  C_10 
REMARK    6  A    between atoms: N_15  and  C_14 
REMARK    7  A    between atoms: N_20  and  C_19 
REMARK       I    between atoms: C_22  and  N_20 
ROOT
ATOM      1  C   LIG d   1     -25.857  86.733 113.051  0.00  0.00     0.161 C 
ATOM      2  C   LIG d   1     -24.523  87.069 113.335  0.00  0.00     0.016 C 
ATOM      3  C   LIG d   1     -23.538  86.117 113.683  0.00  0.00     0.038 C 
ATOM      4  C   LIG d   1     -23.786  84.737 113.622  0.00  0.00     0.028 C 
ATOM      5  C   LIG d   1     -25.253  84.376 113.831  0.00  0.00    -0.047 C 
ATOM      6  C   LIG d   1     -26.119  85.224 112.871  0.00  0.00     0.091 C 
ENDROOT
BRANCH   1   7
ATOM      7  O   LIG d   1     -26.308  87.462 111.892  0.00  0.00    -0.368 OA
BRANCH   7   8
ATOM      8  C   LIG d   1     -27.031  88.690 112.152  0.00  0.00     0.119 C 
BRANCH   8   9
ATOM      9  C   LIG d   1     -28.531  88.392 111.965  0.00  0.00     0.028 C 
ATOM     10  C   LIG d   1     -29.275  88.264 113.305  0.00  0.00     0.006 C 
ENDBRANCH   8   9
BRANCH   8  11
ATOM     11  C   LIG d   1     -26.698  89.764 111.112  0.00  0.00     0.028 C 
ATOM     12  C   LIG d   1     -27.858  90.033 110.141  0.00  0.00     0.006 C 
ENDBRANCH   8  11
ENDBRANCH   7   8
ENDBRANCH   1   7
BRANCH   6  13
ATOM     13  N   LIG d   1     -27.574  84.993 113.069  0.00  0.00    -0.311 N 
ATOM     14  C   LIG d   1     -28.412  84.701 112.075  0.00  0.00     0.210 C 
ATOM     15  C   LIG d   1     -29.875  84.522 112.494  0.00  0.00     0.109 C 
ATOM     16  O   LIG d   1     -28.077  84.540 110.892  0.00  0.00    -0.276 OA
ATOM     17  H   LIG d   1     -27.926  85.073 114.003  0.00  0.00     0.149 HD
ENDBRANCH   6  13
BRANCH   5  18
ATOM     18  N   LIG d   1     -25.391  82.925 113.605  0.00  0.00     0.381 N 
ATOM     19  H   LIG d   1     -25.531  82.458 114.479  0.00  0.00    -0.090 HD
ATOM     20  H   LIG d   1     -24.542  82.577 113.195  0.00  0.00    -0.090 HD
ATOM     21  H   LIG d   1     -26.160  82.746 112.998  0.00  0.00    -0.090 HD
ENDBRANCH   5  18
BRANCH   3  22
ATOM     22  C   LIG d   1     -22.299  86.543 114.135  0.00  0.00     0.382 C 
ATOM     23  O   LIG d   1     -22.174  86.976 115.307  0.00  0.00    -0.241 OA
ATOM     24  O   LIG d   1     -21.313  86.543 113.374  0.00  0.00    -0.241 OA
ENDBRANCH   3  22
TORSDOF 7
ENDMDL
MODEL 7
REMARK VINA RESULT:      -4.5     23.636     26.171
REMARK  7 active torsions:
REMARK  status: ('A' for Active; 'I' for Inactive)
REMARK    1  A    between atoms: C_2  and  C_3 
REMARK    2  A    between atoms: C_3  and  O_6 
REMARK    3  A    between atoms: C_3  and  C_4 
REMARK    4  A    between atoms: C_7  and  O_6 
REMARK    5  A    between atoms: C_9  and  C_10 
REMARK    6  A    between atoms: N_15  and  C_14 
REMARK    7  A    between atoms: N_20  and  C_19 
REMARK       I    between atoms: C_22  and  N_20 
ROOT
ATOM      1  C   LIG d   1     -23.952  83.887 112.633  0.00  0.00     0.161 C 
ATOM      2  C   LIG d   1     -22.999  84.686 113.288  0.00  0.00     0.016 C 
ATOM      3  C   LIG d   1     -23.198  86.055 113.578  0.00  0.00     0.038 C 
ATOM      4  C   LIG d   1     -24.433  86.686 113.366  0.00  0.00     0.028 C 
ATOM      5  C   LIG d   1     -25.253  86.052 112.247  0.00  0.00    -0.047 C 
ATOM      6  C   LIG d   1     -25.348  84.529 112.495  0.00  0.00     0.091 C 
ENDROOT
BRANCH   1   7
ATOM      7  O   LIG d   1     -24.051  82.608 113.290  0.00  0.00    -0.368 OA
BRANCH   7   8
ATOM      8  C   LIG d   1     -24.616  82.619 114.625  0.00  0.00     0.119 C 
BRANCH   8   9
ATOM      9  C   LIG d   1     -23.653  81.840 115.541  0.00  0.00     0.028 C 
ATOM     10  C   LIG d   1     -23.958  80.333 115.568  0.00  0.00     0.006 C 
ENDBRANCH   8   9
BRANCH   8  11
ATOM     11  C   LIG d   1     -25.938  81.848 114.677  0.00  0.00     0.028 C 
ATOM     12  C   LIG d   1     -27.044  82.612 115.421  0.00  0.00     0.006 C 
ENDBRANCH   8  11
ENDBRANCH   7   8
ENDBRANCH   1   7
BRANCH   6  13
ATOM     13  N   LIG d   1     -26.062  83.821 111.401  0.00  0.00    -0.311 N 
ATOM     14  C   LIG d   1     -27.369  83.565 111.424  0.00  0.00     0.210 C 
ATOM     15  C   LIG d   1     -27.901  82.806 110.205  0.00  0.00     0.109 C 
ATOM     16  O   LIG d   1     -28.144  83.924 112.324  0.00  0.00    -0.276 OA
ATOM     17  H   LIG d   1     -25.515  83.522 110.618  0.00  0.00     0.149 HD
ENDBRANCH   6  13
BRANCH   5  18
ATOM     18  N   LIG d   1     -26.569  86.718 112.227  0.00  0.00     0.381 N 
ATOM     19  H   LIG d   1     -27.179  86.244 111.591  0.00  0.00    -0.090 HD
ATOM     20  H   LIG d   1     -26.451  87.663 111.906  0.00  0.00    -0.090 HD
ATOM     21  H   LIG d   1     -26.965  86.718 113.141  0.00  0.00    -0.090 HD
ENDBRANCH   5  18
BRANCH   3  22
ATOM     22  C   LIG d   1     -22.141  86.819 114.049  0.00  0.00     0.382 C 
ATOM     23  O   LIG d   1     -22.300  87.563 115.047  0.00  0.00    -0.241 OA
ATOM     24  O   LIG d   1     -21.042  86.807 113.462  0.00  0.00    -0.241 OA
ENDBRANCH   3  22
TORSDOF 7
ENDMDL
