MODEL 1
REMARK VINA RESULT:      -5.8      0.000      0.000
REMARK  7 active torsions:
REMARK  status: ('A' for Active; 'I' for Inactive)
REMARK    1  A    between atoms: C_2  and  C_3 
REMARK    2  A    between atoms: C_3  and  O_6 
REMARK    3  A    between atoms: C_3  and  C_4 
REMARK    4  A    between atoms: C_7  and  O_6 
REMARK    5  A    between atoms: C_9  and  C_10 
REMARK    6  A    between atoms: N_15  and  C_14 
REMARK    7  A    between atoms: N_20  and  C_19 
REMARK       I    between atoms: C_22  and  N_20 
ROOT
ATOM      1  C   LIG d   1      -4.992  91.854 118.671  0.00  0.00     0.161 C 
ATOM      2  C   LIG d   1      -3.866  92.076 119.481  0.00  0.00     0.016 C 
ATOM      3  C   LIG d   1      -2.571  91.609 119.158  0.00  0.00     0.038 C 
ATOM      4  C   LIG d   1      -2.285  91.014 117.920  0.00  0.00     0.028 C 
ATOM      5  C   LIG d   1      -3.487  90.320 117.288  0.00  0.00    -0.047 C 
ATOM      6  C   LIG d   1      -4.679  91.305 117.263  0.00  0.00     0.091 C 
ENDROOT
BRANCH   1   7
ATOM      7  O   LIG d   1      -5.770  93.064 118.574  0.00  0.00    -0.368 OA
BRANCH   7   8
ATOM      8  C   LIG d   1      -6.065  93.733 119.825  0.00  0.00     0.119 C 
BRANCH   8   9
ATOM      9  C   LIG d   1      -7.598  93.829 119.948  0.00  0.00     0.028 C 
ATOM     10  C   LIG d   1      -8.086  95.280 120.091  0.00  0.00     0.006 C 
ENDBRANCH   8   9
BRANCH   8  11
ATOM     11  C   LIG d   1      -5.569  95.182 119.812  0.00  0.00     0.028 C 
ATOM     12  C   LIG d   1      -4.406  95.422 120.788  0.00  0.00     0.006 C 
ENDBRANCH   8  11
ENDBRANCH   7   8
ENDBRANCH   1   7
BRANCH   6  13
ATOM     13  N   LIG d   1      -5.920  90.679 116.738  0.00  0.00    -0.311 N 
ATOM     14  C   LIG d   1      -6.306  90.771 115.466  0.00  0.00     0.210 C 
ATOM     15  C   LIG d   1      -7.628  90.068 115.140  0.00  0.00     0.109 C 
ATOM     16  O   LIG d   1      -5.663  91.339 114.572  0.00  0.00    -0.276 OA
ATOM     17  H   LIG d   1      -6.486  90.171 117.389  0.00  0.00     0.149 HD
ENDBRANCH   6  13
BRANCH   5  18
ATOM     18  N   LIG d   1      -3.084  89.866 115.944  0.00  0.00     0.381 N 
ATOM     19  H   LIG d   1      -2.523  89.041 116.020  0.00  0.00    -0.090 HD
ATOM     20  H   LIG d   1      -2.532  90.584 115.510  0.00  0.00    -0.090 HD
ATOM     21  H   LIG d   1      -3.891  89.678 115.392  0.00  0.00    -0.090 HD
ENDBRANCH   5  18
BRANCH   3  22
ATOM     22  C   LIG d   1      -1.555  91.699 120.096  0.00  0.00     0.382 C 
ATOM     23  O   LIG d   1      -1.793  92.164 121.237  0.00  0.00    -0.241 OA
ATOM     24  O   LIG d   1      -0.392  91.362 119.802  0.00  0.00    -0.241 OA
ENDBRANCH   3  22
TORSDOF 7
ENDMDL
MODEL 2
REMARK VINA RESULT:      -5.6     33.266     35.242
REMARK  7 active torsions:
REMARK  status: ('A' for Active; 'I' for Inactive)
REMARK    1  A    between atoms: C_2  and  C_3 
REMARK    2  A    between atoms: C_3  and  O_6 
REMARK    3  A    between atoms: C_3  and  C_4 
REMARK    4  A    between atoms: C_7  and  O_6 
REMARK    5  A    between atoms: C_9  and  C_10 
REMARK    6  A    between atoms: N_15  and  C_14 
REMARK    7  A    between atoms: N_20  and  C_19 
REMARK       I    between atoms: C_22  and  N_20 
ROOT
ATOM      1  C   LIG d   1      -0.067  57.924 116.178  0.00  0.00     0.161 C 
ATOM      2  C   LIG d   1      -0.918  59.003 116.467  0.00  0.00     0.016 C 
ATOM      3  C   LIG d   1      -2.174  58.856 117.098  0.00  0.00     0.038 C 
ATOM      4  C   LIG d   1      -2.601  57.627 117.623  0.00  0.00     0.028 C 
ATOM      5  C   LIG d   1      -2.000  56.422 116.908  0.00  0.00    -0.047 C 
ATOM      6  C   LIG d   1      -0.465  56.590 116.843  0.00  0.00     0.091 C 
ENDROOT
BRANCH   1   7
ATOM      7  O   LIG d   1       1.291  58.268 116.519  0.00  0.00    -0.368 OA
BRANCH   7   8
ATOM      8  C   LIG d   1       1.707  57.957 117.871  0.00  0.00     0.119 C 
BRANCH   8   9
ATOM      9  C   LIG d   1       2.046  59.288 118.569  0.00  0.00     0.028 C 
ATOM     10  C   LIG d   1       0.980  59.698 119.600  0.00  0.00     0.006 C 
ENDBRANCH   8   9
BRANCH   8  11
ATOM     11  C   LIG d   1       3.009  57.150 117.882  0.00  0.00     0.028 C 
ATOM     12  C   LIG d   1       4.196  57.943 118.451  0.00  0.00     0.006 C 
ENDBRANCH   8  11
ENDBRANCH   7   8
ENDBRANCH   1   7
BRANCH   6  13
ATOM     13  N   LIG d   1       0.193  55.495 116.085  0.00  0.00    -0.311 N 
ATOM     14  C   LIG d   1       0.747  54.431 116.665  0.00  0.00     0.210 C 
ATOM     15  C   LIG d   1       1.390  53.430 115.700  0.00  0.00     0.109 C 
ATOM     16  O   LIG d   1       0.738  54.206 117.885  0.00  0.00    -0.276 OA
ATOM     17  H   LIG d   1       0.218  55.581 115.088  0.00  0.00     0.149 HD
ENDBRANCH   6  13
BRANCH   5  18
ATOM     18  N   LIG d   1      -2.419  55.213 117.643  0.00  0.00     0.381 N 
ATOM     19  H   LIG d   1      -2.659  54.489 116.996  0.00  0.00    -0.090 HD
ATOM     20  H   LIG d   1      -3.235  55.431 118.188  0.00  0.00    -0.090 HD
ATOM     21  H   LIG d   1      -1.684  54.905 118.240  0.00  0.00    -0.090 HD
ENDBRANCH   5  18
BRANCH   3  22
ATOM     22  C   LIG d   1      -3.037  59.940 117.174  0.00  0.00     0.382 C 
ATOM     23  O   LIG d   1      -4.241  59.806 116.848  0.00  0.00    -0.241 OA
ATOM     24  O   LIG d   1      -2.616  61.059 117.521  0.00  0.00    -0.241 OA
ENDBRANCH   3  22
TORSDOF 7
ENDMDL
MODEL 3
REMARK VINA RESULT:      -5.5      1.659      4.589
REMARK  7 active torsions:
REMARK  status: ('A' for Active; 'I' for Inactive)
REMARK    1  A    between atoms: C_2  and  C_3 
REMARK    2  A    between atoms: C_3  and  O_6 
REMARK    3  A    between atoms: C_3  and  C_4 
REMARK    4  A    between atoms: C_7  and  O_6 
REMARK    5  A    between atoms: C_9  and  C_10 
REMARK    6  A    between atoms: N_15  and  C_14 
REMARK    7  A    between atoms: N_20  and  C_19 
REMARK       I    between atoms: C_22  and  N_20 
ROOT
ATOM      1  C   LIG d   1      -4.858  92.464 118.860  0.00  0.00     0.161 C 
ATOM      2  C   LIG d   1      -5.777  91.832 118.005  0.00  0.00     0.016 C 
ATOM      3  C   LIG d   1      -5.393  90.977 116.947  0.00  0.00     0.038 C 
ATOM      4  C   LIG d   1      -4.062  90.573 116.764  0.00  0.00     0.028 C 
ATOM      5  C   LIG d   1      -3.046  91.583 117.288  0.00  0.00    -0.047 C 
ATOM      6  C   LIG d   1      -3.408  91.948 118.746  0.00  0.00     0.091 C 
ENDROOT
BRANCH   1   7
ATOM      7  O   LIG d   1      -5.317  92.373 120.223  0.00  0.00    -0.368 OA
BRANCH   7   8
ATOM      8  C   LIG d   1      -5.689  93.622 120.855  0.00  0.00     0.119 C 
BRANCH   8   9
ATOM      9  C   LIG d   1      -7.196  93.550 121.171  0.00  0.00     0.028 C 
ATOM     10  C   LIG d   1      -8.064  94.056 120.006  0.00  0.00     0.006 C 
ENDBRANCH   8   9
BRANCH   8  11
ATOM     11  C   LIG d   1      -5.533  94.802 119.892  0.00  0.00     0.028 C 
ATOM     12  C   LIG d   1      -4.497  95.831 120.374  0.00  0.00     0.006 C 
ENDBRANCH   8  11
ENDBRANCH   7   8
ENDBRANCH   1   7
BRANCH   6  13
ATOM     13  N   LIG d   1      -2.514  92.994 119.307  0.00  0.00    -0.311 N 
ATOM     14  C   LIG d   1      -1.403  92.720 119.989  0.00  0.00     0.210 C 
ATOM     15  C   LIG d   1      -0.637  93.945 120.496  0.00  0.00     0.109 C 
ATOM     16  O   LIG d   1      -0.962  91.579 120.193  0.00  0.00    -0.276 OA
ATOM     17  H   LIG d   1      -2.779  93.948 119.161  0.00  0.00     0.149 HD
ENDBRANCH   6  13
BRANCH   5  18
ATOM     18  N   LIG d   1      -1.708  90.976 117.160  0.00  0.00     0.381 N 
ATOM     19  H   LIG d   1      -1.256  91.323 116.338  0.00  0.00    -0.090 HD
ATOM     20  H   LIG d   1      -1.810  89.980 117.067  0.00  0.00    -0.090 HD
ATOM     21  H   LIG d   1      -1.159  91.187 117.964  0.00  0.00    -0.090 HD
ENDBRANCH   5  18
BRANCH   3  22
ATOM     22  C   LIG d   1      -6.343  90.547 116.032  0.00  0.00     0.382 C 
ATOM     23  O   LIG d   1      -7.175  89.667 116.359  0.00  0.00    -0.241 OA
ATOM     24  O   LIG d   1      -6.349  90.996 114.870  0.00  0.00    -0.241 OA
ENDBRANCH   3  22
TORSDOF 7
ENDMDL
MODEL 4
REMARK VINA RESULT:      -5.4      2.639      6.211
REMARK  7 active torsions:
REMARK  status: ('A' for Active; 'I' for Inactive)
REMARK    1  A    between atoms: C_2  and  C_3 
REMARK    2  A    between atoms: C_3  and  O_6 
REMARK    3  A    between atoms: C_3  and  C_4 
REMARK    4  A    between atoms: C_7  and  O_6 
REMARK    5  A    between atoms: C_9  and  C_10 
REMARK    6  A    between atoms: N_15  and  C_14 
REMARK    7  A    between atoms: N_20  and  C_19 
REMARK       I    between atoms: C_22  and  N_20 
ROOT
ATOM      1  C   LIG d   1      -2.837  91.686 118.218  0.00  0.00     0.161 C 
ATOM      2  C   LIG d   1      -3.528  91.267 117.069  0.00  0.00     0.016 C 
ATOM      3  C   LIG d   1      -4.933  91.350 116.933  0.00  0.00     0.038 C 
ATOM      4  C   LIG d   1      -5.733  92.003 117.883  0.00  0.00     0.028 C 
ATOM      5  C   LIG d   1      -5.137  91.990 119.287  0.00  0.00    -0.047 C 
ATOM      6  C   LIG d   1      -3.680  92.502 119.219  0.00  0.00     0.091 C 
ENDROOT
BRANCH   1   7
ATOM      7  O   LIG d   1      -1.659  92.424 117.837  0.00  0.00    -0.368 OA
BRANCH   7   8
ATOM      8  C   LIG d   1      -0.390  91.849 118.236  0.00  0.00     0.119 C 
BRANCH   8   9
ATOM      9  C   LIG d   1       0.336  92.892 119.109  0.00  0.00     0.028 C 
ATOM     10  C   LIG d   1      -0.249  94.304 118.944  0.00  0.00     0.006 C 
ENDBRANCH   8   9
BRANCH   8  11
ATOM     11  C   LIG d   1       0.525  91.625 117.028  0.00  0.00     0.028 C 
ATOM     12  C   LIG d   1       2.015  91.768 117.375  0.00  0.00     0.006 C 
ENDBRANCH   8  11
ENDBRANCH   7   8
ENDBRANCH   1   7
BRANCH   6  13
ATOM     13  N   LIG d   1      -2.996  92.442 120.537  0.00  0.00    -0.311 N 
ATOM     14  C   LIG d   1      -2.917  93.479 121.370  0.00  0.00     0.210 C 
ATOM     15  C   LIG d   1      -2.150  93.208 122.668  0.00  0.00     0.109 C 
ATOM     16  O   LIG d   1      -3.437  94.587 121.171  0.00  0.00    -0.276 OA
ATOM     17  H   LIG d   1      -2.573  91.571 120.793  0.00  0.00     0.149 HD
ENDBRANCH   6  13
BRANCH   5  18
ATOM     18  N   LIG d   1      -6.002  92.820 120.146  0.00  0.00     0.381 N 
ATOM     19  H   LIG d   1      -5.871  92.567 121.105  0.00  0.00    -0.090 HD
ATOM     20  H   LIG d   1      -6.962  92.648 119.904  0.00  0.00    -0.090 HD
ATOM     21  H   LIG d   1      -5.787  93.784 120.017  0.00  0.00    -0.090 HD
ENDBRANCH   5  18
BRANCH   3  22
ATOM     22  C   LIG d   1      -5.557  90.742 115.854  0.00  0.00     0.382 C 
ATOM     23  O   LIG d   1      -5.638  91.343 114.756  0.00  0.00    -0.241 OA
ATOM     24  O   LIG d   1      -6.078  89.617 115.978  0.00  0.00    -0.241 OA
ENDBRANCH   3  22
TORSDOF 7
ENDMDL
MODEL 5
REMARK VINA RESULT:      -5.3      4.343      7.024
REMARK  7 active torsions:
REMARK  status: ('A' for Active; 'I' for Inactive)
REMARK    1  A    between atoms: C_2  and  C_3 
REMARK    2  A    between atoms: C_3  and  O_6 
REMARK    3  A    between atoms: C_3  and  C_4 
REMARK    4  A    between atoms: C_7  and  O_6 
REMARK    5  A    between atoms: C_9  and  C_10 
REMARK    6  A    between atoms: N_15  and  C_14 
REMARK    7  A    between atoms: N_20  and  C_19 
REMARK       I    between atoms: C_22  and  N_20 
ROOT
ATOM      1  C   LIG d   1       0.476  91.923 117.476  0.00  0.00     0.161 C 
ATOM      2  C   LIG d   1       1.066  91.004 116.593  0.00  0.00     0.016 C 
ATOM      3  C   LIG d   1       2.464  90.862 116.436  0.00  0.00     0.038 C 
ATOM      4  C   LIG d   1       3.375  91.530 117.268  0.00  0.00     0.028 C 
ATOM      5  C   LIG d   1       2.835  92.841 117.828  0.00  0.00    -0.047 C 
ATOM      6  C   LIG d   1       1.454  92.581 118.472  0.00  0.00     0.091 C 
ENDROOT
BRANCH   1   7
ATOM      7  O   LIG d   1      -0.611  91.293 118.183  0.00  0.00    -0.368 OA
BRANCH   7   8
ATOM      8  C   LIG d   1      -1.944  91.724 117.815  0.00  0.00     0.119 C 
BRANCH   8   9
ATOM      9  C   LIG d   1      -2.643  92.213 119.098  0.00  0.00     0.028 C 
ATOM     10  C   LIG d   1      -2.276  91.364 120.327  0.00  0.00     0.006 C 
ENDBRANCH   8   9
BRANCH   8  11
ATOM     11  C   LIG d   1      -2.791  90.550 117.315  0.00  0.00     0.028 C 
ATOM     12  C   LIG d   1      -4.151  90.993 116.753  0.00  0.00     0.006 C 
ENDBRANCH   8  11
ENDBRANCH   7   8
ENDBRANCH   1   7
BRANCH   6  13
ATOM     13  N   LIG d   1       0.817  93.828 118.970  0.00  0.00    -0.311 N 
ATOM     14  C   LIG d   1       0.458  94.012 120.240  0.00  0.00     0.210 C 
ATOM     15  C   LIG d   1      -0.201  95.362 120.537  0.00  0.00     0.109 C 
ATOM     16  O   LIG d   1       0.653  93.197 121.155  0.00  0.00    -0.276 OA
ATOM     17  H   LIG d   1       0.651  94.554 118.301  0.00  0.00     0.149 HD
ENDBRANCH   6  13
BRANCH   5  18
ATOM     18  N   LIG d   1       3.830  93.361 118.785  0.00  0.00     0.381 N 
ATOM     19  H   LIG d   1       3.364  93.803 119.552  0.00  0.00    -0.090 HD
ATOM     20  H   LIG d   1       4.398  94.049 118.322  0.00  0.00    -0.090 HD
ATOM     21  H   LIG d   1       4.403  92.618 119.118  0.00  0.00    -0.090 HD
ENDBRANCH   5  18
BRANCH   3  22
ATOM     22  C   LIG d   1       2.965  90.074 115.410  0.00  0.00     0.382 C 
ATOM     23  O   LIG d   1       3.780  90.558 114.589  0.00  0.00    -0.241 OA
ATOM     24  O   LIG d   1       2.577  88.899 115.270  0.00  0.00    -0.241 OA
ENDBRANCH   3  22
TORSDOF 7
ENDMDL
MODEL 6
REMARK VINA RESULT:      -5.3     31.831     33.335
REMARK  7 active torsions:
REMARK  status: ('A' for Active; 'I' for Inactive)
REMARK    1  A    between atoms: C_2  and  C_3 
REMARK    2  A    between atoms: C_3  and  O_6 
REMARK    3  A    between atoms: C_3  and  C_4 
REMARK    4  A    between atoms: C_7  and  O_6 
REMARK    5  A    between atoms: C_9  and  C_10 
REMARK    6  A    between atoms: N_15  and  C_14 
REMARK    7  A    between atoms: N_20  and  C_19 
REMARK       I    between atoms: C_22  and  N_20 
ROOT
ATOM      1  C   LIG d   1       0.325  59.497 118.967  0.00  0.00     0.161 C 
ATOM      2  C   LIG d   1      -1.053  59.382 118.722  0.00  0.00     0.016 C 
ATOM      3  C   LIG d   1      -1.608  59.299 117.424  0.00  0.00     0.038 C 
ATOM      4  C   LIG d   1      -0.805  59.173 116.281  0.00  0.00     0.028 C 
ATOM      5  C   LIG d   1       0.579  59.792 116.442  0.00  0.00    -0.047 C 
ATOM      6  C   LIG d   1       1.224  59.249 117.738  0.00  0.00     0.091 C 
ENDROOT
BRANCH   1   7
ATOM      7  O   LIG d   1       0.704  58.622 120.049  0.00  0.00    -0.368 OA
BRANCH   7   8
ATOM      8  C   LIG d   1       1.115  59.270 121.278  0.00  0.00     0.119 C 
BRANCH   8   9
ATOM      9  C   LIG d   1       0.786  60.769 121.144  0.00  0.00     0.028 C 
ATOM     10  C   LIG d   1      -0.352  61.207 122.082  0.00  0.00     0.006 C 
ENDBRANCH   8   9
BRANCH   8  11
ATOM     11  C   LIG d   1       2.634  59.203 121.462  0.00  0.00     0.028 C 
ATOM     12  C   LIG d   1       3.290  60.591 121.510  0.00  0.00     0.006 C 
ENDBRANCH   8  11
ENDBRANCH   7   8
ENDBRANCH   1   7
BRANCH   6  13
ATOM     13  N   LIG d   1       2.546  59.868 118.015  0.00  0.00    -0.311 N 
ATOM     14  C   LIG d   1       3.700  59.349 117.598  0.00  0.00     0.210 C 
ATOM     15  C   LIG d   1       4.949  60.135 118.010  0.00  0.00     0.109 C 
ATOM     16  O   LIG d   1       3.806  58.330 116.899  0.00  0.00    -0.276 OA
ATOM     17  H   LIG d   1       2.551  60.714 118.550  0.00  0.00     0.149 HD
ENDBRANCH   6  13
BRANCH   5  18
ATOM     18  N   LIG d   1       1.355  59.468 115.230  0.00  0.00     0.381 N 
ATOM     19  H   LIG d   1       2.334  59.517 115.432  0.00  0.00    -0.090 HD
ATOM     20  H   LIG d   1       1.145  60.146 114.519  0.00  0.00    -0.090 HD
ATOM     21  H   LIG d   1       1.121  58.555 114.909  0.00  0.00    -0.090 HD
ENDBRANCH   5  18
BRANCH   3  22
ATOM     22  C   LIG d   1      -2.983  59.383 117.258  0.00  0.00     0.382 C 
ATOM     23  O   LIG d   1      -3.707  58.393 117.522  0.00  0.00    -0.241 OA
ATOM     24  O   LIG d   1      -3.502  60.420 116.806  0.00  0.00    -0.241 OA
ENDBRANCH   3  22
TORSDOF 7
ENDMDL
MODEL 7
REMARK VINA RESULT:      -5.2     32.785     34.465
REMARK  7 active torsions:
REMARK  status: ('A' for Active; 'I' for Inactive)
REMARK    1  A    between atoms: C_2  and  C_3 
REMARK    2  A    between atoms: C_3  and  O_6 
REMARK    3  A    between atoms: C_3  and  C_4 
REMARK    4  A    between atoms: C_7  and  O_6 
REMARK    5  A    between atoms: C_9  and  C_10 
REMARK    6  A    between atoms: N_15  and  C_14 
REMARK    7  A    between atoms: N_20  and  C_19 
REMARK       I    between atoms: C_22  and  N_20 
ROOT
ATOM      1  C   LIG d   1       0.519  59.189 118.478  0.00  0.00     0.161 C 
ATOM      2  C   LIG d   1      -0.883  59.171 118.393  0.00  0.00     0.016 C 
ATOM      3  C   LIG d   1      -1.590  59.231 117.170  0.00  0.00     0.038 C 
ATOM      4  C   LIG d   1      -0.936  59.159 115.931  0.00  0.00     0.028 C 
ATOM      5  C   LIG d   1       0.495  59.685 115.971  0.00  0.00    -0.047 C 
ATOM      6  C   LIG d   1       1.250  58.998 117.132  0.00  0.00     0.091 C 
ENDROOT
BRANCH   1   7
ATOM      7  O   LIG d   1       0.963  58.206 119.433  0.00  0.00    -0.368 OA
BRANCH   7   8
ATOM      8  C   LIG d   1       0.123  57.034 119.580  0.00  0.00     0.119 C 
BRANCH   8   9
ATOM      9  C   LIG d   1       0.138  56.637 121.069  0.00  0.00     0.028 C 
ATOM     10  C   LIG d   1       0.221  57.858 122.001  0.00  0.00     0.006 C 
ENDBRANCH   8   9
BRANCH   8  11
ATOM     11  C   LIG d   1       0.709  55.832 118.833  0.00  0.00     0.028 C 
ATOM     12  C   LIG d   1      -0.371  54.936 118.207  0.00  0.00     0.006 C 
ENDBRANCH   8  11
ENDBRANCH   7   8
ENDBRANCH   1   7
BRANCH   6  13
ATOM     13  N   LIG d   1       2.633  59.518 117.295  0.00  0.00    -0.311 N 
ATOM     14  C   LIG d   1       3.690  58.735 117.505  0.00  0.00     0.210 C 
ATOM     15  C   LIG d   1       5.022  59.476 117.665  0.00  0.00     0.109 C 
ATOM     16  O   LIG d   1       3.656  57.496 117.543  0.00  0.00    -0.276 OA
ATOM     17  H   LIG d   1       2.756  60.510 117.247  0.00  0.00     0.149 HD
ENDBRANCH   6  13
BRANCH   5  18
ATOM     18  N   LIG d   1       1.103  59.424 114.652  0.00  0.00     0.381 N 
ATOM     19  H   LIG d   1       2.082  59.252 114.759  0.00  0.00    -0.090 HD
ATOM     20  H   LIG d   1       0.986  60.237 114.074  0.00  0.00    -0.090 HD
ATOM     21  H   LIG d   1       0.665  58.638 114.225  0.00  0.00    -0.090 HD
ENDBRANCH   5  18
BRANCH   3  22
ATOM     22  C   LIG d   1      -2.966  59.403 117.179  0.00  0.00     0.382 C 
ATOM     23  O   LIG d   1      -3.714  58.458 117.526  0.00  0.00    -0.241 OA
ATOM     24  O   LIG d   1      -3.470  60.478 116.802  0.00  0.00    -0.241 OA
ENDBRANCH   3  22
TORSDOF 7
ENDMDL
MODEL 8
REMARK VINA RESULT:      -5.0     32.256     33.398
REMARK  7 active torsions:
REMARK  status: ('A' for Active; 'I' for Inactive)
REMARK    1  A    between atoms: C_2  and  C_3 
REMARK    2  A    between atoms: C_3  and  O_6 
REMARK    3  A    between atoms: C_3  and  C_4 
REMARK    4  A    between atoms: C_7  and  O_6 
REMARK    5  A    between atoms: C_9  and  C_10 
REMARK    6  A    between atoms: N_15  and  C_14 
REMARK    7  A    between atoms: N_20  and  C_19 
REMARK       I    between atoms: C_22  and  N_20 
ROOT
ATOM      1  C   LIG d   1       0.721  59.382 118.563  0.00  0.00     0.161 C 
ATOM      2  C   LIG d   1       1.972  59.455 117.929  0.00  0.00     0.016 C 
ATOM      3  C   LIG d   1       3.173  59.762 118.609  0.00  0.00     0.038 C 
ATOM      4  C   LIG d   1       3.226  59.870 120.007  0.00  0.00     0.028 C 
ATOM      5  C   LIG d   1       1.904  60.304 120.632  0.00  0.00    -0.047 C 
ATOM      6  C   LIG d   1       0.776  59.388 120.105  0.00  0.00     0.091 C 
ENDROOT
BRANCH   1   7
ATOM      7  O   LIG d   1       0.000  58.227 118.091  0.00  0.00    -0.368 OA
BRANCH   7   8
ATOM      8  C   LIG d   1      -1.105  58.488 117.192  0.00  0.00     0.119 C 
BRANCH   8   9
ATOM      9  C   LIG d   1      -0.614  58.202 115.759  0.00  0.00     0.028 C 
ATOM     10  C   LIG d   1      -0.322  59.491 114.971  0.00  0.00     0.006 C 
ENDBRANCH   8   9
BRANCH   8  11
ATOM     11  C   LIG d   1      -1.492  59.970 117.200  0.00  0.00     0.028 C 
ATOM     12  C   LIG d   1      -2.934  60.207 117.675  0.00  0.00     0.006 C 
ENDBRANCH   8  11
ENDBRANCH   7   8
ENDBRANCH   1   7
BRANCH   6  13
ATOM     13  N   LIG d   1      -0.564  59.796 120.602  0.00  0.00    -0.311 N 
ATOM     14  C   LIG d   1      -1.461  58.937 121.083  0.00  0.00     0.210 C 
ATOM     15  C   LIG d   1      -2.787  59.565 121.523  0.00  0.00     0.109 C 
ATOM     16  O   LIG d   1      -1.272  57.718 121.217  0.00  0.00    -0.276 OA
ATOM     17  H   LIG d   1      -0.789  60.771 120.559  0.00  0.00     0.149 HD
ENDBRANCH   6  13
BRANCH   5  18
ATOM     18  N   LIG d   1       2.063  60.242 122.097  0.00  0.00     0.381 N 
ATOM     19  H   LIG d   1       1.532  59.476 122.463  0.00  0.00    -0.090 HD
ATOM     20  H   LIG d   1       1.708  61.092 122.498  0.00  0.00    -0.090 HD
ATOM     21  H   LIG d   1       3.024  60.131 122.332  0.00  0.00    -0.090 HD
ENDBRANCH   5  18
BRANCH   3  22
ATOM     22  C   LIG d   1       4.330  60.004 117.885  0.00  0.00     0.382 C 
ATOM     23  O   LIG d   1       4.834  61.153 117.874  0.00  0.00    -0.241 OA
ATOM     24  O   LIG d   1       4.852  59.099 117.207  0.00  0.00    -0.241 OA
ENDBRANCH   3  22
TORSDOF 7
ENDMDL
MODEL 9
REMARK VINA RESULT:      -4.9      2.489      6.292
REMARK  7 active torsions:
REMARK  status: ('A' for Active; 'I' for Inactive)
REMARK    1  A    between atoms: C_2  and  C_3 
REMARK    2  A    between atoms: C_3  and  O_6 
REMARK    3  A    between atoms: C_3  and  C_4 
REMARK    4  A    between atoms: C_7  and  O_6 
REMARK    5  A    between atoms: C_9  and  C_10 
REMARK    6  A    between atoms: N_15  and  C_14 
REMARK    7  A    between atoms: N_20  and  C_19 
REMARK       I    between atoms: C_22  and  N_20 
ROOT
ATOM      1  C   LIG d   1      -5.681  92.499 118.985  0.00  0.00     0.161 C 
ATOM      2  C   LIG d   1      -6.976  93.043 118.981  0.00  0.00     0.016 C 
ATOM      3  C   LIG d   1      -7.371  94.118 119.810  0.00  0.00     0.038 C 
ATOM      4  C   LIG d   1      -6.450  94.825 120.596  0.00  0.00     0.028 C 
ATOM      5  C   LIG d   1      -5.242  93.992 121.012  0.00  0.00    -0.047 C 
ATOM      6  C   LIG d   1      -4.633  93.330 119.755  0.00  0.00     0.091 C 
ENDROOT
BRANCH   1   7
ATOM      7  O   LIG d   1      -5.243  92.270 117.631  0.00  0.00    -0.368 OA
BRANCH   7   8
ATOM      8  C   LIG d   1      -5.459  90.936 117.108  0.00  0.00     0.119 C 
BRANCH   8   9
ATOM      9  C   LIG d   1      -4.158  90.498 116.407  0.00  0.00     0.028 C 
ATOM     10  C   LIG d   1      -3.003  90.278 117.399  0.00  0.00     0.006 C 
ENDBRANCH   8   9
BRANCH   8  11
ATOM     11  C   LIG d   1      -6.530  90.934 116.013  0.00  0.00     0.028 C 
ATOM     12  C   LIG d   1      -6.092  90.171 114.753  0.00  0.00     0.006 C 
ENDBRANCH   8  11
ENDBRANCH   7   8
ENDBRANCH   1   7
BRANCH   6  13
ATOM     13  N   LIG d   1      -3.498  92.429 120.083  0.00  0.00    -0.311 N 
ATOM     14  C   LIG d   1      -2.221  92.805 120.019  0.00  0.00     0.210 C 
ATOM     15  C   LIG d   1      -1.207  91.714 120.380  0.00  0.00     0.109 C 
ATOM     16  O   LIG d   1      -1.834  93.946 119.729  0.00  0.00    -0.276 OA
ATOM     17  H   LIG d   1      -3.723  91.493 120.358  0.00  0.00     0.149 HD
ENDBRANCH   6  13
BRANCH   5  18
ATOM     18  N   LIG d   1      -4.300  94.889 121.707  0.00  0.00     0.381 N 
ATOM     19  H   LIG d   1      -3.965  94.448 122.540  0.00  0.00    -0.090 HD
ATOM     20  H   LIG d   1      -4.784  95.730 121.968  0.00  0.00    -0.090 HD
ATOM     21  H   LIG d   1      -3.535  95.109 121.109  0.00  0.00    -0.090 HD
ENDBRANCH   5  18
BRANCH   3  22
ATOM     22  C   LIG d   1      -8.710  94.469 119.887  0.00  0.00     0.382 C 
ATOM     23  O   LIG d   1      -9.587  93.709 119.409  0.00  0.00    -0.241 OA
ATOM     24  O   LIG d   1      -9.050  95.557 120.390  0.00  0.00    -0.241 OA
ENDBRANCH   3  22
TORSDOF 7
ENDMDL
