MODEL 1
REMARK VINA RESULT:      -6.4      0.000      0.000
REMARK  7 active torsions:
REMARK  status: ('A' for Active; 'I' for Inactive)
REMARK    1  A    between atoms: C_2  and  C_3 
REMARK    2  A    between atoms: C_3  and  O_6 
REMARK    3  A    between atoms: C_3  and  C_4 
REMARK    4  A    between atoms: C_7  and  O_6 
REMARK    5  A    between atoms: C_9  and  C_10 
REMARK    6  A    between atoms: N_15  and  C_14 
REMARK    7  A    between atoms: N_20  and  C_19 
REMARK       I    between atoms: C_22  and  N_20 
ROOT
ATOM      1  C   LIG d   1      -6.996  75.262 116.515  0.00  0.00     0.161 C 
ATOM      2  C   LIG d   1      -6.025  75.184 115.504  0.00  0.00     0.016 C 
ATOM      3  C   LIG d   1      -4.819  75.922 115.525  0.00  0.00     0.038 C 
ATOM      4  C   LIG d   1      -4.431  76.678 116.641  0.00  0.00     0.028 C 
ATOM      5  C   LIG d   1      -5.609  77.185 117.467  0.00  0.00    -0.047 C 
ATOM      6  C   LIG d   1      -6.541  75.996 117.794  0.00  0.00     0.091 C 
ENDROOT
BRANCH   1   7
ATOM      7  O   LIG d   1      -7.472  73.940 116.839  0.00  0.00    -0.368 OA
BRANCH   7   8
ATOM      8  C   LIG d   1      -8.518  73.413 115.987  0.00  0.00     0.119 C 
BRANCH   8   9
ATOM      9  C   LIG d   1      -9.836  73.466 116.784  0.00  0.00     0.028 C 
ATOM     10  C   LIG d   1     -10.520  74.840 116.697  0.00  0.00     0.006 C 
ENDBRANCH   8   9
BRANCH   8  11
ATOM     11  C   LIG d   1      -8.290  71.931 115.677  0.00  0.00     0.028 C 
ATOM     12  C   LIG d   1      -6.823  71.608 115.355  0.00  0.00     0.006 C 
ENDBRANCH   8  11
ENDBRANCH   7   8
ENDBRANCH   1   7
BRANCH   6  13
ATOM     13  N   LIG d   1      -7.762  76.419 118.529  0.00  0.00    -0.311 N 
ATOM     14  C   LIG d   1      -8.263  75.749 119.565  0.00  0.00     0.210 C 
ATOM     15  C   LIG d   1      -9.540  76.346 120.165  0.00  0.00     0.109 C 
ATOM     16  O   LIG d   1      -7.754  74.734 120.064  0.00  0.00    -0.276 OA
ATOM     17  H   LIG d   1      -8.222  77.249 118.210  0.00  0.00     0.149 HD
ENDBRANCH   6  13
BRANCH   5  18
ATOM     18  N   LIG d   1      -5.060  77.837 118.671  0.00  0.00     0.381 N 
ATOM     19  H   LIG d   1      -5.599  77.577 119.473  0.00  0.00    -0.090 HD
ATOM     20  H   LIG d   1      -5.124  78.834 118.559  0.00  0.00    -0.090 HD
ATOM     21  H   LIG d   1      -4.109  77.570 118.800  0.00  0.00    -0.090 HD
ENDBRANCH   5  18
BRANCH   3  22
ATOM     22  C   LIG d   1      -4.004  75.938 114.403  0.00  0.00     0.382 C 
ATOM     23  O   LIG d   1      -2.799  75.603 114.499  0.00  0.00    -0.241 OA
ATOM     24  O   LIG d   1      -4.447  76.327 113.306  0.00  0.00    -0.241 OA
ENDBRANCH   3  22
TORSDOF 7
ENDMDL
MODEL 2
REMARK VINA RESULT:      -6.2      2.153      5.071
REMARK  7 active torsions:
REMARK  status: ('A' for Active; 'I' for Inactive)
REMARK    1  A    between atoms: C_2  and  C_3 
REMARK    2  A    between atoms: C_3  and  O_6 
REMARK    3  A    between atoms: C_3  and  C_4 
REMARK    4  A    between atoms: C_7  and  O_6 
REMARK    5  A    between atoms: C_9  and  C_10 
REMARK    6  A    between atoms: N_15  and  C_14 
REMARK    7  A    between atoms: N_20  and  C_19 
REMARK       I    between atoms: C_22  and  N_20 
ROOT
ATOM      1  C   LIG d   1      -7.794  75.758 117.805  0.00  0.00     0.161 C 
ATOM      2  C   LIG d   1      -9.165  75.853 118.097  0.00  0.00     0.016 C 
ATOM      3  C   LIG d   1      -9.750  76.973 118.732  0.00  0.00     0.038 C 
ATOM      4  C   LIG d   1      -9.023  78.146 118.983  0.00  0.00     0.028 C 
ATOM      5  C   LIG d   1      -7.528  77.905 119.165  0.00  0.00    -0.047 C 
ATOM      6  C   LIG d   1      -7.005  77.073 117.971  0.00  0.00     0.091 C 
ENDROOT
BRANCH   1   7
ATOM      7  O   LIG d   1      -7.613  75.230 116.476  0.00  0.00    -0.368 OA
BRANCH   7   8
ATOM      8  C   LIG d   1      -7.310  73.816 116.388  0.00  0.00     0.119 C 
BRANCH   8   9
ATOM      9  C   LIG d   1      -6.297  73.630 115.242  0.00  0.00     0.028 C 
ATOM     10  C   LIG d   1      -6.107  74.911 114.413  0.00  0.00     0.006 C 
ENDBRANCH   8   9
BRANCH   8  11
ATOM     11  C   LIG d   1      -8.543  73.007 115.974  0.00  0.00     0.028 C 
ATOM     12  C   LIG d   1      -8.266  71.497 115.897  0.00  0.00     0.006 C 
ENDBRANCH   8  11
ENDBRANCH   7   8
ENDBRANCH   1   7
BRANCH   6  13
ATOM     13  N   LIG d   1      -5.568  76.721 118.113  0.00  0.00    -0.311 N 
ATOM     14  C   LIG d   1      -4.657  76.966 117.172  0.00  0.00     0.210 C 
ATOM     15  C   LIG d   1      -3.237  76.504 117.512  0.00  0.00     0.109 C 
ATOM     16  O   LIG d   1      -4.885  77.552 116.103  0.00  0.00    -0.276 OA
ATOM     17  H   LIG d   1      -5.290  76.270 118.962  0.00  0.00     0.149 HD
ENDBRANCH   6  13
BRANCH   5  18
ATOM     18  N   LIG d   1      -6.875  79.222 119.283  0.00  0.00     0.381 N 
ATOM     19  H   LIG d   1      -7.141  79.657 120.144  0.00  0.00    -0.090 HD
ATOM     20  H   LIG d   1      -7.183  79.806 118.526  0.00  0.00    -0.090 HD
ATOM     21  H   LIG d   1      -5.885  79.116 119.248  0.00  0.00    -0.090 HD
ENDBRANCH   5  18
BRANCH   3  22
ATOM     22  C   LIG d   1     -11.068  76.911 119.158  0.00  0.00     0.382 C 
ATOM     23  O   LIG d   1     -11.341  77.059 120.373  0.00  0.00    -0.241 OA
ATOM     24  O   LIG d   1     -11.983  76.665 118.349  0.00  0.00    -0.241 OA
ENDBRANCH   3  22
TORSDOF 7
ENDMDL
MODEL 3
REMARK VINA RESULT:      -6.0     16.006     18.148
REMARK  7 active torsions:
REMARK  status: ('A' for Active; 'I' for Inactive)
REMARK    1  A    between atoms: C_2  and  C_3 
REMARK    2  A    between atoms: C_3  and  O_6 
REMARK    3  A    between atoms: C_3  and  C_4 
REMARK    4  A    between atoms: C_7  and  O_6 
REMARK    5  A    between atoms: C_9  and  C_10 
REMARK    6  A    between atoms: N_15  and  C_14 
REMARK    7  A    between atoms: N_20  and  C_19 
REMARK       I    between atoms: C_22  and  N_20 
ROOT
ATOM      1  C   LIG d   1      -6.137  93.154 117.597  0.00  0.00     0.161 C 
ATOM      2  C   LIG d   1      -7.459  92.934 117.178  0.00  0.00     0.016 C 
ATOM      3  C   LIG d   1      -7.854  91.823 116.397  0.00  0.00     0.038 C 
ATOM      4  C   LIG d   1      -6.973  90.771 116.107  0.00  0.00     0.028 C 
ATOM      5  C   LIG d   1      -5.509  91.196 116.080  0.00  0.00    -0.047 C 
ATOM      6  C   LIG d   1      -5.184  91.959 117.385  0.00  0.00     0.091 C 
ENDROOT
BRANCH   1   7
ATOM      7  O   LIG d   1      -6.123  93.566 118.978  0.00  0.00    -0.368 OA
BRANCH   7   8
ATOM      8  C   LIG d   1      -7.356  94.132 119.486  0.00  0.00     0.119 C 
BRANCH   8   9
ATOM      9  C   LIG d   1      -7.083  95.612 119.820  0.00  0.00     0.028 C 
ATOM     10  C   LIG d   1      -7.236  96.528 118.595  0.00  0.00     0.006 C 
ENDBRANCH   8   9
BRANCH   8  11
ATOM     11  C   LIG d   1      -7.762  93.485 120.814  0.00  0.00     0.028 C 
ATOM     12  C   LIG d   1      -6.749  92.435 121.299  0.00  0.00     0.006 C 
ENDBRANCH   8  11
ENDBRANCH   7   8
ENDBRANCH   1   7
BRANCH   6  13
ATOM     13  N   LIG d   1      -3.793  92.484 117.403  0.00  0.00    -0.311 N 
ATOM     14  C   LIG d   1      -2.920  92.214 118.372  0.00  0.00     0.210 C 
ATOM     15  C   LIG d   1      -1.547  92.872 118.207  0.00  0.00     0.109 C 
ATOM     16  O   LIG d   1      -3.143  91.466 119.336  0.00  0.00    -0.276 OA
ATOM     17  H   LIG d   1      -3.519  93.074 116.642  0.00  0.00     0.149 HD
ENDBRANCH   6  13
BRANCH   5  18
ATOM     18  N   LIG d   1      -4.694  89.979 115.904  0.00  0.00     0.381 N 
ATOM     19  H   LIG d   1      -4.216  89.765 116.757  0.00  0.00    -0.090 HD
ATOM     20  H   LIG d   1      -4.008  90.147 115.191  0.00  0.00    -0.090 HD
ATOM     21  H   LIG d   1      -5.277  89.214 115.641  0.00  0.00    -0.090 HD
ENDBRANCH   5  18
BRANCH   3  22
ATOM     22  C   LIG d   1      -9.133  91.778 115.864  0.00  0.00     0.382 C 
ATOM     23  O   LIG d   1      -9.533  90.741 115.282  0.00  0.00    -0.241 OA
ATOM     24  O   LIG d   1      -9.875  92.777 115.917  0.00  0.00    -0.241 OA
ENDBRANCH   3  22
TORSDOF 7
ENDMDL
MODEL 4
REMARK VINA RESULT:      -5.8      1.783      4.604
REMARK  7 active torsions:
REMARK  status: ('A' for Active; 'I' for Inactive)
REMARK    1  A    between atoms: C_2  and  C_3 
REMARK    2  A    between atoms: C_3  and  O_6 
REMARK    3  A    between atoms: C_3  and  C_4 
REMARK    4  A    between atoms: C_7  and  O_6 
REMARK    5  A    between atoms: C_9  and  C_10 
REMARK    6  A    between atoms: N_15  and  C_14 
REMARK    7  A    between atoms: N_20  and  C_19 
REMARK       I    between atoms: C_22  and  N_20 
ROOT
ATOM      1  C   LIG d   1      -7.119  75.202 116.915  0.00  0.00     0.161 C 
ATOM      2  C   LIG d   1      -6.956  73.904 116.402  0.00  0.00     0.016 C 
ATOM      3  C   LIG d   1      -8.038  73.054 116.078  0.00  0.00     0.038 C 
ATOM      4  C   LIG d   1      -9.367  73.502 116.103  0.00  0.00     0.028 C 
ATOM      5  C   LIG d   1      -9.605  74.636 117.094  0.00  0.00    -0.047 C 
ATOM      6  C   LIG d   1      -8.561  75.748 116.845  0.00  0.00     0.091 C 
ENDROOT
BRANCH   1   7
ATOM      7  O   LIG d   1      -6.208  76.105 116.259  0.00  0.00    -0.368 OA
BRANCH   7   8
ATOM      8  C   LIG d   1      -4.860  75.614 116.055  0.00  0.00     0.119 C 
BRANCH   8   9
ATOM      9  C   LIG d   1      -3.927  76.428 116.973  0.00  0.00     0.028 C 
ATOM     10  C   LIG d   1      -4.702  77.241 118.025  0.00  0.00     0.006 C 
ENDBRANCH   8   9
BRANCH   8  11
ATOM     11  C   LIG d   1      -4.374  75.895 114.630  0.00  0.00     0.028 C 
ATOM     12  C   LIG d   1      -5.420  75.537 113.563  0.00  0.00     0.006 C 
ENDBRANCH   8  11
ENDBRANCH   7   8
ENDBRANCH   1   7
BRANCH   6  13
ATOM     13  N   LIG d   1      -8.669  76.859 117.826  0.00  0.00    -0.311 N 
ATOM     14  C   LIG d   1      -8.489  76.699 119.136  0.00  0.00     0.210 C 
ATOM     15  C   LIG d   1      -8.667  77.970 119.973  0.00  0.00     0.109 C 
ATOM     16  O   LIG d   1      -8.168  75.632 119.681  0.00  0.00    -0.276 OA
ATOM     17  H   LIG d   1      -8.896  77.765 117.467  0.00  0.00     0.149 HD
ENDBRANCH   6  13
BRANCH   5  18
ATOM     18  N   LIG d   1     -10.995  75.098 116.918  0.00  0.00     0.381 N 
ATOM     19  H   LIG d   1     -11.008  75.927 116.358  0.00  0.00    -0.090 HD
ATOM     20  H   LIG d   1     -11.380  75.321 117.819  0.00  0.00    -0.090 HD
ATOM     21  H   LIG d   1     -11.538  74.386 116.482  0.00  0.00    -0.090 HD
ENDBRANCH   5  18
BRANCH   3  22
ATOM     22  C   LIG d   1      -7.797  71.725 115.762  0.00  0.00     0.382 C 
ATOM     23  O   LIG d   1      -6.843  71.424 115.004  0.00  0.00    -0.241 OA
ATOM     24  O   LIG d   1      -8.548  70.828 116.188  0.00  0.00    -0.241 OA
ENDBRANCH   3  22
TORSDOF 7
ENDMDL
MODEL 5
REMARK VINA RESULT:      -5.6     16.104     18.143
REMARK  7 active torsions:
REMARK  status: ('A' for Active; 'I' for Inactive)
REMARK    1  A    between atoms: C_2  and  C_3 
REMARK    2  A    between atoms: C_3  and  O_6 
REMARK    3  A    between atoms: C_3  and  C_4 
REMARK    4  A    between atoms: C_7  and  O_6 
REMARK    5  A    between atoms: C_9  and  C_10 
REMARK    6  A    between atoms: N_15  and  C_14 
REMARK    7  A    between atoms: N_20  and  C_19 
REMARK       I    between atoms: C_22  and  N_20 
ROOT
ATOM      1  C   LIG d   1      -6.135  92.331 118.069  0.00  0.00     0.161 C 
ATOM      2  C   LIG d   1      -5.690  91.322 117.199  0.00  0.00     0.016 C 
ATOM      3  C   LIG d   1      -6.409  90.909 116.053  0.00  0.00     0.038 C 
ATOM      4  C   LIG d   1      -7.557  91.586 115.615  0.00  0.00     0.028 C 
ATOM      5  C   LIG d   1      -8.316  92.282 116.739  0.00  0.00    -0.047 C 
ATOM      6  C   LIG d   1      -7.329  93.156 117.546  0.00  0.00     0.091 C 
ENDROOT
BRANCH   1   7
ATOM      7  O   LIG d   1      -5.037  93.200 118.412  0.00  0.00    -0.368 OA
BRANCH   7   8
ATOM      8  C   LIG d   1      -4.375  92.923 119.671  0.00  0.00     0.119 C 
BRANCH   8   9
ATOM      9  C   LIG d   1      -4.698  94.085 120.630  0.00  0.00     0.028 C 
ATOM     10  C   LIG d   1      -4.312  95.454 120.044  0.00  0.00     0.006 C 
ENDBRANCH   8   9
BRANCH   8  11
ATOM     11  C   LIG d   1      -2.851  92.938 119.513  0.00  0.00     0.028 C 
ATOM     12  C   LIG d   1      -2.405  93.048 118.047  0.00  0.00     0.006 C 
ENDBRANCH   8  11
ENDBRANCH   7   8
ENDBRANCH   1   7
BRANCH   6  13
ATOM     13  N   LIG d   1      -7.974  93.807 118.716  0.00  0.00    -0.311 N 
ATOM     14  C   LIG d   1      -7.884  95.111 118.972  0.00  0.00     0.210 C 
ATOM     15  C   LIG d   1      -8.606  95.572 120.242  0.00  0.00     0.109 C 
ATOM     16  O   LIG d   1      -7.301  95.934 118.251  0.00  0.00    -0.276 OA
ATOM     17  H   LIG d   1      -8.493  93.217 119.337  0.00  0.00     0.149 HD
ENDBRANCH   6  13
BRANCH   5  18
ATOM     18  N   LIG d   1      -9.409  93.060 116.125  0.00  0.00     0.381 N 
ATOM     19  H   LIG d   1      -9.406  92.923 115.134  0.00  0.00    -0.090 HD
ATOM     20  H   LIG d   1      -9.255  94.036 116.308  0.00  0.00    -0.090 HD
ATOM     21  H   LIG d   1     -10.285  92.777 116.504  0.00  0.00    -0.090 HD
ENDBRANCH   5  18
BRANCH   3  22
ATOM     22  C   LIG d   1      -6.003  89.782 115.356  0.00  0.00     0.382 C 
ATOM     23  O   LIG d   1      -6.587  89.457 114.294  0.00  0.00    -0.241 OA
ATOM     24  O   LIG d   1      -5.088  89.061 115.799  0.00  0.00    -0.241 OA
ENDBRANCH   3  22
TORSDOF 7
ENDMDL
MODEL 6
REMARK VINA RESULT:      -5.5      2.503      5.941
REMARK  7 active torsions:
REMARK  status: ('A' for Active; 'I' for Inactive)
REMARK    1  A    between atoms: C_2  and  C_3 
REMARK    2  A    between atoms: C_3  and  O_6 
REMARK    3  A    between atoms: C_3  and  C_4 
REMARK    4  A    between atoms: C_7  and  O_6 
REMARK    5  A    between atoms: C_9  and  C_10 
REMARK    6  A    between atoms: N_15  and  C_14 
REMARK    7  A    between atoms: N_20  and  C_19 
REMARK       I    between atoms: C_22  and  N_20 
ROOT
ATOM      1  C   LIG d   1      -6.919  76.288 117.180  0.00  0.00     0.161 C 
ATOM      2  C   LIG d   1      -7.667  77.260 117.865  0.00  0.00     0.016 C 
ATOM      3  C   LIG d   1      -9.041  77.116 118.166  0.00  0.00     0.038 C 
ATOM      4  C   LIG d   1      -9.729  75.915 117.935  0.00  0.00     0.028 C 
ATOM      5  C   LIG d   1      -9.145  75.094 116.790  0.00  0.00    -0.047 C 
ATOM      6  C   LIG d   1      -7.625  74.925 117.018  0.00  0.00     0.091 C 
ENDROOT
BRANCH   1   7
ATOM      7  O   LIG d   1      -5.639  76.116 117.820  0.00  0.00    -0.368 OA
BRANCH   7   8
ATOM      8  C   LIG d   1      -4.514  76.763 117.178  0.00  0.00     0.119 C 
BRANCH   8   9
ATOM      9  C   LIG d   1      -3.878  75.741 116.215  0.00  0.00     0.028 C 
ATOM     10  C   LIG d   1      -3.770  76.277 114.778  0.00  0.00     0.006 C 
ENDBRANCH   8   9
BRANCH   8  11
ATOM     11  C   LIG d   1      -3.415  77.105 118.189  0.00  0.00     0.028 C 
ATOM     12  C   LIG d   1      -3.913  78.012 119.325  0.00  0.00     0.006 C 
ENDBRANCH   8  11
ENDBRANCH   7   8
ENDBRANCH   1   7
BRANCH   6  13
ATOM     13  N   LIG d   1      -6.961  74.205 115.900  0.00  0.00    -0.311 N 
ATOM     14  C   LIG d   1      -6.771  72.887 115.888  0.00  0.00     0.210 C 
ATOM     15  C   LIG d   1      -6.048  72.349 114.649  0.00  0.00     0.109 C 
ATOM     16  O   LIG d   1      -7.162  72.107 116.770  0.00  0.00    -0.276 OA
ATOM     17  H   LIG d   1      -6.641  74.756 115.129  0.00  0.00     0.149 HD
ENDBRANCH   6  13
BRANCH   5  18
ATOM     18  N   LIG d   1      -9.869  73.810 116.748  0.00  0.00     0.381 N 
ATOM     19  H   LIG d   1      -9.426  73.192 116.098  0.00  0.00    -0.090 HD
ATOM     20  H   LIG d   1     -10.809  73.977 116.434  0.00  0.00    -0.090 HD
ATOM     21  H   LIG d   1      -9.883  73.396 117.655  0.00  0.00    -0.090 HD
ENDBRANCH   5  18
BRANCH   3  22
ATOM     22  C   LIG d   1      -9.751  78.195 118.670  0.00  0.00     0.382 C 
ATOM     23  O   LIG d   1      -9.154  79.263 118.947  0.00  0.00    -0.241 OA
ATOM     24  O   LIG d   1     -10.973  78.099 118.892  0.00  0.00    -0.241 OA
ENDBRANCH   3  22
TORSDOF 7
ENDMDL
MODEL 7
REMARK VINA RESULT:      -5.4      1.737      2.266
REMARK  7 active torsions:
REMARK  status: ('A' for Active; 'I' for Inactive)
REMARK    1  A    between atoms: C_2  and  C_3 
REMARK    2  A    between atoms: C_3  and  O_6 
REMARK    3  A    between atoms: C_3  and  C_4 
REMARK    4  A    between atoms: C_7  and  O_6 
REMARK    5  A    between atoms: C_9  and  C_10 
REMARK    6  A    between atoms: N_15  and  C_14 
REMARK    7  A    between atoms: N_20  and  C_19 
REMARK       I    between atoms: C_22  and  N_20 
ROOT
ATOM      1  C   LIG d   1      -7.226  76.352 116.876  0.00  0.00     0.161 C 
ATOM      2  C   LIG d   1      -6.715  75.783 115.698  0.00  0.00     0.016 C 
ATOM      3  C   LIG d   1      -5.341  75.780 115.367  0.00  0.00     0.038 C 
ATOM      4  C   LIG d   1      -4.360  76.216 116.271  0.00  0.00     0.028 C 
ATOM      5  C   LIG d   1      -4.868  77.260 117.260  0.00  0.00    -0.047 C 
ATOM      6  C   LIG d   1      -6.160  76.733 117.925  0.00  0.00     0.091 C 
ENDROOT
BRANCH   1   7
ATOM      7  O   LIG d   1      -8.209  75.473 117.457  0.00  0.00    -0.368 OA
BRANCH   7   8
ATOM      8  C   LIG d   1      -9.589  75.735 117.101  0.00  0.00     0.119 C 
BRANCH   8   9
ATOM      9  C   LIG d   1     -10.329  76.144 118.389  0.00  0.00     0.028 C 
ATOM     10  C   LIG d   1     -10.085  77.615 118.765  0.00  0.00     0.006 C 
ENDBRANCH   8   9
BRANCH   8  11
ATOM     11  C   LIG d   1     -10.290  74.463 116.616  0.00  0.00     0.028 C 
ATOM     12  C   LIG d   1      -9.316  73.299 116.376  0.00  0.00     0.006 C 
ENDBRANCH   8  11
ENDBRANCH   7   8
ENDBRANCH   1   7
BRANCH   6  13
ATOM     13  N   LIG d   1      -6.770  77.728 118.845  0.00  0.00    -0.311 N 
ATOM     14  C   LIG d   1      -6.447  77.829 120.134  0.00  0.00     0.210 C 
ATOM     15  C   LIG d   1      -7.210  78.909 120.908  0.00  0.00     0.109 C 
ATOM     16  O   LIG d   1      -5.579  77.150 120.701  0.00  0.00    -0.276 OA
ATOM     17  H   LIG d   1      -7.462  78.341 118.461  0.00  0.00     0.149 HD
ENDBRANCH   6  13
BRANCH   5  18
ATOM     18  N   LIG d   1      -3.785  77.522 118.226  0.00  0.00     0.381 N 
ATOM     19  H   LIG d   1      -3.946  77.001 119.065  0.00  0.00    -0.090 HD
ATOM     20  H   LIG d   1      -3.787  78.500 118.458  0.00  0.00    -0.090 HD
ATOM     21  H   LIG d   1      -2.907  77.268 117.832  0.00  0.00    -0.090 HD
ENDBRANCH   5  18
BRANCH   3  22
ATOM     22  C   LIG d   1      -4.938  75.375 114.104  0.00  0.00     0.382 C 
ATOM     23  O   LIG d   1      -4.736  74.158 113.871  0.00  0.00    -0.241 OA
ATOM     24  O   LIG d   1      -4.733  76.214 113.206  0.00  0.00    -0.241 OA
ENDBRANCH   3  22
TORSDOF 7
ENDMDL
MODEL 8
REMARK VINA RESULT:      -5.3      2.461      5.624
REMARK  7 active torsions:
REMARK  status: ('A' for Active; 'I' for Inactive)
REMARK    1  A    between atoms: C_2  and  C_3 
REMARK    2  A    between atoms: C_3  and  O_6 
REMARK    3  A    between atoms: C_3  and  C_4 
REMARK    4  A    between atoms: C_7  and  O_6 
REMARK    5  A    between atoms: C_9  and  C_10 
REMARK    6  A    between atoms: N_15  and  C_14 
REMARK    7  A    between atoms: N_20  and  C_19 
REMARK       I    between atoms: C_22  and  N_20 
ROOT
ATOM      1  C   LIG d   1      -6.755  76.442 116.289  0.00  0.00     0.161 C 
ATOM      2  C   LIG d   1      -8.004  75.880 116.601  0.00  0.00     0.016 C 
ATOM      3  C   LIG d   1      -8.286  74.499 116.488  0.00  0.00     0.038 C 
ATOM      4  C   LIG d   1      -7.286  73.559 116.197  0.00  0.00     0.028 C 
ATOM      5  C   LIG d   1      -6.132  74.135 115.383  0.00  0.00    -0.047 C 
ATOM      6  C   LIG d   1      -5.620  75.418 116.077  0.00  0.00     0.091 C 
ENDROOT
BRANCH   1   7
ATOM      7  O   LIG d   1      -6.384  77.399 117.300  0.00  0.00    -0.368 OA
BRANCH   7   8
ATOM      8  C   LIG d   1      -7.354  77.623 118.353  0.00  0.00     0.119 C 
BRANCH   8   9
ATOM      9  C   LIG d   1      -7.686  79.128 118.364  0.00  0.00     0.028 C 
ATOM     10  C   LIG d   1      -9.158  79.401 118.715  0.00  0.00     0.006 C 
ENDBRANCH   8   9
BRANCH   8  11
ATOM     11  C   LIG d   1      -6.757  77.329 119.732  0.00  0.00     0.028 C 
ATOM     12  C   LIG d   1      -7.616  76.359 120.559  0.00  0.00     0.006 C 
ENDBRANCH   8  11
ENDBRANCH   7   8
ENDBRANCH   1   7
BRANCH   6  13
ATOM     13  N   LIG d   1      -4.546  76.092 115.301  0.00  0.00    -0.311 N 
ATOM     14  C   LIG d   1      -3.252  75.817 115.450  0.00  0.00     0.210 C 
ATOM     15  C   LIG d   1      -2.310  76.640 114.566  0.00  0.00     0.109 C 
ATOM     16  O   LIG d   1      -2.796  74.946 116.207  0.00  0.00    -0.276 OA
ATOM     17  H   LIG d   1      -4.829  76.790 114.642  0.00  0.00     0.149 HD
ENDBRANCH   6  13
BRANCH   5  18
ATOM     18  N   LIG d   1      -5.100  73.087 115.271  0.00  0.00     0.381 N 
ATOM     19  H   LIG d   1      -4.264  73.384 115.735  0.00  0.00    -0.090 HD
ATOM     20  H   LIG d   1      -4.887  72.944 114.299  0.00  0.00    -0.090 HD
ATOM     21  H   LIG d   1      -5.430  72.239 115.675  0.00  0.00    -0.090 HD
ENDBRANCH   5  18
BRANCH   3  22
ATOM     22  C   LIG d   1      -9.591  74.050 116.628  0.00  0.00     0.382 C 
ATOM     23  O   LIG d   1      -9.820  72.826 116.778  0.00  0.00    -0.241 OA
ATOM     24  O   LIG d   1     -10.544  74.849 116.561  0.00  0.00    -0.241 OA
ENDBRANCH   3  22
TORSDOF 7
ENDMDL
MODEL 9
REMARK VINA RESULT:      -5.2      2.960      4.977
REMARK  7 active torsions:
REMARK  status: ('A' for Active; 'I' for Inactive)
REMARK    1  A    between atoms: C_2  and  C_3 
REMARK    2  A    between atoms: C_3  and  O_6 
REMARK    3  A    between atoms: C_3  and  C_4 
REMARK    4  A    between atoms: C_7  and  O_6 
REMARK    5  A    between atoms: C_9  and  C_10 
REMARK    6  A    between atoms: N_15  and  C_14 
REMARK    7  A    between atoms: N_20  and  C_19 
REMARK       I    between atoms: C_22  and  N_20 
ROOT
ATOM      1  C   LIG d   1      -7.269  77.379 117.866  0.00  0.00     0.161 C 
ATOM      2  C   LIG d   1      -6.383  77.049 116.827  0.00  0.00     0.016 C 
ATOM      3  C   LIG d   1      -6.599  75.975 115.932  0.00  0.00     0.038 C 
ATOM      4  C   LIG d   1      -7.799  75.248 115.923  0.00  0.00     0.028 C 
ATOM      5  C   LIG d   1      -8.501  75.220 117.276  0.00  0.00    -0.047 C 
ATOM      6  C   LIG d   1      -8.637  76.667 117.801  0.00  0.00     0.091 C 
ENDROOT
BRANCH   1   7
ATOM      7  O   LIG d   1      -7.450  78.808 117.917  0.00  0.00    -0.368 OA
BRANCH   7   8
ATOM      8  C   LIG d   1      -7.892  79.350 119.186  0.00  0.00     0.119 C 
BRANCH   8   9
ATOM      9  C   LIG d   1      -8.647  80.661 118.893  0.00  0.00     0.028 C 
ATOM     10  C   LIG d   1     -10.168  80.454 118.801  0.00  0.00     0.006 C 
ENDBRANCH   8   9
BRANCH   8  11
ATOM     11  C   LIG d   1      -6.703  79.754 120.063  0.00  0.00     0.028 C 
ATOM     12  C   LIG d   1      -6.857  81.160 120.665  0.00  0.00     0.006 C 
ENDBRANCH   8  11
ENDBRANCH   7   8
ENDBRANCH   1   7
BRANCH   6  13
ATOM     13  N   LIG d   1      -9.238  76.724 119.159  0.00  0.00    -0.311 N 
ATOM     14  C   LIG d   1     -10.546  76.847 119.377  0.00  0.00     0.210 C 
ATOM     15  C   LIG d   1     -10.953  76.906 120.853  0.00  0.00     0.109 C 
ATOM     16  O   LIG d   1     -11.411  76.882 118.489  0.00  0.00    -0.276 OA
ATOM     17  H   LIG d   1      -8.611  76.671 119.938  0.00  0.00     0.149 HD
ENDBRANCH   6  13
BRANCH   5  18
ATOM     18  N   LIG d   1      -9.801  74.548 117.090  0.00  0.00     0.381 N 
ATOM     19  H   LIG d   1      -9.984  74.430 116.113  0.00  0.00    -0.090 HD
ATOM     20  H   LIG d   1     -10.525  75.127 117.478  0.00  0.00    -0.090 HD
ATOM     21  H   LIG d   1      -9.795  73.662 117.544  0.00  0.00    -0.090 HD
ENDBRANCH   5  18
BRANCH   3  22
ATOM     22  C   LIG d   1      -5.591  75.593 115.061  0.00  0.00     0.382 C 
ATOM     23  O   LIG d   1      -4.777  76.447 114.631  0.00  0.00    -0.241 OA
ATOM     24  O   LIG d   1      -5.511  74.415 114.664  0.00  0.00    -0.241 OA
ENDBRANCH   3  22
TORSDOF 7
ENDMDL
