MODEL 1
REMARK VINA RESULT:      -4.8      0.000      0.000
REMARK  7 active torsions:
REMARK  status: ('A' for Active; 'I' for Inactive)
REMARK    1  A    between atoms: C_2  and  C_3 
REMARK    2  A    between atoms: C_3  and  O_6 
REMARK    3  A    between atoms: C_3  and  C_4 
REMARK    4  A    between atoms: C_7  and  O_6 
REMARK    5  A    between atoms: C_9  and  C_10 
REMARK    6  A    between atoms: N_15  and  C_14 
REMARK    7  A    between atoms: N_20  and  C_19 
REMARK       I    between atoms: C_22  and  N_20 
ROOT
ATOM      1  C   LIG d   1      -7.801  92.980 120.994  0.00  0.00     0.161 C 
ATOM      2  C   LIG d   1      -7.728  91.920 121.913  0.00  0.00     0.016 C 
ATOM      3  C   LIG d   1      -8.519  91.849 123.083  0.00  0.00     0.038 C 
ATOM      4  C   LIG d   1      -9.551  92.764 123.337  0.00  0.00     0.028 C 
ATOM      5  C   LIG d   1      -9.321  94.129 122.696  0.00  0.00    -0.047 C 
ATOM      6  C   LIG d   1      -8.999  93.931 121.197  0.00  0.00     0.091 C 
ENDROOT
BRANCH   1   7
ATOM      7  O   LIG d   1      -7.795  92.461 119.649  0.00  0.00    -0.368 OA
BRANCH   7   8
ATOM      8  C   LIG d   1      -6.493  92.296 119.035  0.00  0.00     0.119 C 
BRANCH   8   9
ATOM      9  C   LIG d   1      -6.065  93.668 118.481  0.00  0.00     0.028 C 
ATOM     10  C   LIG d   1      -4.857  94.253 119.231  0.00  0.00     0.006 C 
ENDBRANCH   8   9
BRANCH   8  11
ATOM     11  C   LIG d   1      -6.565  91.371 117.817  0.00  0.00     0.028 C 
ATOM     12  C   LIG d   1      -5.189  91.110 117.185  0.00  0.00     0.006 C 
ENDBRANCH   8  11
ENDBRANCH   7   8
ENDBRANCH   1   7
BRANCH   6  13
ATOM     13  N   LIG d   1      -8.678  95.211 120.513  0.00  0.00    -0.311 N 
ATOM     14  C   LIG d   1      -9.164  95.545 119.319  0.00  0.00     0.210 C 
ATOM     15  C   LIG d   1      -8.691  96.901 118.785  0.00  0.00     0.109 C 
ATOM     16  O   LIG d   1      -9.968  94.863 118.666  0.00  0.00    -0.276 OA
ATOM     17  H   LIG d   1      -8.057  95.838 120.986  0.00  0.00     0.149 HD
ENDBRANCH   6  13
BRANCH   5  18
ATOM     18  N   LIG d   1     -10.533  94.938 122.925  0.00  0.00     0.381 N 
ATOM     19  H   LIG d   1     -10.336  95.664 123.584  0.00  0.00    -0.090 HD
ATOM     20  H   LIG d   1     -11.250  94.348 123.309  0.00  0.00    -0.090 HD
ATOM     21  H   LIG d   1     -10.845  95.335 122.066  0.00  0.00    -0.090 HD
ENDBRANCH   5  18
BRANCH   3  22
ATOM     22  C   LIG d   1      -8.253  90.875 124.034  0.00  0.00     0.382 C 
ATOM     23  O   LIG d   1      -8.530  89.674 123.796  0.00  0.00    -0.241 OA
ATOM     24  O   LIG d   1      -7.782  91.187 125.144  0.00  0.00    -0.241 OA
ENDBRANCH   3  22
TORSDOF 7
ENDMDL
MODEL 2
REMARK VINA RESULT:      -4.8     18.246     20.248
REMARK  7 active torsions:
REMARK  status: ('A' for Active; 'I' for Inactive)
REMARK    1  A    between atoms: C_2  and  C_3 
REMARK    2  A    between atoms: C_3  and  O_6 
REMARK    3  A    between atoms: C_3  and  C_4 
REMARK    4  A    between atoms: C_7  and  O_6 
REMARK    5  A    between atoms: C_9  and  C_10 
REMARK    6  A    between atoms: N_15  and  C_14 
REMARK    7  A    between atoms: N_20  and  C_19 
REMARK       I    between atoms: C_22  and  N_20 
ROOT
ATOM      1  C   LIG d   1     -18.044  75.962 120.373  0.00  0.00     0.161 C 
ATOM      2  C   LIG d   1     -18.906  76.869 119.734  0.00  0.00     0.016 C 
ATOM      3  C   LIG d   1     -18.995  78.236 120.084  0.00  0.00     0.038 C 
ATOM      4  C   LIG d   1     -18.113  78.825 121.002  0.00  0.00     0.028 C 
ATOM      5  C   LIG d   1     -17.568  77.844 122.035  0.00  0.00    -0.047 C 
ATOM      6  C   LIG d   1     -16.995  76.611 121.301  0.00  0.00     0.091 C 
ENDROOT
BRANCH   1   7
ATOM      7  O   LIG d   1     -17.397  75.128 119.391  0.00  0.00    -0.368 OA
BRANCH   7   8
ATOM      8  C   LIG d   1     -18.087  73.903 119.042  0.00  0.00     0.119 C 
BRANCH   8   9
ATOM      9  C   LIG d   1     -18.634  73.291 120.346  0.00  0.00     0.028 C 
ATOM     10  C   LIG d   1     -20.158  73.090 120.306  0.00  0.00     0.006 C 
ENDBRANCH   8   9
BRANCH   8  11
ATOM     11  C   LIG d   1     -17.118  72.859 118.479  0.00  0.00     0.028 C 
ATOM     12  C   LIG d   1     -17.094  71.563 119.305  0.00  0.00     0.006 C 
ENDBRANCH   8  11
ENDBRANCH   7   8
ENDBRANCH   1   7
BRANCH   6  13
ATOM     13  N   LIG d   1     -16.517  75.563 122.241  0.00  0.00    -0.311 N 
ATOM     14  C   LIG d   1     -15.251  75.459 122.640  0.00  0.00     0.210 C 
ATOM     15  C   LIG d   1     -14.968  74.296 123.596  0.00  0.00     0.109 C 
ATOM     16  O   LIG d   1     -14.341  76.239 122.319  0.00  0.00    -0.276 OA
ATOM     17  H   LIG d   1     -17.195  74.907 122.576  0.00  0.00     0.149 HD
ENDBRANCH   6  13
BRANCH   5  18
ATOM     18  N   LIG d   1     -16.559  78.559 122.840  0.00  0.00     0.381 N 
ATOM     19  H   LIG d   1     -16.983  79.343 123.295  0.00  0.00    -0.090 HD
ATOM     20  H   LIG d   1     -15.839  78.900 122.229  0.00  0.00    -0.090 HD
ATOM     21  H   LIG d   1     -16.166  77.944 123.518  0.00  0.00    -0.090 HD
ENDBRANCH   5  18
BRANCH   3  22
ATOM     22  C   LIG d   1     -20.002  79.020 119.542  0.00  0.00     0.382 C 
ATOM     23  O   LIG d   1     -19.757  80.197 119.183  0.00  0.00    -0.241 OA
ATOM     24  O   LIG d   1     -21.164  78.580 119.449  0.00  0.00    -0.241 OA
ENDBRANCH   3  22
TORSDOF 7
ENDMDL
MODEL 3
REMARK VINA RESULT:      -4.8     33.783     36.048
REMARK  7 active torsions:
REMARK  status: ('A' for Active; 'I' for Inactive)
REMARK    1  A    between atoms: C_2  and  C_3 
REMARK    2  A    between atoms: C_3  and  O_6 
REMARK    3  A    between atoms: C_3  and  C_4 
REMARK    4  A    between atoms: C_7  and  O_6 
REMARK    5  A    between atoms: C_9  and  C_10 
REMARK    6  A    between atoms: N_15  and  C_14 
REMARK    7  A    between atoms: N_20  and  C_19 
REMARK       I    between atoms: C_22  and  N_20 
ROOT
ATOM      1  C   LIG d   1       1.195  58.777 118.301  0.00  0.00     0.161 C 
ATOM      2  C   LIG d   1       0.454  59.829 118.863  0.00  0.00     0.016 C 
ATOM      3  C   LIG d   1      -0.544  59.639 119.846  0.00  0.00     0.038 C 
ATOM      4  C   LIG d   1      -0.764  58.390 120.448  0.00  0.00     0.028 C 
ATOM      5  C   LIG d   1      -0.390  57.213 119.554  0.00  0.00    -0.047 C 
ATOM      6  C   LIG d   1       1.047  57.422 119.024  0.00  0.00     0.091 C 
ENDROOT
BRANCH   1   7
ATOM      7  O   LIG d   1       2.585  59.150 118.216  0.00  0.00    -0.368 OA
BRANCH   7   8
ATOM      8  C   LIG d   1       3.020  60.199 119.116  0.00  0.00     0.119 C 
BRANCH   8   9
ATOM      9  C   LIG d   1       4.072  61.042 118.370  0.00  0.00     0.028 C 
ATOM     10  C   LIG d   1       5.454  60.985 119.042  0.00  0.00     0.006 C 
ENDBRANCH   8   9
BRANCH   8  11
ATOM     11  C   LIG d   1       3.750  59.622 120.332  0.00  0.00     0.028 C 
ATOM     12  C   LIG d   1       2.901  59.663 121.612  0.00  0.00     0.006 C 
ENDBRANCH   8  11
ENDBRANCH   7   8
ENDBRANCH   1   7
BRANCH   6  13
ATOM     13  N   LIG d   1       1.461  56.357 118.074  0.00  0.00    -0.311 N 
ATOM     14  C   LIG d   1       2.482  55.531 118.298  0.00  0.00     0.210 C 
ATOM     15  C   LIG d   1       2.752  54.519 117.180  0.00  0.00     0.109 C 
ATOM     16  O   LIG d   1       3.168  55.519 119.331  0.00  0.00    -0.276 OA
ATOM     17  H   LIG d   1       0.939  56.276 117.224  0.00  0.00     0.149 HD
ENDBRANCH   6  13
BRANCH   5  18
ATOM     18  N   LIG d   1      -0.539  55.982 120.353  0.00  0.00     0.381 N 
ATOM     19  H   LIG d   1      -1.509  55.782 120.490  0.00  0.00    -0.090 HD
ATOM     20  H   LIG d   1      -0.116  56.126 121.253  0.00  0.00    -0.090 HD
ATOM     21  H   LIG d   1      -0.097  55.219 119.888  0.00  0.00    -0.090 HD
ENDBRANCH   5  18
BRANCH   3  22
ATOM     22  C   LIG d   1      -1.362  60.698 120.209  0.00  0.00     0.382 C 
ATOM     23  O   LIG d   1      -1.542  60.964 121.422  0.00  0.00    -0.241 OA
ATOM     24  O   LIG d   1      -1.958  61.363 119.341  0.00  0.00    -0.241 OA
ENDBRANCH   3  22
TORSDOF 7
ENDMDL
MODEL 4
REMARK VINA RESULT:      -4.7     13.340     15.005
REMARK  7 active torsions:
REMARK  status: ('A' for Active; 'I' for Inactive)
REMARK    1  A    between atoms: C_2  and  C_3 
REMARK    2  A    between atoms: C_3  and  O_6 
REMARK    3  A    between atoms: C_3  and  C_4 
REMARK    4  A    between atoms: C_7  and  O_6 
REMARK    5  A    between atoms: C_9  and  C_10 
REMARK    6  A    between atoms: N_15  and  C_14 
REMARK    7  A    between atoms: N_20  and  C_19 
REMARK       I    between atoms: C_22  and  N_20 
ROOT
ATOM      1  C   LIG d   1      -9.193  78.149 119.778  0.00  0.00     0.161 C 
ATOM      2  C   LIG d   1     -10.204  78.072 120.750  0.00  0.00     0.016 C 
ATOM      3  C   LIG d   1     -10.533  79.140 121.617  0.00  0.00     0.038 C 
ATOM      4  C   LIG d   1      -9.972  80.416 121.466  0.00  0.00     0.028 C 
ATOM      5  C   LIG d   1      -8.587  80.398 120.828  0.00  0.00    -0.047 C 
ATOM      6  C   LIG d   1      -8.646  79.569 119.524  0.00  0.00     0.091 C 
ENDROOT
BRANCH   1   7
ATOM      7  O   LIG d   1      -9.656  77.563 118.545  0.00  0.00    -0.368 OA
BRANCH   7   8
ATOM      8  C   LIG d   1      -9.229  76.203 118.286  0.00  0.00     0.119 C 
BRANCH   8   9
ATOM      9  C   LIG d   1      -8.129  76.260 117.208  0.00  0.00     0.028 C 
ATOM     10  C   LIG d   1      -6.726  76.012 117.787  0.00  0.00     0.006 C 
ENDBRANCH   8   9
BRANCH   8  11
ATOM     11  C   LIG d   1     -10.358  75.372 117.669  0.00  0.00     0.028 C 
ATOM     12  C   LIG d   1      -9.885  73.994 117.180  0.00  0.00     0.006 C 
ENDBRANCH   8  11
ENDBRANCH   7   8
ENDBRANCH   1   7
BRANCH   6  13
ATOM     13  N   LIG d   1      -7.314  79.430 118.880  0.00  0.00    -0.311 N 
ATOM     14  C   LIG d   1      -6.885  80.227 117.903  0.00  0.00     0.210 C 
ATOM     15  C   LIG d   1      -5.489  79.897 117.366  0.00  0.00     0.109 C 
ATOM     16  O   LIG d   1      -7.516  81.195 117.452  0.00  0.00    -0.276 OA
ATOM     17  H   LIG d   1      -6.725  78.689 119.207  0.00  0.00     0.149 HD
ENDBRANCH   6  13
BRANCH   5  18
ATOM     18  N   LIG d   1      -8.180  81.798 120.605  0.00  0.00     0.381 N 
ATOM     19  H   LIG d   1      -7.236  81.828 120.277  0.00  0.00    -0.090 HD
ATOM     20  H   LIG d   1      -8.227  82.293 121.478  0.00  0.00    -0.090 HD
ATOM     21  H   LIG d   1      -8.785  82.227 119.939  0.00  0.00    -0.090 HD
ENDBRANCH   5  18
BRANCH   3  22
ATOM     22  C   LIG d   1     -11.405  78.924 122.673  0.00  0.00     0.382 C 
ATOM     23  O   LIG d   1     -12.419  78.203 122.512  0.00  0.00    -0.241 OA
ATOM     24  O   LIG d   1     -11.214  79.476 123.773  0.00  0.00    -0.241 OA
ENDBRANCH   3  22
TORSDOF 7
ENDMDL
MODEL 5
REMARK VINA RESULT:      -4.7     33.799     35.939
REMARK  7 active torsions:
REMARK  status: ('A' for Active; 'I' for Inactive)
REMARK    1  A    between atoms: C_2  and  C_3 
REMARK    2  A    between atoms: C_3  and  O_6 
REMARK    3  A    between atoms: C_3  and  C_4 
REMARK    4  A    between atoms: C_7  and  O_6 
REMARK    5  A    between atoms: C_9  and  C_10 
REMARK    6  A    between atoms: N_15  and  C_14 
REMARK    7  A    between atoms: N_20  and  C_19 
REMARK       I    between atoms: C_22  and  N_20 
ROOT
ATOM      1  C   LIG d   1       0.835  59.113 119.682  0.00  0.00     0.161 C 
ATOM      2  C   LIG d   1       1.724  60.088 119.200  0.00  0.00     0.016 C 
ATOM      3  C   LIG d   1       2.953  59.780 118.573  0.00  0.00     0.038 C 
ATOM      4  C   LIG d   1       3.309  58.463 118.246  0.00  0.00     0.028 C 
ATOM      5  C   LIG d   1       2.679  57.420 119.164  0.00  0.00    -0.047 C 
ATOM      6  C   LIG d   1       1.155  57.670 119.235  0.00  0.00     0.091 C 
ENDROOT
BRANCH   1   7
ATOM      7  O   LIG d   1      -0.516  59.461 119.320  0.00  0.00    -0.368 OA
BRANCH   7   8
ATOM      8  C   LIG d   1      -1.213  60.341 120.236  0.00  0.00     0.119 C 
BRANCH   8   9
ATOM      9  C   LIG d   1      -0.969  59.813 121.663  0.00  0.00     0.028 C 
ATOM     10  C   LIG d   1      -1.227  60.883 122.737  0.00  0.00     0.006 C 
ENDBRANCH   8   9
BRANCH   8  11
ATOM     11  C   LIG d   1      -2.729  60.270 120.031  0.00  0.00     0.028 C 
ATOM     12  C   LIG d   1      -3.273  58.834 120.096  0.00  0.00     0.006 C 
ENDBRANCH   8  11
ENDBRANCH   7   8
ENDBRANCH   1   7
BRANCH   6  13
ATOM     13  N   LIG d   1       0.472  56.746 120.178  0.00  0.00    -0.311 N 
ATOM     14  C   LIG d   1      -0.627  56.061 119.867  0.00  0.00     0.210 C 
ATOM     15  C   LIG d   1      -1.180  55.181 120.992  0.00  0.00     0.109 C 
ATOM     16  O   LIG d   1      -1.178  56.075 118.756  0.00  0.00    -0.276 OA
ATOM     17  H   LIG d   1       0.870  56.651 121.092  0.00  0.00     0.149 HD
ENDBRANCH   6  13
BRANCH   5  18
ATOM     18  N   LIG d   1       3.021  56.090 118.628  0.00  0.00     0.381 N 
ATOM     19  H   LIG d   1       2.631  55.378 119.213  0.00  0.00    -0.090 HD
ATOM     20  H   LIG d   1       4.021  55.986 118.629  0.00  0.00    -0.090 HD
ATOM     21  H   LIG d   1       2.672  55.995 117.699  0.00  0.00    -0.090 HD
ENDBRANCH   5  18
BRANCH   3  22
ATOM     22  C   LIG d   1       3.859  60.794 118.301  0.00  0.00     0.382 C 
ATOM     23  O   LIG d   1       5.004  60.765 118.812  0.00  0.00    -0.241 OA
ATOM     24  O   LIG d   1       3.531  61.759 117.586  0.00  0.00    -0.241 OA
ENDBRANCH   3  22
TORSDOF 7
ENDMDL
MODEL 6
REMARK VINA RESULT:      -4.6     32.627     34.614
REMARK  7 active torsions:
REMARK  status: ('A' for Active; 'I' for Inactive)
REMARK    1  A    between atoms: C_2  and  C_3 
REMARK    2  A    between atoms: C_3  and  O_6 
REMARK    3  A    between atoms: C_3  and  C_4 
REMARK    4  A    between atoms: C_7  and  O_6 
REMARK    5  A    between atoms: C_9  and  C_10 
REMARK    6  A    between atoms: N_15  and  C_14 
REMARK    7  A    between atoms: N_20  and  C_19 
REMARK       I    between atoms: C_22  and  N_20 
ROOT
ATOM      1  C   LIG d   1      -0.666  59.040 121.224  0.00  0.00     0.161 C 
ATOM      2  C   LIG d   1      -1.423  58.303 120.298  0.00  0.00     0.016 C 
ATOM      3  C   LIG d   1      -2.834  58.218 120.339  0.00  0.00     0.038 C 
ATOM      4  C   LIG d   1      -3.598  58.993 121.225  0.00  0.00     0.028 C 
ATOM      5  C   LIG d   1      -2.853  59.361 122.504  0.00  0.00    -0.047 C 
ATOM      6  C   LIG d   1      -1.488  59.980 122.129  0.00  0.00     0.091 C 
ENDROOT
BRANCH   1   7
ATOM      7  O   LIG d   1       0.362  59.779 120.535  0.00  0.00    -0.368 OA
BRANCH   7   8
ATOM      8  C   LIG d   1       1.663  59.146 120.463  0.00  0.00     0.119 C 
BRANCH   8   9
ATOM      9  C   LIG d   1       2.512  59.699 121.624  0.00  0.00     0.028 C 
ATOM     10  C   LIG d   1       4.019  59.486 121.402  0.00  0.00     0.006 C 
ENDBRANCH   8   9
BRANCH   8  11
ATOM     11  C   LIG d   1       2.409  59.548 119.187  0.00  0.00     0.028 C 
ATOM     12  C   LIG d   1       1.462  59.903 118.030  0.00  0.00     0.006 C 
ENDBRANCH   8  11
ENDBRANCH   7   8
ENDBRANCH   1   7
BRANCH   6  13
ATOM     13  N   LIG d   1      -0.660  60.292 123.324  0.00  0.00    -0.311 N 
ATOM     14  C   LIG d   1      -0.715  61.454 123.971  0.00  0.00     0.210 C 
ATOM     15  C   LIG d   1       0.237  61.576 125.165  0.00  0.00     0.109 C 
ATOM     16  O   LIG d   1      -1.486  62.385 123.690  0.00  0.00    -0.276 OA
ATOM     17  H   LIG d   1      -0.029  59.581 123.639  0.00  0.00     0.149 HD
ENDBRANCH   6  13
BRANCH   5  18
ATOM     18  N   LIG d   1      -3.714  60.280 123.272  0.00  0.00     0.381 N 
ATOM     19  H   LIG d   1      -4.415  59.760 123.761  0.00  0.00    -0.090 HD
ATOM     20  H   LIG d   1      -4.174  60.905 122.633  0.00  0.00    -0.090 HD
ATOM     21  H   LIG d   1      -3.165  60.801 123.919  0.00  0.00    -0.090 HD
ENDBRANCH   5  18
BRANCH   3  22
ATOM     22  C   LIG d   1      -3.493  57.320 119.513  0.00  0.00     0.382 C 
ATOM     23  O   LIG d   1      -2.851  56.407 118.941  0.00  0.00    -0.241 OA
ATOM     24  O   LIG d   1      -4.714  57.439 119.298  0.00  0.00    -0.241 OA
ENDBRANCH   3  22
TORSDOF 7
ENDMDL
MODEL 7
REMARK VINA RESULT:      -4.5     12.370     13.934
REMARK  7 active torsions:
REMARK  status: ('A' for Active; 'I' for Inactive)
REMARK    1  A    between atoms: C_2  and  C_3 
REMARK    2  A    between atoms: C_3  and  O_6 
REMARK    3  A    between atoms: C_3  and  C_4 
REMARK    4  A    between atoms: C_7  and  O_6 
REMARK    5  A    between atoms: C_9  and  C_10 
REMARK    6  A    between atoms: N_15  and  C_14 
REMARK    7  A    between atoms: N_20  and  C_19 
REMARK       I    between atoms: C_22  and  N_20 
ROOT
ATOM      1  C   LIG d   1      -8.089  79.556 118.891  0.00  0.00     0.161 C 
ATOM      2  C   LIG d   1      -8.335  78.260 118.407  0.00  0.00     0.016 C 
ATOM      3  C   LIG d   1      -9.504  77.525 118.709  0.00  0.00     0.038 C 
ATOM      4  C   LIG d   1     -10.584  78.099 119.396  0.00  0.00     0.028 C 
ATOM      5  C   LIG d   1     -10.172  79.229 120.334  0.00  0.00    -0.047 C 
ATOM      6  C   LIG d   1      -9.304  80.240 119.551  0.00  0.00     0.091 C 
ENDROOT
BRANCH   1   7
ATOM      7  O   LIG d   1      -7.563  80.381 117.833  0.00  0.00    -0.368 OA
BRANCH   7   8
ATOM      8  C   LIG d   1      -6.163  80.740 117.941  0.00  0.00     0.119 C 
BRANCH   8   9
ATOM      9  C   LIG d   1      -5.352  79.673 117.180  0.00  0.00     0.028 C 
ATOM     10  C   LIG d   1      -4.517  78.789 118.122  0.00  0.00     0.006 C 
ENDBRANCH   8   9
BRANCH   8  11
ATOM     11  C   LIG d   1      -5.678  80.660 119.391  0.00  0.00     0.028 C 
ATOM     12  C   LIG d   1      -5.105  81.992 119.902  0.00  0.00     0.006 C 
ENDBRANCH   8  11
ENDBRANCH   7   8
ENDBRANCH   1   7
BRANCH   6  13
ATOM     13  N   LIG d   1      -8.790  81.334 120.416  0.00  0.00    -0.311 N 
ATOM     14  C   LIG d   1      -8.900  82.625 120.108  0.00  0.00     0.210 C 
ATOM     15  C   LIG d   1      -8.284  83.588 121.128  0.00  0.00     0.109 C 
ATOM     16  O   LIG d   1      -9.478  83.066 119.103  0.00  0.00    -0.276 OA
ATOM     17  H   LIG d   1      -8.334  81.067 121.266  0.00  0.00     0.149 HD
ENDBRANCH   6  13
BRANCH   5  18
ATOM     18  N   LIG d   1     -11.406  79.826 120.880  0.00  0.00     0.381 N 
ATOM     19  H   LIG d   1     -12.120  79.129 120.944  0.00  0.00    -0.090 HD
ATOM     20  H   LIG d   1     -11.722  80.547 120.255  0.00  0.00    -0.090 HD
ATOM     21  H   LIG d   1     -11.228  80.213 121.781  0.00  0.00    -0.090 HD
ENDBRANCH   5  18
BRANCH   3  22
ATOM     22  C   LIG d   1      -9.585  76.187 118.354  0.00  0.00     0.382 C 
ATOM     23  O   LIG d   1     -10.560  75.775 117.681  0.00  0.00    -0.241 OA
ATOM     24  O   LIG d   1      -8.719  75.379 118.738  0.00  0.00    -0.241 OA
ENDBRANCH   3  22
TORSDOF 7
ENDMDL
MODEL 8
REMARK VINA RESULT:      -4.5     20.324     22.305
REMARK  7 active torsions:
REMARK  status: ('A' for Active; 'I' for Inactive)
REMARK    1  A    between atoms: C_2  and  C_3 
REMARK    2  A    between atoms: C_3  and  O_6 
REMARK    3  A    between atoms: C_3  and  C_4 
REMARK    4  A    between atoms: C_7  and  O_6 
REMARK    5  A    between atoms: C_9  and  C_10 
REMARK    6  A    between atoms: N_15  and  C_14 
REMARK    7  A    between atoms: N_20  and  C_19 
REMARK       I    between atoms: C_22  and  N_20 
ROOT
ATOM      1  C   LIG d   1     -18.024  72.766 121.523  0.00  0.00     0.161 C 
ATOM      2  C   LIG d   1     -17.543  71.451 121.418  0.00  0.00     0.016 C 
ATOM      3  C   LIG d   1     -17.072  70.889 120.209  0.00  0.00     0.038 C 
ATOM      4  C   LIG d   1     -16.909  71.659 119.048  0.00  0.00     0.028 C 
ATOM      5  C   LIG d   1     -17.853  72.854 118.975  0.00  0.00    -0.047 C 
ATOM      6  C   LIG d   1     -17.750  73.656 120.293  0.00  0.00     0.091 C 
ENDROOT
BRANCH   1   7
ATOM      7  O   LIG d   1     -17.499  73.385 122.715  0.00  0.00    -0.368 OA
BRANCH   7   8
ATOM      8  C   LIG d   1     -16.105  73.776 122.669  0.00  0.00     0.119 C 
BRANCH   8   9
ATOM      9  C   LIG d   1     -15.402  73.128 123.877  0.00  0.00     0.028 C 
ATOM     10  C   LIG d   1     -14.444  71.998 123.461  0.00  0.00     0.006 C 
ENDBRANCH   8   9
BRANCH   8  11
ATOM     11  C   LIG d   1     -15.944  75.286 122.869  0.00  0.00     0.028 C 
ATOM     12  C   LIG d   1     -14.777  75.873 122.059  0.00  0.00     0.006 C 
ENDBRANCH   8  11
ENDBRANCH   7   8
ENDBRANCH   1   7
BRANCH   6  13
ATOM     13  N   LIG d   1     -18.703  74.795 120.339  0.00  0.00    -0.311 N 
ATOM     14  C   LIG d   1     -18.376  76.040 119.997  0.00  0.00     0.210 C 
ATOM     15  C   LIG d   1     -19.504  77.067 120.138  0.00  0.00     0.109 C 
ATOM     16  O   LIG d   1     -17.268  76.385 119.560  0.00  0.00    -0.276 OA
ATOM     17  H   LIG d   1     -19.634  74.598 120.653  0.00  0.00     0.149 HD
ENDBRANCH   6  13
BRANCH   5  18
ATOM     18  N   LIG d   1     -17.482  73.644 117.787  0.00  0.00     0.381 N 
ATOM     19  H   LIG d   1     -16.615  73.311 117.415  0.00  0.00    -0.090 HD
ATOM     20  H   LIG d   1     -17.360  74.604 118.059  0.00  0.00    -0.090 HD
ATOM     21  H   LIG d   1     -18.196  73.575 117.095  0.00  0.00    -0.090 HD
ENDBRANCH   5  18
BRANCH   3  22
ATOM     22  C   LIG d   1     -16.796  69.532 120.143  0.00  0.00     0.382 C 
ATOM     23  O   LIG d   1     -16.143  69.070 119.177  0.00  0.00    -0.241 OA
ATOM     24  O   LIG d   1     -17.231  68.756 121.016  0.00  0.00    -0.241 OA
ENDBRANCH   3  22
TORSDOF 7
ENDMDL
MODEL 9
REMARK VINA RESULT:      -4.5      4.728      7.247
REMARK  7 active torsions:
REMARK  status: ('A' for Active; 'I' for Inactive)
REMARK    1  A    between atoms: C_2  and  C_3 
REMARK    2  A    between atoms: C_3  and  O_6 
REMARK    3  A    between atoms: C_3  and  C_4 
REMARK    4  A    between atoms: C_7  and  O_6 
REMARK    5  A    between atoms: C_9  and  C_10 
REMARK    6  A    between atoms: N_15  and  C_14 
REMARK    7  A    between atoms: N_20  and  C_19 
REMARK       I    between atoms: C_22  and  N_20 
ROOT
ATOM      1  C   LIG d   1      -3.125  91.003 118.789  0.00  0.00     0.161 C 
ATOM      2  C   LIG d   1      -4.513  90.886 118.613  0.00  0.00     0.016 C 
ATOM      3  C   LIG d   1      -5.361  91.989 118.359  0.00  0.00     0.038 C 
ATOM      4  C   LIG d   1      -4.854  93.273 118.113  0.00  0.00     0.028 C 
ATOM      5  C   LIG d   1      -3.506  93.530 118.779  0.00  0.00    -0.047 C 
ATOM      6  C   LIG d   1      -2.539  92.380 118.414  0.00  0.00     0.091 C 
ENDROOT
BRANCH   1   7
ATOM      7  O   LIG d   1      -2.450  89.957 118.063  0.00  0.00    -0.368 OA
BRANCH   7   8
ATOM      8  C   LIG d   1      -1.569  89.108 118.839  0.00  0.00     0.119 C 
BRANCH   8   9
ATOM      9  C   LIG d   1      -0.558  88.474 117.864  0.00  0.00     0.028 C 
ATOM     10  C   LIG d   1       0.664  89.374 117.620  0.00  0.00     0.006 C 
ENDBRANCH   8   9
BRANCH   8  11
ATOM     11  C   LIG d   1      -2.331  87.930 119.455  0.00  0.00     0.028 C 
ATOM     12  C   LIG d   1      -1.401  86.803 119.931  0.00  0.00     0.006 C 
ENDBRANCH   8  11
ENDBRANCH   7   8
ENDBRANCH   1   7
BRANCH   6  13
ATOM     13  N   LIG d   1      -1.223  92.510 119.093  0.00  0.00    -0.311 N 
ATOM     14  C   LIG d   1      -0.160  93.082 118.530  0.00  0.00     0.210 C 
ATOM     15  C   LIG d   1       1.103  93.093 119.396  0.00  0.00     0.109 C 
ATOM     16  O   LIG d   1      -0.153  93.609 117.407  0.00  0.00    -0.276 OA
ATOM     17  H   LIG d   1      -1.149  92.136 120.019  0.00  0.00     0.149 HD
ENDBRANCH   6  13
BRANCH   5  18
ATOM     18  N   LIG d   1      -3.030  94.851 118.328  0.00  0.00     0.381 N 
ATOM     19  H   LIG d   1      -2.805  95.419 119.120  0.00  0.00    -0.090 HD
ATOM     20  H   LIG d   1      -3.766  95.304 117.815  0.00  0.00    -0.090 HD
ATOM     21  H   LIG d   1      -2.228  94.744 117.747  0.00  0.00    -0.090 HD
ENDBRANCH   5  18
BRANCH   3  22
ATOM     22  C   LIG d   1      -6.737  91.819 118.389  0.00  0.00     0.382 C 
ATOM     23  O   LIG d   1      -7.335  91.369 117.382  0.00  0.00    -0.241 OA
ATOM     24  O   LIG d   1      -7.393  92.151 119.395  0.00  0.00    -0.241 OA
ENDBRANCH   3  22
TORSDOF 7
ENDMDL
