MODEL 1
REMARK VINA RESULT:      -6.2      0.000      0.000
REMARK  7 active torsions:
REMARK  status: ('A' for Active; 'I' for Inactive)
REMARK    1  A    between atoms: C_2  and  C_3 
REMARK    2  A    between atoms: C_3  and  O_6 
REMARK    3  A    between atoms: C_3  and  C_4 
REMARK    4  A    between atoms: C_7  and  O_6 
REMARK    5  A    between atoms: C_9  and  C_10 
REMARK    6  A    between atoms: N_15  and  C_14 
REMARK    7  A    between atoms: N_20  and  C_19 
REMARK       I    between atoms: C_22  and  N_20 
ROOT
ATOM      1  C   LIG d   1       1.392  83.204 111.766  0.00  0.00     0.161 C 
ATOM      2  C   LIG d   1       2.484  82.873 110.946  0.00  0.00     0.016 C 
ATOM      3  C   LIG d   1       2.590  81.647 110.250  0.00  0.00     0.038 C 
ATOM      4  C   LIG d   1       1.534  80.725 110.206  0.00  0.00     0.028 C 
ATOM      5  C   LIG d   1       0.620  80.792 111.425  0.00  0.00    -0.047 C 
ATOM      6  C   LIG d   1       0.179  82.258 111.641  0.00  0.00     0.091 C 
ENDROOT
BRANCH   1   7
ATOM      7  O   LIG d   1       0.991  84.567 111.519  0.00  0.00    -0.368 OA
BRANCH   7   8
ATOM      8  C   LIG d   1       1.715  85.265 110.476  0.00  0.00     0.119 C 
BRANCH   8   9
ATOM      9  C   LIG d   1       2.256  86.574 111.084  0.00  0.00     0.028 C 
ATOM     10  C   LIG d   1       3.655  86.402 111.698  0.00  0.00     0.006 C 
ENDBRANCH   8   9
BRANCH   8  11
ATOM     11  C   LIG d   1       0.780  85.699 109.343  0.00  0.00     0.028 C 
ATOM     12  C   LIG d   1      -0.705  85.535 109.701  0.00  0.00     0.006 C 
ENDBRANCH   8  11
ENDBRANCH   7   8
ENDBRANCH   1   7
BRANCH   6  13
ATOM     13  N   LIG d   1      -0.650  82.426 112.863  0.00  0.00    -0.311 N 
ATOM     14  C   LIG d   1      -1.978  82.325 112.868  0.00  0.00     0.210 C 
ATOM     15  C   LIG d   1      -2.639  82.554 114.230  0.00  0.00     0.109 C 
ATOM     16  O   LIG d   1      -2.669  82.036 111.879  0.00  0.00    -0.276 OA
ATOM     17  H   LIG d   1      -0.168  82.632 113.716  0.00  0.00     0.149 HD
ENDBRANCH   6  13
BRANCH   5  18
ATOM     18  N   LIG d   1      -0.512  79.878 111.184  0.00  0.00     0.381 N 
ATOM     19  H   LIG d   1      -0.636  79.276 111.974  0.00  0.00    -0.090 HD
ATOM     20  H   LIG d   1      -0.305  79.308 110.383  0.00  0.00    -0.090 HD
ATOM     21  H   LIG d   1      -1.345  80.401 111.022  0.00  0.00    -0.090 HD
ENDBRANCH   5  18
BRANCH   3  22
ATOM     22  C   LIG d   1       3.780  81.315 109.621  0.00  0.00     0.382 C 
ATOM     23  O   LIG d   1       4.595  82.216 109.305  0.00  0.00    -0.241 OA
ATOM     24  O   LIG d   1       4.030  80.131 109.325  0.00  0.00    -0.241 OA
ENDBRANCH   3  22
TORSDOF 7
ENDMDL
MODEL 2
REMARK VINA RESULT:      -5.9      2.044      4.908
REMARK  7 active torsions:
REMARK  status: ('A' for Active; 'I' for Inactive)
REMARK    1  A    between atoms: C_2  and  C_3 
REMARK    2  A    between atoms: C_3  and  O_6 
REMARK    3  A    between atoms: C_3  and  C_4 
REMARK    4  A    between atoms: C_7  and  O_6 
REMARK    5  A    between atoms: C_9  and  C_10 
REMARK    6  A    between atoms: N_15  and  C_14 
REMARK    7  A    between atoms: N_20  and  C_19 
REMARK       I    between atoms: C_22  and  N_20 
ROOT
ATOM      1  C   LIG d   1       0.209  83.199 111.902  0.00  0.00     0.161 C 
ATOM      2  C   LIG d   1      -1.022  82.776 112.430  0.00  0.00     0.016 C 
ATOM      3  C   LIG d   1      -1.532  81.467 112.263  0.00  0.00     0.038 C 
ATOM      4  C   LIG d   1      -0.770  80.444 111.681  0.00  0.00     0.028 C 
ATOM      5  C   LIG d   1       0.269  80.952 110.687  0.00  0.00    -0.047 C 
ATOM      6  C   LIG d   1       1.104  82.065 111.360  0.00  0.00     0.091 C 
ENDROOT
BRANCH   1   7
ATOM      7  O   LIG d   1       0.922  83.974 112.886  0.00  0.00    -0.368 OA
BRANCH   7   8
ATOM      8  C   LIG d   1       0.784  85.412 112.787  0.00  0.00     0.119 C 
BRANCH   8   9
ATOM      9  C   LIG d   1       2.111  85.968 112.236  0.00  0.00     0.028 C 
ATOM     10  C   LIG d   1       1.985  86.454 110.782  0.00  0.00     0.006 C 
ENDBRANCH   8   9
BRANCH   8  11
ATOM     11  C   LIG d   1       0.619  86.053 114.169  0.00  0.00     0.028 C 
ATOM     12  C   LIG d   1       0.060  85.076 115.215  0.00  0.00     0.006 C 
ENDBRANCH   8  11
ENDBRANCH   7   8
ENDBRANCH   1   7
BRANCH   6  13
ATOM     13  N   LIG d   1       2.088  82.676 110.429  0.00  0.00    -0.311 N 
ATOM     14  C   LIG d   1       3.373  82.854 110.734  0.00  0.00     0.210 C 
ATOM     15  C   LIG d   1       4.211  83.520 109.638  0.00  0.00     0.109 C 
ATOM     16  O   LIG d   1       3.904  82.495 111.795  0.00  0.00    -0.276 OA
ATOM     17  H   LIG d   1       1.749  82.968 109.533  0.00  0.00     0.149 HD
ENDBRANCH   6  13
BRANCH   5  18
ATOM     18  N   LIG d   1       1.081  79.796 110.262  0.00  0.00     0.381 N 
ATOM     19  H   LIG d   1       1.988  79.847 110.682  0.00  0.00    -0.090 HD
ATOM     20  H   LIG d   1       1.195  79.828 109.264  0.00  0.00    -0.090 HD
ATOM     21  H   LIG d   1       0.631  78.948 110.526  0.00  0.00    -0.090 HD
ENDBRANCH   5  18
BRANCH   3  22
ATOM     22  C   LIG d   1      -2.834  81.183 112.646  0.00  0.00     0.382 C 
ATOM     23  O   LIG d   1      -3.057  80.283 113.491  0.00  0.00    -0.241 OA
ATOM     24  O   LIG d   1      -3.792  81.785 112.123  0.00  0.00    -0.241 OA
ENDBRANCH   3  22
TORSDOF 7
ENDMDL
MODEL 3
REMARK VINA RESULT:      -5.8      2.035      4.811
REMARK  7 active torsions:
REMARK  status: ('A' for Active; 'I' for Inactive)
REMARK    1  A    between atoms: C_2  and  C_3 
REMARK    2  A    between atoms: C_3  and  O_6 
REMARK    3  A    between atoms: C_3  and  C_4 
REMARK    4  A    between atoms: C_7  and  O_6 
REMARK    5  A    between atoms: C_9  and  C_10 
REMARK    6  A    between atoms: N_15  and  C_14 
REMARK    7  A    between atoms: N_20  and  C_19 
REMARK       I    between atoms: C_22  and  N_20 
ROOT
ATOM      1  C   LIG d   1       0.281  82.999 111.886  0.00  0.00     0.161 C 
ATOM      2  C   LIG d   1      -0.946  82.629 112.459  0.00  0.00     0.016 C 
ATOM      3  C   LIG d   1      -1.529  81.351 112.294  0.00  0.00     0.038 C 
ATOM      4  C   LIG d   1      -0.846  80.301 111.664  0.00  0.00     0.028 C 
ATOM      5  C   LIG d   1       0.175  80.774 110.634  0.00  0.00    -0.047 C 
ATOM      6  C   LIG d   1       1.094  81.831 111.288  0.00  0.00     0.091 C 
ENDROOT
BRANCH   1   7
ATOM      7  O   LIG d   1       1.074  83.719 112.850  0.00  0.00    -0.368 OA
BRANCH   7   8
ATOM      8  C   LIG d   1       1.171  85.151 112.654  0.00  0.00     0.119 C 
BRANCH   8   9
ATOM      9  C   LIG d   1       0.233  85.822 113.676  0.00  0.00     0.028 C 
ATOM     10  C   LIG d   1       0.997  86.434 114.862  0.00  0.00     0.006 C 
ENDBRANCH   8   9
BRANCH   8  11
ATOM     11  C   LIG d   1       0.635  85.563 111.280  0.00  0.00     0.028 C 
ATOM     12  C   LIG d   1       1.701  86.239 110.403  0.00  0.00     0.006 C 
ENDBRANCH   8  11
ENDBRANCH   7   8
ENDBRANCH   1   7
BRANCH   6  13
ATOM     13  N   LIG d   1       2.068  82.408 110.325  0.00  0.00    -0.311 N 
ATOM     14  C   LIG d   1       3.352  82.611 110.615  0.00  0.00     0.210 C 
ATOM     15  C   LIG d   1       4.179  83.234 109.486  0.00  0.00     0.109 C 
ATOM     16  O   LIG d   1       3.892  82.304 111.689  0.00  0.00    -0.276 OA
ATOM     17  H   LIG d   1       1.722  82.656 109.419  0.00  0.00     0.149 HD
ENDBRANCH   6  13
BRANCH   5  18
ATOM     18  N   LIG d   1       0.909  79.586 110.156  0.00  0.00     0.381 N 
ATOM     19  H   LIG d   1       0.368  78.762 110.328  0.00  0.00    -0.090 HD
ATOM     20  H   LIG d   1       1.771  79.510 110.667  0.00  0.00    -0.090 HD
ATOM     21  H   LIG d   1       1.098  79.672 109.182  0.00  0.00    -0.090 HD
ENDBRANCH   5  18
BRANCH   3  22
ATOM     22  C   LIG d   1      -2.827  81.127 112.727  0.00  0.00     0.382 C 
ATOM     23  O   LIG d   1      -3.075  80.160 113.488  0.00  0.00    -0.241 OA
ATOM     24  O   LIG d   1      -3.759  81.852 112.332  0.00  0.00    -0.241 OA
ENDBRANCH   3  22
TORSDOF 7
ENDMDL
MODEL 4
REMARK VINA RESULT:      -5.8      2.414      4.248
REMARK  7 active torsions:
REMARK  status: ('A' for Active; 'I' for Inactive)
REMARK    1  A    between atoms: C_2  and  C_3 
REMARK    2  A    between atoms: C_3  and  O_6 
REMARK    3  A    between atoms: C_3  and  C_4 
REMARK    4  A    between atoms: C_7  and  O_6 
REMARK    5  A    between atoms: C_9  and  C_10 
REMARK    6  A    between atoms: N_15  and  C_14 
REMARK    7  A    between atoms: N_20  and  C_19 
REMARK       I    between atoms: C_22  and  N_20 
ROOT
ATOM      1  C   LIG d   1      -0.138  84.168 112.689  0.00  0.00     0.161 C 
ATOM      2  C   LIG d   1       0.646  85.231 112.210  0.00  0.00     0.016 C 
ATOM      3  C   LIG d   1       1.276  85.223 110.944  0.00  0.00     0.038 C 
ATOM      4  C   LIG d   1       1.040  84.209 110.004  0.00  0.00     0.028 C 
ATOM      5  C   LIG d   1       0.661  82.874 110.636  0.00  0.00    -0.047 C 
ATOM      6  C   LIG d   1      -0.498  83.102 111.633  0.00  0.00     0.091 C 
ENDROOT
BRANCH   1   7
ATOM      7  O   LIG d   1      -1.333  84.683 113.309  0.00  0.00    -0.368 OA
BRANCH   7   8
ATOM      8  C   LIG d   1      -1.384  84.609 114.755  0.00  0.00     0.119 C 
BRANCH   8   9
ATOM      9  C   LIG d   1      -0.046  84.016 115.236  0.00  0.00     0.028 C 
ATOM     10  C   LIG d   1       0.737  84.986 116.136  0.00  0.00     0.006 C 
ENDBRANCH   8   9
BRANCH   8  11
ATOM     11  C   LIG d   1      -2.458  83.623 115.225  0.00  0.00     0.028 C 
ATOM     12  C   LIG d   1      -1.886  82.489 116.090  0.00  0.00     0.006 C 
ENDBRANCH   8  11
ENDBRANCH   7   8
ENDBRANCH   1   7
BRANCH   6  13
ATOM     13  N   LIG d   1      -0.874  81.860 112.358  0.00  0.00    -0.311 N 
ATOM     14  C   LIG d   1      -2.128  81.420 112.456  0.00  0.00     0.210 C 
ATOM     15  C   LIG d   1      -2.299  80.130 113.264  0.00  0.00     0.109 C 
ATOM     16  O   LIG d   1      -3.110  81.958 111.923  0.00  0.00    -0.276 OA
ATOM     17  H   LIG d   1      -0.135  81.344 112.794  0.00  0.00     0.149 HD
ENDBRANCH   6  13
BRANCH   5  18
ATOM     18  N   LIG d   1       0.309  81.948 109.543  0.00  0.00     0.381 N 
ATOM     19  H   LIG d   1       0.138  82.464 108.703  0.00  0.00    -0.090 HD
ATOM     20  H   LIG d   1      -0.533  81.459 109.790  0.00  0.00    -0.090 HD
ATOM     21  H   LIG d   1       1.049  81.297 109.396  0.00  0.00    -0.090 HD
ENDBRANCH   5  18
BRANCH   3  22
ATOM     22  C   LIG d   1       2.186  86.219 110.624  0.00  0.00     0.382 C 
ATOM     23  O   LIG d   1       1.841  87.424 110.677  0.00  0.00    -0.241 OA
ATOM     24  O   LIG d   1       3.334  85.927 110.240  0.00  0.00    -0.241 OA
ENDBRANCH   3  22
TORSDOF 7
ENDMDL
MODEL 5
REMARK VINA RESULT:      -5.7      1.628      1.897
REMARK  7 active torsions:
REMARK  status: ('A' for Active; 'I' for Inactive)
REMARK    1  A    between atoms: C_2  and  C_3 
REMARK    2  A    between atoms: C_3  and  O_6 
REMARK    3  A    between atoms: C_3  and  C_4 
REMARK    4  A    between atoms: C_7  and  O_6 
REMARK    5  A    between atoms: C_9  and  C_10 
REMARK    6  A    between atoms: N_15  and  C_14 
REMARK    7  A    between atoms: N_20  and  C_19 
REMARK       I    between atoms: C_22  and  N_20 
ROOT
ATOM      1  C   LIG d   1       0.821  82.869 111.960  0.00  0.00     0.161 C 
ATOM      2  C   LIG d   1       1.908  83.397 111.244  0.00  0.00     0.016 C 
ATOM      3  C   LIG d   1       2.540  82.718 110.176  0.00  0.00     0.038 C 
ATOM      4  C   LIG d   1       2.028  81.522 109.651  0.00  0.00     0.028 C 
ATOM      5  C   LIG d   1       1.237  80.704 110.667  0.00  0.00    -0.047 C 
ATOM      6  C   LIG d   1       0.179  81.615 111.330  0.00  0.00     0.091 C 
ENDROOT
BRANCH   1   7
ATOM      7  O   LIG d   1      -0.173  83.892 112.164  0.00  0.00    -0.368 OA
BRANCH   7   8
ATOM      8  C   LIG d   1       0.284  85.260 112.032  0.00  0.00     0.119 C 
BRANCH   8   9
ATOM      9  C   LIG d   1       0.291  85.885 113.440  0.00  0.00     0.028 C 
ATOM     10  C   LIG d   1       1.715  86.121 113.970  0.00  0.00     0.006 C 
ENDBRANCH   8   9
BRANCH   8  11
ATOM     11  C   LIG d   1      -0.705  86.102 111.220  0.00  0.00     0.028 C 
ATOM     12  C   LIG d   1      -0.535  85.924 109.703  0.00  0.00     0.006 C 
ENDBRANCH   8  11
ENDBRANCH   7   8
ENDBRANCH   1   7
BRANCH   6  13
ATOM     13  N   LIG d   1      -0.583  80.915 112.397  0.00  0.00    -0.311 N 
ATOM     14  C   LIG d   1      -1.901  81.030 112.552  0.00  0.00     0.210 C 
ATOM     15  C   LIG d   1      -2.485  80.240 113.727  0.00  0.00     0.109 C 
ATOM     16  O   LIG d   1      -2.647  81.686 111.809  0.00  0.00    -0.276 OA
ATOM     17  H   LIG d   1      -0.061  80.337 113.025  0.00  0.00     0.149 HD
ENDBRANCH   6  13
BRANCH   5  18
ATOM     18  N   LIG d   1       0.647  79.557 109.952  0.00  0.00     0.381 N 
ATOM     19  H   LIG d   1       1.233  78.753 110.060  0.00  0.00    -0.090 HD
ATOM     20  H   LIG d   1       0.590  79.777 108.974  0.00  0.00    -0.090 HD
ATOM     21  H   LIG d   1      -0.263  79.364 110.310  0.00  0.00    -0.090 HD
ENDBRANCH   5  18
BRANCH   3  22
ATOM     22  C   LIG d   1       3.722  83.216 109.649  0.00  0.00     0.382 C 
ATOM     23  O   LIG d   1       4.636  82.429 109.305  0.00  0.00    -0.241 OA
ATOM     24  O   LIG d   1       3.902  84.445 109.554  0.00  0.00    -0.241 OA
ENDBRANCH   3  22
TORSDOF 7
ENDMDL
MODEL 6
REMARK VINA RESULT:      -5.6      1.508      2.312
REMARK  7 active torsions:
REMARK  status: ('A' for Active; 'I' for Inactive)
REMARK    1  A    between atoms: C_2  and  C_3 
REMARK    2  A    between atoms: C_3  and  O_6 
REMARK    3  A    between atoms: C_3  and  C_4 
REMARK    4  A    between atoms: C_7  and  O_6 
REMARK    5  A    between atoms: C_9  and  C_10 
REMARK    6  A    between atoms: N_15  and  C_14 
REMARK    7  A    between atoms: N_20  and  C_19 
REMARK       I    between atoms: C_22  and  N_20 
ROOT
ATOM      1  C   LIG d   1       1.585  82.901 111.969  0.00  0.00     0.161 C 
ATOM      2  C   LIG d   1       2.664  82.603 111.120  0.00  0.00     0.016 C 
ATOM      3  C   LIG d   1       2.685  81.488 110.251  0.00  0.00     0.038 C 
ATOM      4  C   LIG d   1       1.557  80.675 110.061  0.00  0.00     0.028 C 
ATOM      5  C   LIG d   1       0.625  80.640 111.267  0.00  0.00    -0.047 C 
ATOM      6  C   LIG d   1       0.302  82.090 111.694  0.00  0.00     0.091 C 
ENDROOT
BRANCH   1   7
ATOM      7  O   LIG d   1       1.303  84.314 111.923  0.00  0.00    -0.368 OA
BRANCH   7   8
ATOM      8  C   LIG d   1       1.612  85.065 113.123  0.00  0.00     0.119 C 
BRANCH   8   9
ATOM      9  C   LIG d   1       0.322  85.783 113.564  0.00  0.00     0.028 C 
ATOM     10  C   LIG d   1      -0.232  85.233 114.889  0.00  0.00     0.006 C 
ENDBRANCH   8   9
BRANCH   8  11
ATOM     11  C   LIG d   1       2.620  86.182 112.837  0.00  0.00     0.028 C 
ATOM     12  C   LIG d   1       3.189  86.813 114.118  0.00  0.00     0.006 C 
ENDBRANCH   8  11
ENDBRANCH   7   8
ENDBRANCH   1   7
BRANCH   6  13
ATOM     13  N   LIG d   1      -0.538  82.146 112.920  0.00  0.00    -0.311 N 
ATOM     14  C   LIG d   1      -1.868  82.213 112.895  0.00  0.00     0.210 C 
ATOM     15  C   LIG d   1      -2.537  82.283 114.271  0.00  0.00     0.109 C 
ATOM     16  O   LIG d   1      -2.558  82.189 111.865  0.00  0.00    -0.276 OA
ATOM     17  H   LIG d   1      -0.061  82.139 113.800  0.00  0.00     0.149 HD
ENDBRANCH   6  13
BRANCH   5  18
ATOM     18  N   LIG d   1      -0.573  79.869 110.883  0.00  0.00     0.381 N 
ATOM     19  H   LIG d   1      -1.010  80.296 110.091  0.00  0.00    -0.090 HD
ATOM     20  H   LIG d   1      -1.225  79.880 111.647  0.00  0.00    -0.090 HD
ATOM     21  H   LIG d   1      -0.319  78.930 110.666  0.00  0.00    -0.090 HD
ENDBRANCH   5  18
BRANCH   3  22
ATOM     22  C   LIG d   1       3.857  81.153 109.591  0.00  0.00     0.382 C 
ATOM     23  O   LIG d   1       4.101  79.953 109.317  0.00  0.00    -0.241 OA
ATOM     24  O   LIG d   1       4.694  82.030 109.306  0.00  0.00    -0.241 OA
ENDBRANCH   3  22
TORSDOF 7
ENDMDL
MODEL 7
REMARK VINA RESULT:      -5.4      2.676      5.018
REMARK  7 active torsions:
REMARK  status: ('A' for Active; 'I' for Inactive)
REMARK    1  A    between atoms: C_2  and  C_3 
REMARK    2  A    between atoms: C_3  and  O_6 
REMARK    3  A    between atoms: C_3  and  C_4 
REMARK    4  A    between atoms: C_7  and  O_6 
REMARK    5  A    between atoms: C_9  and  C_10 
REMARK    6  A    between atoms: N_15  and  C_14 
REMARK    7  A    between atoms: N_20  and  C_19 
REMARK       I    between atoms: C_22  and  N_20 
ROOT
ATOM      1  C   LIG d   1       0.254  83.457 111.949  0.00  0.00     0.161 C 
ATOM      2  C   LIG d   1      -0.882  82.646 111.794  0.00  0.00     0.016 C 
ATOM      3  C   LIG d   1      -1.810  82.399 112.832  0.00  0.00     0.038 C 
ATOM      4  C   LIG d   1      -1.745  83.073 114.060  0.00  0.00     0.028 C 
ATOM      5  C   LIG d   1      -0.334  83.515 114.435  0.00  0.00    -0.047 C 
ATOM      6  C   LIG d   1       0.281  84.290 113.248  0.00  0.00     0.091 C 
ENDROOT
BRANCH   1   7
ATOM      7  O   LIG d   1       0.402  84.315 110.801  0.00  0.00    -0.368 OA
BRANCH   7   8
ATOM      8  C   LIG d   1       1.596  84.115 110.005  0.00  0.00     0.119 C 
BRANCH   8   9
ATOM      9  C   LIG d   1       2.411  82.988 110.669  0.00  0.00     0.028 C 
ATOM     10  C   LIG d   1       3.928  83.212 110.549  0.00  0.00     0.006 C 
ENDBRANCH   8   9
BRANCH   8  11
ATOM     11  C   LIG d   1       2.504  85.348 110.043  0.00  0.00     0.028 C 
ATOM     12  C   LIG d   1       1.734  86.646 110.336  0.00  0.00     0.006 C 
ENDBRANCH   8  11
ENDBRANCH   7   8
ENDBRANCH   1   7
BRANCH   6  13
ATOM     13  N   LIG d   1       1.692  84.685 113.499  0.00  0.00    -0.311 N 
ATOM     14  C   LIG d   1       2.051  85.902 113.905  0.00  0.00     0.210 C 
ATOM     15  C   LIG d   1       3.559  86.104 114.085  0.00  0.00     0.109 C 
ATOM     16  O   LIG d   1       1.262  86.822 114.165  0.00  0.00    -0.276 OA
ATOM     17  H   LIG d   1       2.395  83.989 113.343  0.00  0.00     0.149 HD
ENDBRANCH   6  13
BRANCH   5  18
ATOM     18  N   LIG d   1      -0.432  84.323 115.665  0.00  0.00     0.381 N 
ATOM     19  H   LIG d   1       0.481  84.468 116.049  0.00  0.00    -0.090 HD
ATOM     20  H   LIG d   1      -0.982  83.822 116.341  0.00  0.00    -0.090 HD
ATOM     21  H   LIG d   1      -0.859  85.200 115.464  0.00  0.00    -0.090 HD
ENDBRANCH   5  18
BRANCH   3  22
ATOM     22  C   LIG d   1      -2.794  81.438 112.660  0.00  0.00     0.382 C 
ATOM     23  O   LIG d   1      -2.604  80.265 113.064  0.00  0.00    -0.241 OA
ATOM     24  O   LIG d   1      -3.853  81.717 112.066  0.00  0.00    -0.241 OA
ENDBRANCH   3  22
TORSDOF 7
ENDMDL
MODEL 8
REMARK VINA RESULT:      -5.1     22.674     25.919
REMARK  7 active torsions:
REMARK  status: ('A' for Active; 'I' for Inactive)
REMARK    1  A    between atoms: C_2  and  C_3 
REMARK    2  A    between atoms: C_3  and  O_6 
REMARK    3  A    between atoms: C_3  and  C_4 
REMARK    4  A    between atoms: C_7  and  O_6 
REMARK    5  A    between atoms: C_9  and  C_10 
REMARK    6  A    between atoms: N_15  and  C_14 
REMARK    7  A    between atoms: N_20  and  C_19 
REMARK       I    between atoms: C_22  and  N_20 
ROOT
ATOM      1  C   LIG d   1     -16.601  64.853 114.160  0.00  0.00     0.161 C 
ATOM      2  C   LIG d   1     -16.152  65.812 113.237  0.00  0.00     0.016 C 
ATOM      3  C   LIG d   1     -15.460  66.988 113.611  0.00  0.00     0.038 C 
ATOM      4  C   LIG d   1     -15.036  67.211 114.929  0.00  0.00     0.028 C 
ATOM      5  C   LIG d   1     -15.906  66.516 115.971  0.00  0.00    -0.047 C 
ATOM      6  C   LIG d   1     -16.050  65.024 115.591  0.00  0.00     0.091 C 
ENDROOT
BRANCH   1   7
ATOM      7  O   LIG d   1     -16.314  63.529 113.667  0.00  0.00    -0.368 OA
BRANCH   7   8
ATOM      8  C   LIG d   1     -17.461  62.715 113.321  0.00  0.00     0.119 C 
BRANCH   8   9
ATOM      9  C   LIG d   1     -18.722  63.570 113.553  0.00  0.00     0.028 C 
ATOM     10  C   LIG d   1     -19.444  63.918 112.240  0.00  0.00     0.006 C 
ENDBRANCH   8   9
BRANCH   8  11
ATOM     11  C   LIG d   1     -17.602  61.519 114.268  0.00  0.00     0.028 C 
ATOM     12  C   LIG d   1     -19.032  61.350 114.806  0.00  0.00     0.006 C 
ENDBRANCH   8  11
ENDBRANCH   7   8
ENDBRANCH   1   7
BRANCH   6  13
ATOM     13  N   LIG d   1     -16.956  64.289 116.512  0.00  0.00    -0.311 N 
ATOM     14  C   LIG d   1     -16.572  63.235 117.230  0.00  0.00     0.210 C 
ATOM     15  C   LIG d   1     -17.668  62.613 118.101  0.00  0.00     0.109 C 
ATOM     16  O   LIG d   1     -15.420  62.776 117.254  0.00  0.00    -0.276 OA
ATOM     17  H   LIG d   1     -17.901  64.614 116.578  0.00  0.00     0.149 HD
ENDBRANCH   6  13
BRANCH   5  18
ATOM     18  N   LIG d   1     -15.272  66.718 117.288  0.00  0.00     0.381 N 
ATOM     19  H   LIG d   1     -15.784  67.402 117.808  0.00  0.00    -0.090 HD
ATOM     20  H   LIG d   1     -14.338  67.060 117.149  0.00  0.00    -0.090 HD
ATOM     21  H   LIG d   1     -15.248  65.858 117.790  0.00  0.00    -0.090 HD
ENDBRANCH   5  18
BRANCH   3  22
ATOM     22  C   LIG d   1     -15.222  67.974 112.666  0.00  0.00     0.382 C 
ATOM     23  O   LIG d   1     -14.663  69.045 113.006  0.00  0.00    -0.241 OA
ATOM     24  O   LIG d   1     -15.598  67.826 111.488  0.00  0.00    -0.241 OA
ENDBRANCH   3  22
TORSDOF 7
ENDMDL
MODEL 9
REMARK VINA RESULT:      -5.1      2.700      5.332
REMARK  7 active torsions:
REMARK  status: ('A' for Active; 'I' for Inactive)
REMARK    1  A    between atoms: C_2  and  C_3 
REMARK    2  A    between atoms: C_3  and  O_6 
REMARK    3  A    between atoms: C_3  and  C_4 
REMARK    4  A    between atoms: C_7  and  O_6 
REMARK    5  A    between atoms: C_9  and  C_10 
REMARK    6  A    between atoms: N_15  and  C_14 
REMARK    7  A    between atoms: N_20  and  C_19 
REMARK       I    between atoms: C_22  and  N_20 
ROOT
ATOM      1  C   LIG d   1       1.494  84.409 112.730  0.00  0.00     0.161 C 
ATOM      2  C   LIG d   1       2.057  85.618 113.172  0.00  0.00     0.016 C 
ATOM      3  C   LIG d   1       3.061  86.314 112.461  0.00  0.00     0.038 C 
ATOM      4  C   LIG d   1       3.466  85.924 111.176  0.00  0.00     0.028 C 
ATOM      5  C   LIG d   1       3.289  84.433 110.912  0.00  0.00    -0.047 C 
ATOM      6  C   LIG d   1       1.843  84.026 111.276  0.00  0.00     0.091 C 
ENDROOT
BRANCH   1   7
ATOM      7  O   LIG d   1       0.064  84.441 112.910  0.00  0.00    -0.368 OA
BRANCH   7   8
ATOM      8  C   LIG d   1      -0.495  83.408 113.758  0.00  0.00     0.119 C 
BRANCH   8   9
ATOM      9  C   LIG d   1      -1.414  84.100 114.784  0.00  0.00     0.028 C 
ATOM     10  C   LIG d   1      -2.706  83.306 115.043  0.00  0.00     0.006 C 
ENDBRANCH   8   9
BRANCH   8  11
ATOM     11  C   LIG d   1       0.592  82.719 114.587  0.00  0.00     0.028 C 
ATOM     12  C   LIG d   1       0.584  81.190 114.428  0.00  0.00     0.006 C 
ENDBRANCH   8  11
ENDBRANCH   7   8
ENDBRANCH   1   7
BRANCH   6  13
ATOM     13  N   LIG d   1       1.610  82.566 111.127  0.00  0.00    -0.311 N 
ATOM     14  C   LIG d   1       0.518  82.052 110.563  0.00  0.00     0.210 C 
ATOM     15  C   LIG d   1       0.469  80.521 110.528  0.00  0.00     0.109 C 
ATOM     16  O   LIG d   1      -0.398  82.718 110.059  0.00  0.00    -0.276 OA
ATOM     17  H   LIG d   1       2.318  81.953 111.481  0.00  0.00     0.149 HD
ENDBRANCH   6  13
BRANCH   5  18
ATOM     18  N   LIG d   1       3.619  84.189 109.495  0.00  0.00     0.381 N 
ATOM     19  H   LIG d   1       3.612  85.054 108.992  0.00  0.00    -0.090 HD
ATOM     20  H   LIG d   1       2.919  83.587 109.097  0.00  0.00    -0.090 HD
ATOM     21  H   LIG d   1       4.515  83.761 109.422  0.00  0.00    -0.090 HD
ENDBRANCH   5  18
BRANCH   3  22
ATOM     22  C   LIG d   1       3.701  87.392 113.054  0.00  0.00     0.382 C 
ATOM     23  O   LIG d   1       3.649  87.545 114.298  0.00  0.00    -0.241 OA
ATOM     24  O   LIG d   1       4.291  88.238 112.356  0.00  0.00    -0.241 OA
ENDBRANCH   3  22
TORSDOF 7
ENDMDL
