MODEL 1
REMARK VINA RESULT:      -7.0      0.000      0.000
REMARK  7 active torsions:
REMARK  status: ('A' for Active; 'I' for Inactive)
REMARK    1  A    between atoms: C_2  and  C_3 
REMARK    2  A    between atoms: C_3  and  O_6 
REMARK    3  A    between atoms: C_3  and  C_4 
REMARK    4  A    between atoms: C_7  and  O_6 
REMARK    5  A    between atoms: C_9  and  C_10 
REMARK    6  A    between atoms: N_15  and  C_14 
REMARK    7  A    between atoms: N_20  and  C_19 
REMARK       I    between atoms: C_22  and  N_20 
ROOT
ATOM      1  C   LIG d   1       0.998  83.902 109.296  0.00  0.00     0.161 C 
ATOM      2  C   LIG d   1       0.677  85.164 109.825  0.00  0.00     0.016 C 
ATOM      3  C   LIG d   1      -0.126  85.344 110.975  0.00  0.00     0.038 C 
ATOM      4  C   LIG d   1      -0.540  84.263 111.767  0.00  0.00     0.028 C 
ATOM      5  C   LIG d   1      -0.665  82.956 110.991  0.00  0.00    -0.047 C 
ATOM      6  C   LIG d   1       0.647  82.710 110.210  0.00  0.00     0.091 C 
ENDROOT
BRANCH   1   7
ATOM      7  O   LIG d   1       2.393  83.864 108.936  0.00  0.00    -0.368 OA
BRANCH   7   8
ATOM      8  C   LIG d   1       3.317  83.534 110.001  0.00  0.00     0.119 C 
BRANCH   8   9
ATOM      9  C   LIG d   1       3.731  84.855 110.680  0.00  0.00     0.028 C 
ATOM     10  C   LIG d   1       3.563  84.806 112.208  0.00  0.00     0.006 C 
ENDBRANCH   8   9
BRANCH   8  11
ATOM     11  C   LIG d   1       4.616  82.939 109.448  0.00  0.00     0.028 C 
ATOM     12  C   LIG d   1       4.385  82.043 108.221  0.00  0.00     0.006 C 
ENDBRANCH   8  11
ENDBRANCH   7   8
ENDBRANCH   1   7
BRANCH   6  13
ATOM     13  N   LIG d   1       0.579  81.494 109.357  0.00  0.00    -0.311 N 
ATOM     14  C   LIG d   1       1.382  80.444 109.513  0.00  0.00     0.210 C 
ATOM     15  C   LIG d   1       1.157  79.304 108.514  0.00  0.00     0.109 C 
ATOM     16  O   LIG d   1       2.238  80.334 110.404  0.00  0.00    -0.276 OA
ATOM     17  H   LIG d   1      -0.109  81.486 108.629  0.00  0.00     0.149 HD
ENDBRANCH   6  13
BRANCH   5  18
ATOM     18  N   LIG d   1      -0.969  81.888 111.962  0.00  0.00     0.381 N 
ATOM     19  H   LIG d   1      -0.258  81.185 111.926  0.00  0.00    -0.090 HD
ATOM     20  H   LIG d   1      -1.845  81.464 111.714  0.00  0.00    -0.090 HD
ATOM     21  H   LIG d   1      -1.024  82.269 112.881  0.00  0.00    -0.090 HD
ENDBRANCH   5  18
BRANCH   3  22
ATOM     22  C   LIG d   1      -0.555  86.616 111.321  0.00  0.00     0.382 C 
ATOM     23  O   LIG d   1       0.268  87.460 111.752  0.00  0.00    -0.241 OA
ATOM     24  O   LIG d   1      -1.762  86.917 111.249  0.00  0.00    -0.241 OA
ENDBRANCH   3  22
TORSDOF 7
ENDMDL
MODEL 2
REMARK VINA RESULT:      -6.6      2.559      4.827
REMARK  7 active torsions:
REMARK  status: ('A' for Active; 'I' for Inactive)
REMARK    1  A    between atoms: C_2  and  C_3 
REMARK    2  A    between atoms: C_3  and  O_6 
REMARK    3  A    between atoms: C_3  and  C_4 
REMARK    4  A    between atoms: C_7  and  O_6 
REMARK    5  A    between atoms: C_9  and  C_10 
REMARK    6  A    between atoms: N_15  and  C_14 
REMARK    7  A    between atoms: N_20  and  C_19 
REMARK       I    between atoms: C_22  and  N_20 
ROOT
ATOM      1  C   LIG d   1       1.427  81.327 111.900  0.00  0.00     0.161 C 
ATOM      2  C   LIG d   1       2.466  81.950 111.188  0.00  0.00     0.016 C 
ATOM      3  C   LIG d   1       2.610  81.860 109.784  0.00  0.00     0.038 C 
ATOM      4  C   LIG d   1       1.632  81.263 108.975  0.00  0.00     0.028 C 
ATOM      5  C   LIG d   1       0.826  80.187 109.694  0.00  0.00    -0.047 C 
ATOM      6  C   LIG d   1       0.289  80.765 111.023  0.00  0.00     0.091 C 
ENDROOT
BRANCH   1   7
ATOM      7  O   LIG d   1       0.898  82.236 112.886  0.00  0.00    -0.368 OA
BRANCH   7   8
ATOM      8  C   LIG d   1       0.950  83.644 112.548  0.00  0.00     0.119 C 
BRANCH   8   9
ATOM      9  C   LIG d   1       1.222  84.422 113.850  0.00  0.00     0.028 C 
ATOM     10  C   LIG d   1       1.976  85.739 113.600  0.00  0.00     0.006 C 
ENDBRANCH   8   9
BRANCH   8  11
ATOM     11  C   LIG d   1      -0.408  84.148 112.050  0.00  0.00     0.028 C 
ATOM     12  C   LIG d   1      -0.412  84.458 110.545  0.00  0.00     0.006 C 
ENDBRANCH   8  11
ENDBRANCH   7   8
ENDBRANCH   1   7
BRANCH   6  13
ATOM     13  N   LIG d   1      -0.440  79.751 111.829  0.00  0.00    -0.311 N 
ATOM     14  C   LIG d   1      -1.633  79.971 112.378  0.00  0.00     0.210 C 
ATOM     15  C   LIG d   1      -2.200  78.799 113.186  0.00  0.00     0.109 C 
ATOM     16  O   LIG d   1      -2.291  81.014 112.246  0.00  0.00    -0.276 OA
ATOM     17  H   LIG d   1       0.007  78.865 111.960  0.00  0.00     0.149 HD
ENDBRANCH   6  13
BRANCH   5  18
ATOM     18  N   LIG d   1      -0.245  79.747 108.780  0.00  0.00     0.381 N 
ATOM     19  H   LIG d   1      -0.761  78.999 109.198  0.00  0.00    -0.090 HD
ATOM     20  H   LIG d   1       0.172  79.407 107.931  0.00  0.00    -0.090 HD
ATOM     21  H   LIG d   1      -0.854  80.509 108.578  0.00  0.00    -0.090 HD
ENDBRANCH   5  18
BRANCH   3  22
ATOM     22  C   LIG d   1       3.763  82.338 109.180  0.00  0.00     0.382 C 
ATOM     23  O   LIG d   1       4.281  81.704 108.229  0.00  0.00    -0.241 OA
ATOM     24  O   LIG d   1       4.317  83.370 109.603  0.00  0.00    -0.241 OA
ENDBRANCH   3  22
TORSDOF 7
ENDMDL
MODEL 3
REMARK VINA RESULT:      -6.4      2.742      4.596
REMARK  7 active torsions:
REMARK  status: ('A' for Active; 'I' for Inactive)
REMARK    1  A    between atoms: C_2  and  C_3 
REMARK    2  A    between atoms: C_3  and  O_6 
REMARK    3  A    between atoms: C_3  and  C_4 
REMARK    4  A    between atoms: C_7  and  O_6 
REMARK    5  A    between atoms: C_9  and  C_10 
REMARK    6  A    between atoms: N_15  and  C_14 
REMARK    7  A    between atoms: N_20  and  C_19 
REMARK       I    between atoms: C_22  and  N_20 
ROOT
ATOM      1  C   LIG d   1       0.398  82.088 111.392  0.00  0.00     0.161 C 
ATOM      2  C   LIG d   1      -0.783  81.718 112.057  0.00  0.00     0.016 C 
ATOM      3  C   LIG d   1      -1.379  80.442 111.933  0.00  0.00     0.038 C 
ATOM      4  C   LIG d   1      -0.748  79.392 111.249  0.00  0.00     0.028 C 
ATOM      5  C   LIG d   1       0.192  79.866 110.146  0.00  0.00    -0.047 C 
ATOM      6  C   LIG d   1       1.160  80.920 110.730  0.00  0.00     0.091 C 
ENDROOT
BRANCH   1   7
ATOM      7  O   LIG d   1       1.264  82.803 112.294  0.00  0.00    -0.368 OA
BRANCH   7   8
ATOM      8  C   LIG d   1       1.456  84.211 112.011  0.00  0.00     0.119 C 
BRANCH   8   9
ATOM      9  C   LIG d   1       2.893  84.576 112.433  0.00  0.00     0.028 C 
ATOM     10  C   LIG d   1       3.558  85.562 111.457  0.00  0.00     0.006 C 
ENDBRANCH   8   9
BRANCH   8  11
ATOM     11  C   LIG d   1       0.545  85.084 112.880  0.00  0.00     0.028 C 
ATOM     12  C   LIG d   1      -0.632  85.683 112.094  0.00  0.00     0.006 C 
ENDBRANCH   8  11
ENDBRANCH   7   8
ENDBRANCH   1   7
BRANCH   6  13
ATOM     13  N   LIG d   1       2.058  81.498 109.697  0.00  0.00    -0.311 N 
ATOM     14  C   LIG d   1       3.349  81.754 109.907  0.00  0.00     0.210 C 
ATOM     15  C   LIG d   1       4.089  82.368 108.715  0.00  0.00     0.109 C 
ATOM     16  O   LIG d   1       3.957  81.501 110.958  0.00  0.00    -0.276 OA
ATOM     17  H   LIG d   1       1.654  81.706 108.805  0.00  0.00     0.149 HD
ENDBRANCH   6  13
BRANCH   5  18
ATOM     18  N   LIG d   1       0.884  78.679 109.610  0.00  0.00     0.381 N 
ATOM     19  H   LIG d   1       1.236  78.877 108.694  0.00  0.00    -0.090 HD
ATOM     20  H   LIG d   1       0.226  77.924 109.538  0.00  0.00    -0.090 HD
ATOM     21  H   LIG d   1       1.634  78.421 110.213  0.00  0.00    -0.090 HD
ENDBRANCH   5  18
BRANCH   3  22
ATOM     22  C   LIG d   1      -2.640  80.218 112.464  0.00  0.00     0.382 C 
ATOM     23  O   LIG d   1      -3.069  79.045 112.589  0.00  0.00    -0.241 OA
ATOM     24  O   LIG d   1      -3.372  81.175 112.780  0.00  0.00    -0.241 OA
ENDBRANCH   3  22
TORSDOF 7
ENDMDL
MODEL 4
REMARK VINA RESULT:      -6.3      1.749      2.923
REMARK  7 active torsions:
REMARK  status: ('A' for Active; 'I' for Inactive)
REMARK    1  A    between atoms: C_2  and  C_3 
REMARK    2  A    between atoms: C_3  and  O_6 
REMARK    3  A    between atoms: C_3  and  C_4 
REMARK    4  A    between atoms: C_7  and  O_6 
REMARK    5  A    between atoms: C_9  and  C_10 
REMARK    6  A    between atoms: N_15  and  C_14 
REMARK    7  A    between atoms: N_20  and  C_19 
REMARK       I    between atoms: C_22  and  N_20 
ROOT
ATOM      1  C   LIG d   1       2.238  85.287 110.464  0.00  0.00     0.161 C 
ATOM      2  C   LIG d   1       1.144  85.964 111.028  0.00  0.00     0.016 C 
ATOM      3  C   LIG d   1      -0.138  85.385 111.174  0.00  0.00     0.038 C 
ATOM      4  C   LIG d   1      -0.375  84.030 110.902  0.00  0.00     0.028 C 
ATOM      5  C   LIG d   1       0.572  83.447 109.859  0.00  0.00    -0.047 C 
ATOM      6  C   LIG d   1       2.028  83.771 110.265  0.00  0.00     0.091 C 
ENDROOT
BRANCH   1   7
ATOM      7  O   LIG d   1       3.421  85.529 111.252  0.00  0.00    -0.368 OA
BRANCH   7   8
ATOM      8  C   LIG d   1       3.209  85.749 112.668  0.00  0.00     0.119 C 
BRANCH   8   9
ATOM      9  C   LIG d   1       4.092  86.940 113.089  0.00  0.00     0.028 C 
ATOM     10  C   LIG d   1       3.654  87.550 114.431  0.00  0.00     0.006 C 
ENDBRANCH   8   9
BRANCH   8  11
ATOM     11  C   LIG d   1       3.708  84.562 113.497  0.00  0.00     0.028 C 
ATOM     12  C   LIG d   1       2.565  83.675 114.016  0.00  0.00     0.006 C 
ENDBRANCH   8  11
ENDBRANCH   7   8
ENDBRANCH   1   7
BRANCH   6  13
ATOM     13  N   LIG d   1       3.015  83.309 109.254  0.00  0.00    -0.311 N 
ATOM     14  C   LIG d   1       3.636  82.133 109.320  0.00  0.00     0.210 C 
ATOM     15  C   LIG d   1       4.630  81.863 108.187  0.00  0.00     0.109 C 
ATOM     16  O   LIG d   1       3.435  81.275 110.193  0.00  0.00    -0.276 OA
ATOM     17  H   LIG d   1       3.214  83.931 108.495  0.00  0.00     0.149 HD
ENDBRANCH   6  13
BRANCH   5  18
ATOM     18  N   LIG d   1       0.305  81.998 109.774  0.00  0.00     0.381 N 
ATOM     19  H   LIG d   1      -0.614  81.803 110.117  0.00  0.00    -0.090 HD
ATOM     20  H   LIG d   1       0.967  81.511 110.351  0.00  0.00    -0.090 HD
ATOM     21  H   LIG d   1       0.386  81.691 108.830  0.00  0.00    -0.090 HD
ENDBRANCH   5  18
BRANCH   3  22
ATOM     22  C   LIG d   1      -1.209  86.177 111.558  0.00  0.00     0.382 C 
ATOM     23  O   LIG d   1      -1.728  86.971 110.738  0.00  0.00    -0.241 OA
ATOM     24  O   LIG d   1      -1.635  86.139 112.728  0.00  0.00    -0.241 OA
ENDBRANCH   3  22
TORSDOF 7
ENDMDL
MODEL 5
REMARK VINA RESULT:      -5.8      2.104      5.571
REMARK  7 active torsions:
REMARK  status: ('A' for Active; 'I' for Inactive)
REMARK    1  A    between atoms: C_2  and  C_3 
REMARK    2  A    between atoms: C_3  and  O_6 
REMARK    3  A    between atoms: C_3  and  C_4 
REMARK    4  A    between atoms: C_7  and  O_6 
REMARK    5  A    between atoms: C_9  and  C_10 
REMARK    6  A    between atoms: N_15  and  C_14 
REMARK    7  A    between atoms: N_20  and  C_19 
REMARK       I    between atoms: C_22  and  N_20 
ROOT
ATOM      1  C   LIG d   1       0.647  82.259 111.506  0.00  0.00     0.161 C 
ATOM      2  C   LIG d   1       1.302  81.112 111.027  0.00  0.00     0.016 C 
ATOM      3  C   LIG d   1       1.936  81.048 109.765  0.00  0.00     0.038 C 
ATOM      4  C   LIG d   1       2.091  82.182 108.954  0.00  0.00     0.028 C 
ATOM      5  C   LIG d   1       1.008  83.234 109.171  0.00  0.00    -0.047 C 
ATOM      6  C   LIG d   1       0.902  83.539 110.683  0.00  0.00     0.091 C 
ENDROOT
BRANCH   1   7
ATOM      7  O   LIG d   1       0.991  82.476 112.889  0.00  0.00    -0.368 OA
BRANCH   7   8
ATOM      8  C   LIG d   1       1.956  83.525 113.149  0.00  0.00     0.119 C 
BRANCH   8   9
ATOM      9  C   LIG d   1       3.264  82.848 113.602  0.00  0.00     0.028 C 
ATOM     10  C   LIG d   1       4.340  82.857 112.504  0.00  0.00     0.006 C 
ENDBRANCH   8   9
BRANCH   8  11
ATOM     11  C   LIG d   1       1.522  84.400 114.328  0.00  0.00     0.028 C 
ATOM     12  C   LIG d   1       2.275  85.739 114.384  0.00  0.00     0.006 C 
ENDBRANCH   8  11
ENDBRANCH   7   8
ENDBRANCH   1   7
BRANCH   6  13
ATOM     13  N   LIG d   1      -0.192  84.497 110.992  0.00  0.00    -0.311 N 
ATOM     14  C   LIG d   1      -0.009  85.813 111.091  0.00  0.00     0.210 C 
ATOM     15  C   LIG d   1      -1.266  86.617 111.436  0.00  0.00     0.109 C 
ATOM     16  O   LIG d   1       1.070  86.393 110.894  0.00  0.00    -0.276 OA
ATOM     17  H   LIG d   1      -1.106  84.115 111.136  0.00  0.00     0.149 HD
ENDBRANCH   6  13
BRANCH   5  18
ATOM     18  N   LIG d   1       1.368  84.416 108.366  0.00  0.00     0.381 N 
ATOM     19  H   LIG d   1       2.145  84.199 107.774  0.00  0.00    -0.090 HD
ATOM     20  H   LIG d   1       1.641  85.160 108.985  0.00  0.00    -0.090 HD
ATOM     21  H   LIG d   1       0.590  84.702 107.814  0.00  0.00    -0.090 HD
ENDBRANCH   5  18
BRANCH   3  22
ATOM     22  C   LIG d   1       2.390  79.828 109.285  0.00  0.00     0.382 C 
ATOM     23  O   LIG d   1       1.576  78.899 109.065  0.00  0.00    -0.241 OA
ATOM     24  O   LIG d   1       3.607  79.631 109.112  0.00  0.00    -0.241 OA
ENDBRANCH   3  22
TORSDOF 7
ENDMDL
MODEL 6
REMARK VINA RESULT:      -5.7      2.754      5.169
REMARK  7 active torsions:
REMARK  status: ('A' for Active; 'I' for Inactive)
REMARK    1  A    between atoms: C_2  and  C_3 
REMARK    2  A    between atoms: C_3  and  O_6 
REMARK    3  A    between atoms: C_3  and  C_4 
REMARK    4  A    between atoms: C_7  and  O_6 
REMARK    5  A    between atoms: C_9  and  C_10 
REMARK    6  A    between atoms: N_15  and  C_14 
REMARK    7  A    between atoms: N_20  and  C_19 
REMARK       I    between atoms: C_22  and  N_20 
ROOT
ATOM      1  C   LIG d   1       3.518  84.113 111.576  0.00  0.00     0.161 C 
ATOM      2  C   LIG d   1       3.330  83.975 110.190  0.00  0.00     0.016 C 
ATOM      3  C   LIG d   1       2.556  82.945 109.609  0.00  0.00     0.038 C 
ATOM      4  C   LIG d   1       1.787  82.066 110.387  0.00  0.00     0.028 C 
ATOM      5  C   LIG d   1       2.345  81.853 111.790  0.00  0.00    -0.047 C 
ATOM      6  C   LIG d   1       2.597  83.231 112.444  0.00  0.00     0.091 C 
ENDROOT
BRANCH   1   7
ATOM      7  O   LIG d   1       3.383  85.499 111.951  0.00  0.00    -0.368 OA
BRANCH   7   8
ATOM      8  C   LIG d   1       2.101  85.889 112.500  0.00  0.00     0.119 C 
BRANCH   8   9
ATOM      9  C   LIG d   1       1.396  86.770 111.449  0.00  0.00     0.028 C 
ATOM     10  C   LIG d   1      -0.052  86.325 111.186  0.00  0.00     0.006 C 
ENDBRANCH   8   9
BRANCH   8  11
ATOM     11  C   LIG d   1       2.270  86.783 113.731  0.00  0.00     0.028 C 
ATOM     12  C   LIG d   1       3.662  86.659 114.371  0.00  0.00     0.006 C 
ENDBRANCH   8  11
ENDBRANCH   7   8
ENDBRANCH   1   7
BRANCH   6  13
ATOM     13  N   LIG d   1       3.221  83.115 113.788  0.00  0.00    -0.311 N 
ATOM     14  C   LIG d   1       2.525  83.126 114.923  0.00  0.00     0.210 C 
ATOM     15  C   LIG d   1       3.367  83.014 116.198  0.00  0.00     0.109 C 
ATOM     16  O   LIG d   1       1.289  83.185 114.994  0.00  0.00    -0.276 OA
ATOM     17  H   LIG d   1       4.219  83.032 113.821  0.00  0.00     0.149 HD
ENDBRANCH   6  13
BRANCH   5  18
ATOM     18  N   LIG d   1       1.375  81.028 112.534  0.00  0.00     0.381 N 
ATOM     19  H   LIG d   1       1.232  81.414 113.446  0.00  0.00    -0.090 HD
ATOM     20  H   LIG d   1       1.750  80.102 112.639  0.00  0.00    -0.090 HD
ATOM     21  H   LIG d   1       0.510  80.991 112.042  0.00  0.00    -0.090 HD
ENDBRANCH   5  18
BRANCH   3  22
ATOM     22  C   LIG d   1       2.577  82.761 108.235  0.00  0.00     0.382 C 
ATOM     23  O   LIG d   1       1.625  83.177 107.532  0.00  0.00    -0.241 OA
ATOM     24  O   LIG d   1       3.516  82.145 107.694  0.00  0.00    -0.241 OA
ENDBRANCH   3  22
TORSDOF 7
ENDMDL
MODEL 7
REMARK VINA RESULT:      -5.7      2.960      4.912
REMARK  7 active torsions:
REMARK  status: ('A' for Active; 'I' for Inactive)
REMARK    1  A    between atoms: C_2  and  C_3 
REMARK    2  A    between atoms: C_3  and  O_6 
REMARK    3  A    between atoms: C_3  and  C_4 
REMARK    4  A    between atoms: C_7  and  O_6 
REMARK    5  A    between atoms: C_9  and  C_10 
REMARK    6  A    between atoms: N_15  and  C_14 
REMARK    7  A    between atoms: N_20  and  C_19 
REMARK       I    between atoms: C_22  and  N_20 
ROOT
ATOM      1  C   LIG d   1       1.963  81.528 111.691  0.00  0.00     0.161 C 
ATOM      2  C   LIG d   1       2.752  81.992 110.625  0.00  0.00     0.016 C 
ATOM      3  C   LIG d   1       2.522  81.639 109.275  0.00  0.00     0.038 C 
ATOM      4  C   LIG d   1       1.387  80.914 108.881  0.00  0.00     0.028 C 
ATOM      5  C   LIG d   1       0.841  80.002 109.975  0.00  0.00    -0.047 C 
ATOM      6  C   LIG d   1       0.655  80.827 111.269  0.00  0.00     0.091 C 
ENDROOT
BRANCH   1   7
ATOM      7  O   LIG d   1       1.681  82.612 112.597  0.00  0.00    -0.368 OA
BRANCH   7   8
ATOM      8  C   LIG d   1       2.483  82.660 113.803  0.00  0.00     0.119 C 
BRANCH   8   9
ATOM      9  C   LIG d   1       3.436  83.865 113.678  0.00  0.00     0.028 C 
ATOM     10  C   LIG d   1       2.826  85.013 112.857  0.00  0.00     0.006 C 
ENDBRANCH   8   9
BRANCH   8  11
ATOM     11  C   LIG d   1       3.392  81.433 113.916  0.00  0.00     0.028 C 
ATOM     12  C   LIG d   1       3.605  80.981 115.370  0.00  0.00     0.006 C 
ENDBRANCH   8  11
ENDBRANCH   7   8
ENDBRANCH   1   7
BRANCH   6  13
ATOM     13  N   LIG d   1       0.204  79.992 112.413  0.00  0.00    -0.311 N 
ATOM     14  C   LIG d   1      -1.078  79.786 112.709  0.00  0.00     0.210 C 
ATOM     15  C   LIG d   1      -1.325  78.910 113.942  0.00  0.00     0.109 C 
ATOM     16  O   LIG d   1      -2.035  80.219 112.049  0.00  0.00    -0.276 OA
ATOM     17  H   LIG d   1       0.914  79.577 112.983  0.00  0.00     0.149 HD
ENDBRANCH   6  13
BRANCH   5  18
ATOM     18  N   LIG d   1      -0.417  79.414 109.478  0.00  0.00     0.381 N 
ATOM     19  H   LIG d   1      -0.234  78.861 108.665  0.00  0.00    -0.090 HD
ATOM     20  H   LIG d   1      -1.043  80.156 109.220  0.00  0.00    -0.090 HD
ATOM     21  H   LIG d   1      -0.832  78.849 110.186  0.00  0.00    -0.090 HD
ENDBRANCH   5  18
BRANCH   3  22
ATOM     22  C   LIG d   1       3.455  81.978 108.307  0.00  0.00     0.382 C 
ATOM     23  O   LIG d   1       3.114  82.686 107.329  0.00  0.00    -0.241 OA
ATOM     24  O   LIG d   1       4.622  81.549 108.377  0.00  0.00    -0.241 OA
ENDBRANCH   3  22
TORSDOF 7
ENDMDL
MODEL 8
REMARK VINA RESULT:      -5.3     24.711     27.075
REMARK  7 active torsions:
REMARK  status: ('A' for Active; 'I' for Inactive)
REMARK    1  A    between atoms: C_2  and  C_3 
REMARK    2  A    between atoms: C_3  and  O_6 
REMARK    3  A    between atoms: C_3  and  C_4 
REMARK    4  A    between atoms: C_7  and  O_6 
REMARK    5  A    between atoms: C_9  and  C_10 
REMARK    6  A    between atoms: N_15  and  C_14 
REMARK    7  A    between atoms: N_20  and  C_19 
REMARK       I    between atoms: C_22  and  N_20 
ROOT
ATOM      1  C   LIG d   1     -25.967  86.081 113.263  0.00  0.00     0.161 C 
ATOM      2  C   LIG d   1     -24.818  86.883 113.350  0.00  0.00     0.016 C 
ATOM      3  C   LIG d   1     -23.577  86.414 113.842  0.00  0.00     0.038 C 
ATOM      4  C   LIG d   1     -23.361  85.061 114.139  0.00  0.00     0.028 C 
ATOM      5  C   LIG d   1     -24.631  84.320 114.545  0.00  0.00    -0.047 C 
ATOM      6  C   LIG d   1     -25.722  84.573 113.479  0.00  0.00     0.091 C 
ENDROOT
BRANCH   1   7
ATOM      7  O   LIG d   1     -26.625  86.305 112.000  0.00  0.00    -0.368 OA
BRANCH   7   8
ATOM      8  C   LIG d   1     -25.775  86.722 110.904  0.00  0.00     0.119 C 
BRANCH   8   9
ATOM      9  C   LIG d   1     -26.514  87.840 110.144  0.00  0.00     0.028 C 
ATOM     10  C   LIG d   1     -26.660  89.122 110.981  0.00  0.00     0.006 C 
ENDBRANCH   8   9
BRANCH   8  11
ATOM     11  C   LIG d   1     -25.587  85.595 109.885  0.00  0.00     0.028 C 
ATOM     12  C   LIG d   1     -25.882  86.039 108.443  0.00  0.00     0.006 C 
ENDBRANCH   8  11
ENDBRANCH   7   8
ENDBRANCH   1   7
BRANCH   6  13
ATOM     13  N   LIG d   1     -27.023  83.952 113.841  0.00  0.00    -0.311 N 
ATOM     14  C   LIG d   1     -27.637  83.044 113.085  0.00  0.00     0.210 C 
ATOM     15  C   LIG d   1     -28.979  82.548 113.633  0.00  0.00     0.109 C 
ATOM     16  O   LIG d   1     -27.183  82.578 112.029  0.00  0.00    -0.276 OA
ATOM     17  H   LIG d   1     -27.447  84.249 114.698  0.00  0.00     0.149 HD
ENDBRANCH   6  13
BRANCH   5  18
ATOM     18  N   LIG d   1     -24.287  82.893 114.692  0.00  0.00     0.381 N 
ATOM     19  H   LIG d   1     -25.123  82.345 114.729  0.00  0.00    -0.090 HD
ATOM     20  H   LIG d   1     -23.789  82.767 115.556  0.00  0.00    -0.090 HD
ATOM     21  H   LIG d   1     -23.720  82.598 113.928  0.00  0.00    -0.090 HD
ENDBRANCH   5  18
BRANCH   3  22
ATOM     22  C   LIG d   1     -22.548  87.313 114.077  0.00  0.00     0.382 C 
ATOM     23  O   LIG d   1     -21.446  87.171 113.493  0.00  0.00    -0.241 OA
ATOM     24  O   LIG d   1     -22.692  88.238 114.899  0.00  0.00    -0.241 OA
ENDBRANCH   3  22
TORSDOF 7
ENDMDL
MODEL 9
REMARK VINA RESULT:      -5.3      2.794      5.612
REMARK  7 active torsions:
REMARK  status: ('A' for Active; 'I' for Inactive)
REMARK    1  A    between atoms: C_2  and  C_3 
REMARK    2  A    between atoms: C_3  and  O_6 
REMARK    3  A    between atoms: C_3  and  C_4 
REMARK    4  A    between atoms: C_7  and  O_6 
REMARK    5  A    between atoms: C_9  and  C_10 
REMARK    6  A    between atoms: N_15  and  C_14 
REMARK    7  A    between atoms: N_20  and  C_19 
REMARK       I    between atoms: C_22  and  N_20 
ROOT
ATOM      1  C   LIG d   1       1.476  82.528 111.749  0.00  0.00     0.161 C 
ATOM      2  C   LIG d   1       1.392  81.201 111.297  0.00  0.00     0.016 C 
ATOM      3  C   LIG d   1       1.311  80.848 109.930  0.00  0.00     0.038 C 
ATOM      4  C   LIG d   1       1.463  81.798 108.909  0.00  0.00     0.028 C 
ATOM      5  C   LIG d   1       1.044  83.204 109.323  0.00  0.00    -0.047 C 
ATOM      6  C   LIG d   1       1.754  83.571 110.646  0.00  0.00     0.091 C 
ENDROOT
BRANCH   1   7
ATOM      7  O   LIG d   1       2.465  82.627 112.793  0.00  0.00    -0.368 OA
BRANCH   7   8
ATOM      8  C   LIG d   1       1.974  82.498 114.150  0.00  0.00     0.119 C 
BRANCH   8   9
ATOM      9  C   LIG d   1       1.712  83.919 114.685  0.00  0.00     0.028 C 
ATOM     10  C   LIG d   1       3.008  84.730 114.855  0.00  0.00     0.006 C 
ENDBRANCH   8   9
BRANCH   8  11
ATOM     11  C   LIG d   1       3.043  81.907 115.075  0.00  0.00     0.028 C 
ATOM     12  C   LIG d   1       2.475  80.866 116.052  0.00  0.00     0.006 C 
ENDBRANCH   8  11
ENDBRANCH   7   8
ENDBRANCH   1   7
BRANCH   6  13
ATOM     13  N   LIG d   1       1.335  84.898 111.166  0.00  0.00    -0.311 N 
ATOM     14  C   LIG d   1       2.185  85.898 111.394  0.00  0.00     0.210 C 
ATOM     15  C   LIG d   1       1.547  87.175 111.949  0.00  0.00     0.109 C 
ATOM     16  O   LIG d   1       3.403  85.859 111.160  0.00  0.00    -0.276 OA
ATOM     17  H   LIG d   1       0.360  85.027 111.354  0.00  0.00     0.149 HD
ENDBRANCH   6  13
BRANCH   5  18
ATOM     18  N   LIG d   1       1.382  84.115 108.213  0.00  0.00     0.381 N 
ATOM     19  H   LIG d   1       2.186  83.771 107.726  0.00  0.00    -0.090 HD
ATOM     20  H   LIG d   1       1.606  85.019 108.591  0.00  0.00    -0.090 HD
ATOM     21  H   LIG d   1       0.612  84.190 107.586  0.00  0.00    -0.090 HD
ENDBRANCH   5  18
BRANCH   3  22
ATOM     22  C   LIG d   1       1.037  79.536 109.574  0.00  0.00     0.382 C 
ATOM     23  O   LIG d   1       1.877  78.877 108.915  0.00  0.00    -0.241 OA
ATOM     24  O   LIG d   1      -0.057  79.018 109.866  0.00  0.00    -0.241 OA
ENDBRANCH   3  22
TORSDOF 7
ENDMDL
