MODEL 1
REMARK VINA RESULT:      -6.6      0.000      0.000
REMARK  7 active torsions:
REMARK  status: ('A' for Active; 'I' for Inactive)
REMARK    1  A    between atoms: C_2  and  C_3 
REMARK    2  A    between atoms: C_3  and  O_6 
REMARK    3  A    between atoms: C_3  and  C_4 
REMARK    4  A    between atoms: C_7  and  O_6 
REMARK    5  A    between atoms: C_9  and  C_10 
REMARK    6  A    between atoms: N_15  and  C_14 
REMARK    7  A    between atoms: N_20  and  C_19 
REMARK       I    between atoms: C_22  and  N_20 
ROOT
ATOM      1  C   LIG d   1       0.221  82.783 111.393  0.00  0.00     0.161 C 
ATOM      2  C   LIG d   1      -0.904  82.522 112.192  0.00  0.00     0.016 C 
ATOM      3  C   LIG d   1      -1.419  81.224 112.412  0.00  0.00     0.038 C 
ATOM      4  C   LIG d   1      -0.749  80.075 111.966  0.00  0.00     0.028 C 
ATOM      5  C   LIG d   1       0.111  80.317 110.730  0.00  0.00    -0.047 C 
ATOM      6  C   LIG d   1       1.030  81.533 110.989  0.00  0.00     0.091 C 
ENDROOT
BRANCH   1   7
ATOM      7  O   LIG d   1       1.074  83.742 112.048  0.00  0.00    -0.368 OA
BRANCH   7   8
ATOM      8  C   LIG d   1       0.850  85.132 111.706  0.00  0.00     0.119 C 
BRANCH   8   9
ATOM      9  C   LIG d   1       0.270  85.170 110.279  0.00  0.00     0.028 C 
ATOM     10  C   LIG d   1      -0.977  86.065 110.176  0.00  0.00     0.006 C 
ENDBRANCH   8   9
BRANCH   8  11
ATOM     11  C   LIG d   1       2.169  85.906 111.628  0.00  0.00     0.028 C 
ATOM     12  C   LIG d   1       2.914  85.682 110.302  0.00  0.00     0.006 C 
ENDBRANCH   8  11
ENDBRANCH   7   8
ENDBRANCH   1   7
BRANCH   6  13
ATOM     13  N   LIG d   1       1.846  81.890 109.799  0.00  0.00    -0.311 N 
ATOM     14  C   LIG d   1       3.171  82.018 109.830  0.00  0.00     0.210 C 
ATOM     15  C   LIG d   1       3.814  82.412 108.496  0.00  0.00     0.109 C 
ATOM     16  O   LIG d   1       3.879  81.812 110.827  0.00  0.00    -0.276 OA
ATOM     17  H   LIG d   1       1.355  82.045 108.940  0.00  0.00     0.149 HD
ENDBRANCH   6  13
BRANCH   5  18
ATOM     18  N   LIG d   1       0.858  79.075 110.457  0.00  0.00     0.381 N 
ATOM     19  H   LIG d   1       0.485  78.628 109.643  0.00  0.00    -0.090 HD
ATOM     20  H   LIG d   1       0.748  78.451 111.237  0.00  0.00    -0.090 HD
ATOM     21  H   LIG d   1       1.823  79.281 110.319  0.00  0.00    -0.090 HD
ENDBRANCH   5  18
BRANCH   3  22
ATOM     22  C   LIG d   1      -2.640  81.068 113.051  0.00  0.00     0.382 C 
ATOM     23  O   LIG d   1      -2.877  80.023 113.704  0.00  0.00    -0.241 OA
ATOM     24  O   LIG d   1      -3.524  81.940 112.947  0.00  0.00    -0.241 OA
ENDBRANCH   3  22
TORSDOF 7
ENDMDL
MODEL 2
REMARK VINA RESULT:      -6.2      2.250      3.688
REMARK  7 active torsions:
REMARK  status: ('A' for Active; 'I' for Inactive)
REMARK    1  A    between atoms: C_2  and  C_3 
REMARK    2  A    between atoms: C_3  and  O_6 
REMARK    3  A    between atoms: C_3  and  C_4 
REMARK    4  A    between atoms: C_7  and  O_6 
REMARK    5  A    between atoms: C_9  and  C_10 
REMARK    6  A    between atoms: N_15  and  C_14 
REMARK    7  A    between atoms: N_20  and  C_19 
REMARK       I    between atoms: C_22  and  N_20 
ROOT
ATOM      1  C   LIG d   1       1.579  82.943 110.915  0.00  0.00     0.161 C 
ATOM      2  C   LIG d   1       0.898  84.085 111.368  0.00  0.00     0.016 C 
ATOM      3  C   LIG d   1      -0.013  84.071 112.449  0.00  0.00     0.038 C 
ATOM      4  C   LIG d   1      -0.192  82.935 113.252  0.00  0.00     0.028 C 
ATOM      5  C   LIG d   1       0.093  81.626 112.523  0.00  0.00    -0.047 C 
ATOM      6  C   LIG d   1       1.481  81.719 111.849  0.00  0.00     0.091 C 
ENDROOT
BRANCH   1   7
ATOM      7  O   LIG d   1       2.960  83.267 110.657  0.00  0.00    -0.368 OA
BRANCH   7   8
ATOM      8  C   LIG d   1       3.300  83.557 109.279  0.00  0.00     0.119 C 
BRANCH   8   9
ATOM      9  C   LIG d   1       2.228  82.898 108.389  0.00  0.00     0.028 C 
ATOM     10  C   LIG d   1       1.656  83.870 107.343  0.00  0.00     0.006 C 
ENDBRANCH   8   9
BRANCH   8  11
ATOM     11  C   LIG d   1       4.621  82.894 108.880  0.00  0.00     0.028 C 
ATOM     12  C   LIG d   1       4.541  81.359 108.876  0.00  0.00     0.006 C 
ENDBRANCH   8  11
ENDBRANCH   7   8
ENDBRANCH   1   7
BRANCH   6  13
ATOM     13  N   LIG d   1       1.802  80.512 111.044  0.00  0.00    -0.311 N 
ATOM     14  C   LIG d   1       0.975  79.995 110.137  0.00  0.00     0.210 C 
ATOM     15  C   LIG d   1       1.493  78.736 109.433  0.00  0.00     0.109 C 
ATOM     16  O   LIG d   1      -0.123  80.478 109.824  0.00  0.00    -0.276 OA
ATOM     17  H   LIG d   1       2.687  80.074 111.211  0.00  0.00     0.149 HD
ENDBRANCH   6  13
BRANCH   5  18
ATOM     18  N   LIG d   1       0.002  80.536 113.513  0.00  0.00     0.381 N 
ATOM     19  H   LIG d   1      -0.591  79.810 113.164  0.00  0.00    -0.090 HD
ATOM     20  H   LIG d   1      -0.405  80.897 114.358  0.00  0.00    -0.090 HD
ATOM     21  H   LIG d   1       0.909  80.171 113.702  0.00  0.00    -0.090 HD
ENDBRANCH   5  18
BRANCH   3  22
ATOM     22  C   LIG d   1      -0.787  85.191 112.710  0.00  0.00     0.382 C 
ATOM     23  O   LIG d   1      -1.304  85.345 113.843  0.00  0.00    -0.241 OA
ATOM     24  O   LIG d   1      -1.010  86.028 111.815  0.00  0.00    -0.241 OA
ENDBRANCH   3  22
TORSDOF 7
ENDMDL
MODEL 3
REMARK VINA RESULT:      -6.2      2.131      3.918
REMARK  7 active torsions:
REMARK  status: ('A' for Active; 'I' for Inactive)
REMARK    1  A    between atoms: C_2  and  C_3 
REMARK    2  A    between atoms: C_3  and  O_6 
REMARK    3  A    between atoms: C_3  and  C_4 
REMARK    4  A    between atoms: C_7  and  O_6 
REMARK    5  A    between atoms: C_9  and  C_10 
REMARK    6  A    between atoms: N_15  and  C_14 
REMARK    7  A    between atoms: N_20  and  C_19 
REMARK       I    between atoms: C_22  and  N_20 
ROOT
ATOM      1  C   LIG d   1       1.957  82.323 112.402  0.00  0.00     0.161 C 
ATOM      2  C   LIG d   1       0.803  81.557 112.634  0.00  0.00     0.016 C 
ATOM      3  C   LIG d   1      -0.508  82.039 112.416  0.00  0.00     0.038 C 
ATOM      4  C   LIG d   1      -0.750  83.277 111.803  0.00  0.00     0.028 C 
ATOM      5  C   LIG d   1       0.371  84.289 112.017  0.00  0.00    -0.047 C 
ATOM      6  C   LIG d   1       1.717  83.636 111.628  0.00  0.00     0.091 C 
ENDROOT
BRANCH   1   7
ATOM      7  O   LIG d   1       2.949  81.520 111.731  0.00  0.00    -0.368 OA
BRANCH   7   8
ATOM      8  C   LIG d   1       2.894  81.517 110.283  0.00  0.00     0.119 C 
BRANCH   8   9
ATOM      9  C   LIG d   1       2.623  80.068 109.833  0.00  0.00     0.028 C 
ATOM     10  C   LIG d   1       1.173  79.861 109.364  0.00  0.00     0.006 C 
ENDBRANCH   8   9
BRANCH   8  11
ATOM     11  C   LIG d   1       4.250  81.884 109.674  0.00  0.00     0.028 C 
ATOM     12  C   LIG d   1       4.169  82.161 108.164  0.00  0.00     0.006 C 
ENDBRANCH   8  11
ENDBRANCH   7   8
ENDBRANCH   1   7
BRANCH   6  13
ATOM     13  N   LIG d   1       2.876  84.529 111.886  0.00  0.00    -0.311 N 
ATOM     14  C   LIG d   1       3.415  85.319 110.959  0.00  0.00     0.210 C 
ATOM     15  C   LIG d   1       4.616  86.144 111.431  0.00  0.00     0.109 C 
ATOM     16  O   LIG d   1       2.991  85.439 109.800  0.00  0.00    -0.276 OA
ATOM     17  H   LIG d   1       3.263  84.518 112.810  0.00  0.00     0.149 HD
ENDBRANCH   6  13
BRANCH   5  18
ATOM     18  N   LIG d   1       0.054  85.483 111.212  0.00  0.00     0.381 N 
ATOM     19  H   LIG d   1       0.898  85.963 110.970  0.00  0.00    -0.090 HD
ATOM     20  H   LIG d   1      -0.515  86.103 111.760  0.00  0.00    -0.090 HD
ATOM     21  H   LIG d   1      -0.434  85.217 110.385  0.00  0.00    -0.090 HD
ENDBRANCH   5  18
BRANCH   3  22
ATOM     22  C   LIG d   1      -1.595  81.296 112.851  0.00  0.00     0.382 C 
ATOM     23  O   LIG d   1      -2.753  81.772 112.769  0.00  0.00    -0.241 OA
ATOM     24  O   LIG d   1      -1.428  80.173 113.364  0.00  0.00    -0.241 OA
ENDBRANCH   3  22
TORSDOF 7
ENDMDL
MODEL 4
REMARK VINA RESULT:      -6.2      2.140      3.908
REMARK  7 active torsions:
REMARK  status: ('A' for Active; 'I' for Inactive)
REMARK    1  A    between atoms: C_2  and  C_3 
REMARK    2  A    between atoms: C_3  and  O_6 
REMARK    3  A    between atoms: C_3  and  C_4 
REMARK    4  A    between atoms: C_7  and  O_6 
REMARK    5  A    between atoms: C_9  and  C_10 
REMARK    6  A    between atoms: N_15  and  C_14 
REMARK    7  A    between atoms: N_20  and  C_19 
REMARK       I    between atoms: C_22  and  N_20 
ROOT
ATOM      1  C   LIG d   1       0.640  82.506 111.111  0.00  0.00     0.161 C 
ATOM      2  C   LIG d   1      -0.205  81.462 111.523  0.00  0.00     0.016 C 
ATOM      3  C   LIG d   1      -1.200  81.612 112.515  0.00  0.00     0.038 C 
ATOM      4  C   LIG d   1      -1.521  82.864 113.061  0.00  0.00     0.028 C 
ATOM      5  C   LIG d   1      -0.357  83.848 113.044  0.00  0.00    -0.047 C 
ATOM      6  C   LIG d   1       0.231  83.906 111.615  0.00  0.00     0.091 C 
ENDROOT
BRANCH   1   7
ATOM      7  O   LIG d   1       0.755  82.504 109.675  0.00  0.00    -0.368 OA
BRANCH   7   8
ATOM      8  C   LIG d   1       2.041  82.105 109.138  0.00  0.00     0.119 C 
BRANCH   8   9
ATOM      9  C   LIG d   1       3.057  82.143 110.296  0.00  0.00     0.028 C 
ATOM     10  C   LIG d   1       4.345  82.896 109.922  0.00  0.00     0.006 C 
ENDBRANCH   8   9
BRANCH   8  11
ATOM     11  C   LIG d   1       2.556  83.119 108.113  0.00  0.00     0.028 C 
ATOM     12  C   LIG d   1       1.554  84.253 107.840  0.00  0.00     0.006 C 
ENDBRANCH   8  11
ENDBRANCH   7   8
ENDBRANCH   1   7
BRANCH   6  13
ATOM     13  N   LIG d   1       1.428  84.783 111.529  0.00  0.00    -0.311 N 
ATOM     14  C   LIG d   1       1.375  86.063 111.165  0.00  0.00     0.210 C 
ATOM     15  C   LIG d   1       2.728  86.780 111.123  0.00  0.00     0.109 C 
ATOM     16  O   LIG d   1       0.332  86.681 110.904  0.00  0.00    -0.276 OA
ATOM     17  H   LIG d   1       2.312  84.370 111.754  0.00  0.00     0.149 HD
ENDBRANCH   6  13
BRANCH   5  18
ATOM     18  N   LIG d   1      -0.867  85.151 113.512  0.00  0.00     0.381 N 
ATOM     19  H   LIG d   1      -1.836  85.070 113.747  0.00  0.00    -0.090 HD
ATOM     20  H   LIG d   1      -0.778  85.821 112.769  0.00  0.00    -0.090 HD
ATOM     21  H   LIG d   1      -0.349  85.454 114.307  0.00  0.00    -0.090 HD
ENDBRANCH   5  18
BRANCH   3  22
ATOM     22  C   LIG d   1      -1.860  80.493 113.002  0.00  0.00     0.382 C 
ATOM     23  O   LIG d   1      -3.114  80.457 113.005  0.00  0.00    -0.241 OA
ATOM     24  O   LIG d   1      -1.217  79.538 113.478  0.00  0.00    -0.241 OA
ENDBRANCH   3  22
TORSDOF 7
ENDMDL
MODEL 5
REMARK VINA RESULT:      -6.1      2.468      4.437
REMARK  7 active torsions:
REMARK  status: ('A' for Active; 'I' for Inactive)
REMARK    1  A    between atoms: C_2  and  C_3 
REMARK    2  A    between atoms: C_3  and  O_6 
REMARK    3  A    between atoms: C_3  and  C_4 
REMARK    4  A    between atoms: C_7  and  O_6 
REMARK    5  A    between atoms: C_9  and  C_10 
REMARK    6  A    between atoms: N_15  and  C_14 
REMARK    7  A    between atoms: N_20  and  C_19 
REMARK       I    between atoms: C_22  and  N_20 
ROOT
ATOM      1  C   LIG d   1       2.018  82.694 111.259  0.00  0.00     0.161 C 
ATOM      2  C   LIG d   1       2.543  81.618 110.523  0.00  0.00     0.016 C 
ATOM      3  C   LIG d   1       1.845  80.408 110.310  0.00  0.00     0.038 C 
ATOM      4  C   LIG d   1       0.505  80.247 110.693  0.00  0.00     0.028 C 
ATOM      5  C   LIG d   1       0.105  81.117 111.879  0.00  0.00    -0.047 C 
ATOM      6  C   LIG d   1       0.515  82.579 111.590  0.00  0.00     0.091 C 
ENDROOT
BRANCH   1   7
ATOM      7  O   LIG d   1       2.287  83.933 110.573  0.00  0.00    -0.368 OA
BRANCH   7   8
ATOM      8  C   LIG d   1       1.450  84.220 109.426  0.00  0.00     0.119 C 
BRANCH   8   9
ATOM      9  C   LIG d   1       2.159  83.649 108.182  0.00  0.00     0.028 C 
ATOM     10  C   LIG d   1       1.486  84.088 106.870  0.00  0.00     0.006 C 
ENDBRANCH   8   9
BRANCH   8  11
ATOM     11  C   LIG d   1       1.346  85.728 109.176  0.00  0.00     0.028 C 
ATOM     12  C   LIG d   1       1.720  86.563 110.411  0.00  0.00     0.006 C 
ENDBRANCH   8  11
ENDBRANCH   7   8
ENDBRANCH   1   7
BRANCH   6  13
ATOM     13  N   LIG d   1       0.236  83.484 112.736  0.00  0.00    -0.311 N 
ATOM     14  C   LIG d   1      -0.566  84.544 112.655  0.00  0.00     0.210 C 
ATOM     15  C   LIG d   1      -0.700  85.353 113.948  0.00  0.00     0.109 C 
ATOM     16  O   LIG d   1      -1.204  84.872 111.643  0.00  0.00    -0.276 OA
ATOM     17  H   LIG d   1       0.689  83.273 113.604  0.00  0.00     0.149 HD
ENDBRANCH   6  13
BRANCH   5  18
ATOM     18  N   LIG d   1      -1.346  80.953 112.083  0.00  0.00     0.381 N 
ATOM     19  H   LIG d   1      -1.804  80.859 111.199  0.00  0.00    -0.090 HD
ATOM     20  H   LIG d   1      -1.705  81.774 112.538  0.00  0.00    -0.090 HD
ATOM     21  H   LIG d   1      -1.523  80.149 112.645  0.00  0.00    -0.090 HD
ENDBRANCH   5  18
BRANCH   3  22
ATOM     22  C   LIG d   1       2.502  79.327 109.742  0.00  0.00     0.382 C 
ATOM     23  O   LIG d   1       1.894  78.243 109.571  0.00  0.00    -0.241 OA
ATOM     24  O   LIG d   1       3.707  79.408 109.439  0.00  0.00    -0.241 OA
ENDBRANCH   3  22
TORSDOF 7
ENDMDL
MODEL 6
REMARK VINA RESULT:      -5.9      1.708      2.222
REMARK  7 active torsions:
REMARK  status: ('A' for Active; 'I' for Inactive)
REMARK    1  A    between atoms: C_2  and  C_3 
REMARK    2  A    between atoms: C_3  and  O_6 
REMARK    3  A    between atoms: C_3  and  C_4 
REMARK    4  A    between atoms: C_7  and  O_6 
REMARK    5  A    between atoms: C_9  and  C_10 
REMARK    6  A    between atoms: N_15  and  C_14 
REMARK    7  A    between atoms: N_20  and  C_19 
REMARK       I    between atoms: C_22  and  N_20 
ROOT
ATOM      1  C   LIG d   1       1.954  83.279 111.489  0.00  0.00     0.161 C 
ATOM      2  C   LIG d   1       0.723  83.438 112.146  0.00  0.00     0.016 C 
ATOM      3  C   LIG d   1      -0.231  82.402 112.274  0.00  0.00     0.038 C 
ATOM      4  C   LIG d   1       0.049  81.085 111.883  0.00  0.00     0.028 C 
ATOM      5  C   LIG d   1       1.079  80.991 110.762  0.00  0.00    -0.047 C 
ATOM      6  C   LIG d   1       2.324  81.818 111.154  0.00  0.00     0.091 C 
ENDROOT
BRANCH   1   7
ATOM      7  O   LIG d   1       3.003  83.897 112.261  0.00  0.00    -0.368 OA
BRANCH   7   8
ATOM      8  C   LIG d   1       3.296  85.280 111.946  0.00  0.00     0.119 C 
BRANCH   8   9
ATOM      9  C   LIG d   1       2.910  85.510 110.472  0.00  0.00     0.028 C 
ATOM     10  C   LIG d   1       2.034  86.760 110.283  0.00  0.00     0.006 C 
ENDBRANCH   8   9
BRANCH   8  11
ATOM     11  C   LIG d   1       4.800  85.562 112.019  0.00  0.00     0.028 C 
ATOM     12  C   LIG d   1       5.229  86.156 113.370  0.00  0.00     0.006 C 
ENDBRANCH   8  11
ENDBRANCH   7   8
ENDBRANCH   1   7
BRANCH   6  13
ATOM     13  N   LIG d   1       3.347  81.849 110.076  0.00  0.00    -0.311 N 
ATOM     14  C   LIG d   1       3.088  82.247 108.832  0.00  0.00     0.210 C 
ATOM     15  C   LIG d   1       4.280  82.182 107.871  0.00  0.00     0.109 C 
ATOM     16  O   LIG d   1       1.993  82.678 108.440  0.00  0.00    -0.276 OA
ATOM     17  H   LIG d   1       4.270  81.546 110.315  0.00  0.00     0.149 HD
ENDBRANCH   6  13
BRANCH   5  18
ATOM     18  N   LIG d   1       1.378  79.562 110.550  0.00  0.00     0.381 N 
ATOM     19  H   LIG d   1       1.948  79.453 109.735  0.00  0.00    -0.090 HD
ATOM     20  H   LIG d   1       0.515  79.068 110.400  0.00  0.00    -0.090 HD
ATOM     21  H   LIG d   1       1.848  79.190 111.345  0.00  0.00    -0.090 HD
ENDBRANCH   5  18
BRANCH   3  22
ATOM     22  C   LIG d   1      -1.496  82.690 112.762  0.00  0.00     0.382 C 
ATOM     23  O   LIG d   1      -1.715  83.788 113.329  0.00  0.00    -0.241 OA
ATOM     24  O   LIG d   1      -2.410  81.848 112.683  0.00  0.00    -0.241 OA
ENDBRANCH   3  22
TORSDOF 7
ENDMDL
MODEL 7
REMARK VINA RESULT:      -5.8      2.477      5.239
REMARK  7 active torsions:
REMARK  status: ('A' for Active; 'I' for Inactive)
REMARK    1  A    between atoms: C_2  and  C_3 
REMARK    2  A    between atoms: C_3  and  O_6 
REMARK    3  A    between atoms: C_3  and  C_4 
REMARK    4  A    between atoms: C_7  and  O_6 
REMARK    5  A    between atoms: C_9  and  C_10 
REMARK    6  A    between atoms: N_15  and  C_14 
REMARK    7  A    between atoms: N_20  and  C_19 
REMARK       I    between atoms: C_22  and  N_20 
ROOT
ATOM      1  C   LIG d   1       2.359  83.405 111.607  0.00  0.00     0.161 C 
ATOM      2  C   LIG d   1       2.896  84.666 111.917  0.00  0.00     0.016 C 
ATOM      3  C   LIG d   1       3.977  85.245 111.214  0.00  0.00     0.038 C 
ATOM      4  C   LIG d   1       4.501  84.664 110.049  0.00  0.00     0.028 C 
ATOM      5  C   LIG d   1       4.326  83.150 109.996  0.00  0.00    -0.047 C 
ATOM      6  C   LIG d   1       2.844  82.806 110.270  0.00  0.00     0.091 C 
ENDROOT
BRANCH   1   7
ATOM      7  O   LIG d   1       0.919  83.467 111.635  0.00  0.00    -0.368 OA
BRANCH   7   8
ATOM      8  C   LIG d   1       0.339  84.793 111.697  0.00  0.00     0.119 C 
BRANCH   8   9
ATOM      9  C   LIG d   1      -0.704  84.790 112.832  0.00  0.00     0.028 C 
ATOM     10  C   LIG d   1      -1.188  83.373 113.179  0.00  0.00     0.006 C 
ENDBRANCH   8   9
BRANCH   8  11
ATOM     11  C   LIG d   1      -0.448  85.117 110.424  0.00  0.00     0.028 C 
ATOM     12  C   LIG d   1       0.443  85.659 109.295  0.00  0.00     0.006 C 
ENDBRANCH   8  11
ENDBRANCH   7   8
ENDBRANCH   1   7
BRANCH   6  13
ATOM     13  N   LIG d   1       2.602  81.341 110.320  0.00  0.00    -0.311 N 
ATOM     14  C   LIG d   1       1.660  80.729 109.604  0.00  0.00     0.210 C 
ATOM     15  C   LIG d   1       1.566  79.215 109.819  0.00  0.00     0.109 C 
ATOM     16  O   LIG d   1       0.915  81.291 108.787  0.00  0.00    -0.276 OA
ATOM     17  H   LIG d   1       3.182  80.803 110.933  0.00  0.00     0.149 HD
ENDBRANCH   6  13
BRANCH   5  18
ATOM     18  N   LIG d   1       4.790  82.694 108.672  0.00  0.00     0.381 N 
ATOM     19  H   LIG d   1       4.789  81.694 108.639  0.00  0.00    -0.090 HD
ATOM     20  H   LIG d   1       5.732  83.014 108.530  0.00  0.00    -0.090 HD
ATOM     21  H   LIG d   1       4.196  83.058 107.959  0.00  0.00    -0.090 HD
ENDBRANCH   5  18
BRANCH   3  22
ATOM     22  C   LIG d   1       4.573  86.399 111.699  0.00  0.00     0.382 C 
ATOM     23  O   LIG d   1       5.458  86.323 112.585  0.00  0.00    -0.241 OA
ATOM     24  O   LIG d   1       4.205  87.518 111.295  0.00  0.00    -0.241 OA
ENDBRANCH   3  22
TORSDOF 7
ENDMDL
MODEL 8
REMARK VINA RESULT:      -5.8      2.335      3.936
REMARK  7 active torsions:
REMARK  status: ('A' for Active; 'I' for Inactive)
REMARK    1  A    between atoms: C_2  and  C_3 
REMARK    2  A    between atoms: C_3  and  O_6 
REMARK    3  A    between atoms: C_3  and  C_4 
REMARK    4  A    between atoms: C_7  and  O_6 
REMARK    5  A    between atoms: C_9  and  C_10 
REMARK    6  A    between atoms: N_15  and  C_14 
REMARK    7  A    between atoms: N_20  and  C_19 
REMARK       I    between atoms: C_22  and  N_20 
ROOT
ATOM      1  C   LIG d   1       1.136  83.403 111.185  0.00  0.00     0.161 C 
ATOM      2  C   LIG d   1       1.106  84.357 112.216  0.00  0.00     0.016 C 
ATOM      3  C   LIG d   1       0.156  84.342 113.263  0.00  0.00     0.038 C 
ATOM      4  C   LIG d   1      -0.742  83.278 113.433  0.00  0.00     0.028 C 
ATOM      5  C   LIG d   1      -1.080  82.556 112.133  0.00  0.00    -0.047 C 
ATOM      6  C   LIG d   1       0.235  82.173 111.416  0.00  0.00     0.091 C 
ENDROOT
BRANCH   1   7
ATOM      7  O   LIG d   1       2.495  82.990 110.941  0.00  0.00    -0.368 OA
BRANCH   7   8
ATOM      8  C   LIG d   1       3.029  83.297 109.629  0.00  0.00     0.119 C 
BRANCH   8   9
ATOM      9  C   LIG d   1       4.353  84.058 109.835  0.00  0.00     0.028 C 
ATOM     10  C   LIG d   1       4.144  85.431 110.496  0.00  0.00     0.006 C 
ENDBRANCH   8   9
BRANCH   8  11
ATOM     11  C   LIG d   1       2.118  84.266 108.870  0.00  0.00     0.028 C 
ATOM     12  C   LIG d   1       1.640  83.701 107.523  0.00  0.00     0.006 C 
ENDBRANCH   8  11
ENDBRANCH   7   8
ENDBRANCH   1   7
BRANCH   6  13
ATOM     13  N   LIG d   1      -0.005  81.537 110.094  0.00  0.00    -0.311 N 
ATOM     14  C   LIG d   1      -0.033  80.218 109.909  0.00  0.00     0.210 C 
ATOM     15  C   LIG d   1      -0.276  79.772 108.464  0.00  0.00     0.109 C 
ATOM     16  O   LIG d   1       0.089  79.375 110.811  0.00  0.00    -0.276 OA
ATOM     17  H   LIG d   1      -0.145  82.147 109.313  0.00  0.00     0.149 HD
ENDBRANCH   6  13
BRANCH   5  18
ATOM     18  N   LIG d   1      -1.913  81.388 112.475  0.00  0.00     0.381 N 
ATOM     19  H   LIG d   1      -2.240  81.469 113.417  0.00  0.00    -0.090 HD
ATOM     20  H   LIG d   1      -1.352  80.557 112.407  0.00  0.00    -0.090 HD
ATOM     21  H   LIG d   1      -2.688  81.327 111.851  0.00  0.00    -0.090 HD
ENDBRANCH   5  18
BRANCH   3  22
ATOM     22  C   LIG d   1       0.071  85.421 114.130  0.00  0.00     0.382 C 
ATOM     23  O   LIG d   1       1.117  85.968 114.554  0.00  0.00    -0.241 OA
ATOM     24  O   LIG d   1      -1.038  85.826 114.528  0.00  0.00    -0.241 OA
ENDBRANCH   3  22
TORSDOF 7
ENDMDL
MODEL 9
REMARK VINA RESULT:      -5.7      1.798      5.029
REMARK  7 active torsions:
REMARK  status: ('A' for Active; 'I' for Inactive)
REMARK    1  A    between atoms: C_2  and  C_3 
REMARK    2  A    between atoms: C_3  and  O_6 
REMARK    3  A    between atoms: C_3  and  C_4 
REMARK    4  A    between atoms: C_7  and  O_6 
REMARK    5  A    between atoms: C_9  and  C_10 
REMARK    6  A    between atoms: N_15  and  C_14 
REMARK    7  A    between atoms: N_20  and  C_19 
REMARK       I    between atoms: C_22  and  N_20 
ROOT
ATOM      1  C   LIG d   1       1.549  81.488 112.053  0.00  0.00     0.161 C 
ATOM      2  C   LIG d   1       2.519  82.162 111.293  0.00  0.00     0.016 C 
ATOM      3  C   LIG d   1       2.534  82.169 109.880  0.00  0.00     0.038 C 
ATOM      4  C   LIG d   1       1.485  81.623 109.125  0.00  0.00     0.028 C 
ATOM      5  C   LIG d   1       0.747  80.496 109.839  0.00  0.00    -0.047 C 
ATOM      6  C   LIG d   1       0.335  80.980 111.248  0.00  0.00     0.091 C 
ENDROOT
BRANCH   1   7
ATOM      7  O   LIG d   1       1.113  82.325 113.143  0.00  0.00    -0.368 OA
BRANCH   7   8
ATOM      8  C   LIG d   1       1.105  83.751 112.887  0.00  0.00     0.119 C 
BRANCH   8   9
ATOM      9  C   LIG d   1       1.500  84.458 114.198  0.00  0.00     0.028 C 
ATOM     10  C   LIG d   1       2.118  85.846 113.953  0.00  0.00     0.006 C 
ENDBRANCH   8   9
BRANCH   8  11
ATOM     11  C   LIG d   1      -0.307  84.251 112.566  0.00  0.00     0.028 C 
ATOM     12  C   LIG d   1      -0.508  84.550 111.072  0.00  0.00     0.006 C 
ENDBRANCH   8  11
ENDBRANCH   7   8
ENDBRANCH   1   7
BRANCH   6  13
ATOM     13  N   LIG d   1      -0.319  79.910 112.046  0.00  0.00    -0.311 N 
ATOM     14  C   LIG d   1      -1.492  80.065 112.657  0.00  0.00     0.210 C 
ATOM     15  C   LIG d   1      -1.977  78.843 113.444  0.00  0.00     0.109 C 
ATOM     16  O   LIG d   1      -2.193  81.086 112.595  0.00  0.00    -0.276 OA
ATOM     17  H   LIG d   1       0.166  79.038 112.123  0.00  0.00     0.149 HD
ENDBRANCH   6  13
BRANCH   5  18
ATOM     18  N   LIG d   1      -0.404  80.114 108.999  0.00  0.00     0.381 N 
ATOM     19  H   LIG d   1      -0.719  79.199 109.253  0.00  0.00    -0.090 HD
ATOM     20  H   LIG d   1      -0.111  80.091 108.038  0.00  0.00    -0.090 HD
ATOM     21  H   LIG d   1      -1.143  80.772 109.114  0.00  0.00    -0.090 HD
ENDBRANCH   5  18
BRANCH   3  22
ATOM     22  C   LIG d   1       3.627  82.692 109.206  0.00  0.00     0.382 C 
ATOM     23  O   LIG d   1       3.959  82.224 108.090  0.00  0.00    -0.241 OA
ATOM     24  O   LIG d   1       4.313  83.596 109.721  0.00  0.00    -0.241 OA
ENDBRANCH   3  22
TORSDOF 7
ENDMDL
