MODEL 1
REMARK VINA RESULT:      -4.9      0.000      0.000
REMARK  7 active torsions:
REMARK  status: ('A' for Active; 'I' for Inactive)
REMARK    1  A    between atoms: C_2  and  C_3 
REMARK    2  A    between atoms: C_3  and  O_6 
REMARK    3  A    between atoms: C_3  and  C_4 
REMARK    4  A    between atoms: C_7  and  O_6 
REMARK    5  A    between atoms: C_9  and  C_10 
REMARK    6  A    between atoms: N_15  and  C_14 
REMARK    7  A    between atoms: N_20  and  C_19 
REMARK       I    between atoms: C_22  and  N_20 
ROOT
ATOM      1  C   LIG d   1      -1.192  79.916 115.547  0.00  0.00     0.161 C 
ATOM      2  C   LIG d   1      -1.163  81.320 115.563  0.00  0.00     0.016 C 
ATOM      3  C   LIG d   1      -1.446  82.116 114.429  0.00  0.00     0.038 C 
ATOM      4  C   LIG d   1      -1.928  81.561 113.234  0.00  0.00     0.028 C 
ATOM      5  C   LIG d   1      -1.488  80.117 113.017  0.00  0.00    -0.047 C 
ATOM      6  C   LIG d   1      -1.823  79.295 114.283  0.00  0.00     0.091 C 
ENDROOT
BRANCH   1   7
ATOM      7  O   LIG d   1      -1.856  79.428 116.730  0.00  0.00    -0.368 OA
BRANCH   7   8
ATOM      8  C   LIG d   1      -3.302  79.357 116.666  0.00  0.00     0.119 C 
BRANCH   8   9
ATOM      9  C   LIG d   1      -3.859  80.209 117.823  0.00  0.00     0.028 C 
ATOM     10  C   LIG d   1      -4.558  81.486 117.327  0.00  0.00     0.006 C 
ENDBRANCH   8   9
BRANCH   8  11
ATOM     11  C   LIG d   1      -3.802  77.934 116.932  0.00  0.00     0.028 C 
ATOM     12  C   LIG d   1      -2.685  76.987 117.397  0.00  0.00     0.006 C 
ENDBRANCH   8  11
ENDBRANCH   7   8
ENDBRANCH   1   7
BRANCH   6  13
ATOM     13  N   LIG d   1      -1.350  77.890 114.188  0.00  0.00    -0.311 N 
ATOM     14  C   LIG d   1      -2.083  76.903 113.675  0.00  0.00     0.210 C 
ATOM     15  C   LIG d   1      -1.413  75.525 113.690  0.00  0.00     0.109 C 
ATOM     16  O   LIG d   1      -3.211  77.044 113.178  0.00  0.00    -0.276 OA
ATOM     17  H   LIG d   1      -0.433  77.692 114.539  0.00  0.00     0.149 HD
ENDBRANCH   6  13
BRANCH   5  18
ATOM     18  N   LIG d   1      -2.172  79.620 111.808  0.00  0.00     0.381 N 
ATOM     19  H   LIG d   1      -3.159  79.589 111.966  0.00  0.00    -0.090 HD
ATOM     20  H   LIG d   1      -1.854  78.687 111.616  0.00  0.00    -0.090 HD
ATOM     21  H   LIG d   1      -1.970  80.214 111.034  0.00  0.00    -0.090 HD
ENDBRANCH   5  18
BRANCH   3  22
ATOM     22  C   LIG d   1      -1.209  83.482 114.472  0.00  0.00     0.382 C 
ATOM     23  O   LIG d   1      -0.035  83.912 114.573  0.00  0.00    -0.241 OA
ATOM     24  O   LIG d   1      -2.158  84.289 114.457  0.00  0.00    -0.241 OA
ENDBRANCH   3  22
TORSDOF 7
ENDMDL
MODEL 2
REMARK VINA RESULT:      -4.8      7.570     10.820
REMARK  7 active torsions:
REMARK  status: ('A' for Active; 'I' for Inactive)
REMARK    1  A    between atoms: C_2  and  C_3 
REMARK    2  A    between atoms: C_3  and  O_6 
REMARK    3  A    between atoms: C_3  and  C_4 
REMARK    4  A    between atoms: C_7  and  O_6 
REMARK    5  A    between atoms: C_9  and  C_10 
REMARK    6  A    between atoms: N_15  and  C_14 
REMARK    7  A    between atoms: N_20  and  C_19 
REMARK       I    between atoms: C_22  and  N_20 
ROOT
ATOM      1  C   LIG d   1       0.887  88.763 116.490  0.00  0.00     0.161 C 
ATOM      2  C   LIG d   1      -0.484  88.887 116.771  0.00  0.00     0.016 C 
ATOM      3  C   LIG d   1      -1.073  90.075 117.262  0.00  0.00     0.038 C 
ATOM      4  C   LIG d   1      -0.351  91.274 117.363  0.00  0.00     0.028 C 
ATOM      5  C   LIG d   1       1.145  91.064 117.570  0.00  0.00    -0.047 C 
ATOM      6  C   LIG d   1       1.670  90.092 116.489  0.00  0.00     0.091 C 
ENDROOT
BRANCH   1   7
ATOM      7  O   LIG d   1       1.069  88.073 115.238  0.00  0.00    -0.368 OA
BRANCH   7   8
ATOM      8  C   LIG d   1       1.477  86.686 115.328  0.00  0.00     0.119 C 
BRANCH   8   9
ATOM      9  C   LIG d   1       2.788  86.537 114.532  0.00  0.00     0.028 C 
ATOM     10  C   LIG d   1       2.700  87.170 113.133  0.00  0.00     0.006 C 
ENDBRANCH   8   9
BRANCH   8  11
ATOM     11  C   LIG d   1       0.472  85.763 114.632  0.00  0.00     0.028 C 
ATOM     12  C   LIG d   1       0.593  84.300 115.086  0.00  0.00     0.006 C 
ENDBRANCH   8  11
ENDBRANCH   7   8
ENDBRANCH   1   7
BRANCH   6  13
ATOM     13  N   LIG d   1       3.109  89.767 116.669  0.00  0.00    -0.311 N 
ATOM     14  C   LIG d   1       4.004  89.831 115.685  0.00  0.00     0.210 C 
ATOM     15  C   LIG d   1       5.430  89.435 116.081  0.00  0.00     0.109 C 
ATOM     16  O   LIG d   1       3.759  90.209 114.530  0.00  0.00    -0.276 OA
ATOM     17  H   LIG d   1       3.401  89.481 117.583  0.00  0.00     0.149 HD
ENDBRANCH   6  13
BRANCH   5  18
ATOM     18  N   LIG d   1       1.792  92.389 117.519  0.00  0.00     0.381 N 
ATOM     19  H   LIG d   1       1.543  92.919 118.331  0.00  0.00    -0.090 HD
ATOM     20  H   LIG d   1       1.461  92.882 116.708  0.00  0.00    -0.090 HD
ATOM     21  H   LIG d   1       2.781  92.284 117.473  0.00  0.00    -0.090 HD
ENDBRANCH   5  18
BRANCH   3  22
ATOM     22  C   LIG d   1      -2.390  90.061 117.696  0.00  0.00     0.382 C 
ATOM     23  O   LIG d   1      -3.060  89.002 117.630  0.00  0.00    -0.241 OA
ATOM     24  O   LIG d   1      -2.930  91.104 118.111  0.00  0.00    -0.241 OA
ENDBRANCH   3  22
TORSDOF 7
ENDMDL
MODEL 3
REMARK VINA RESULT:      -4.7      2.477      5.919
REMARK  7 active torsions:
REMARK  status: ('A' for Active; 'I' for Inactive)
REMARK    1  A    between atoms: C_2  and  C_3 
REMARK    2  A    between atoms: C_3  and  O_6 
REMARK    3  A    between atoms: C_3  and  C_4 
REMARK    4  A    between atoms: C_7  and  O_6 
REMARK    5  A    between atoms: C_9  and  C_10 
REMARK    6  A    between atoms: N_15  and  C_14 
REMARK    7  A    between atoms: N_20  and  C_19 
REMARK       I    between atoms: C_22  and  N_20 
ROOT
ATOM      1  C   LIG d   1      -2.125  78.875 115.081  0.00  0.00     0.161 C 
ATOM      2  C   LIG d   1      -1.779  77.757 114.303  0.00  0.00     0.016 C 
ATOM      3  C   LIG d   1      -1.687  76.446 114.823  0.00  0.00     0.038 C 
ATOM      4  C   LIG d   1      -2.086  76.138 116.133  0.00  0.00     0.028 C 
ATOM      5  C   LIG d   1      -1.960  77.313 117.096  0.00  0.00    -0.047 C 
ATOM      6  C   LIG d   1      -2.671  78.542 116.485  0.00  0.00     0.091 C 
ENDROOT
BRANCH   1   7
ATOM      7  O   LIG d   1      -3.063  79.699 114.361  0.00  0.00    -0.368 OA
BRANCH   7   8
ATOM      8  C   LIG d   1      -2.535  80.929 113.804  0.00  0.00     0.119 C 
BRANCH   8   9
ATOM      9  C   LIG d   1      -2.097  80.631 112.357  0.00  0.00     0.028 C 
ATOM     10  C   LIG d   1      -0.568  80.645 112.192  0.00  0.00     0.006 C 
ENDBRANCH   8   9
BRANCH   8  11
ATOM     11  C   LIG d   1      -1.260  81.367 114.532  0.00  0.00     0.028 C 
ATOM     12  C   LIG d   1      -1.411  82.729 115.228  0.00  0.00     0.006 C 
ENDBRANCH   8  11
ENDBRANCH   7   8
ENDBRANCH   1   7
BRANCH   6  13
ATOM     13  N   LIG d   1      -2.524  79.759 117.325  0.00  0.00    -0.311 N 
ATOM     14  C   LIG d   1      -3.510  80.628 117.536  0.00  0.00     0.210 C 
ATOM     15  C   LIG d   1      -3.140  81.825 118.418  0.00  0.00     0.109 C 
ATOM     16  O   LIG d   1      -4.666  80.505 117.103  0.00  0.00    -0.276 OA
ATOM     17  H   LIG d   1      -1.627  79.920 117.741  0.00  0.00     0.149 HD
ENDBRANCH   6  13
BRANCH   5  18
ATOM     18  N   LIG d   1      -2.538  76.894 118.388  0.00  0.00     0.381 N 
ATOM     19  H   LIG d   1      -3.006  76.016 118.281  0.00  0.00    -0.090 HD
ATOM     20  H   LIG d   1      -3.213  77.578 118.679  0.00  0.00    -0.090 HD
ATOM     21  H   LIG d   1      -1.819  76.814 119.073  0.00  0.00    -0.090 HD
ENDBRANCH   5  18
BRANCH   3  22
ATOM     22  C   LIG d   1      -1.155  75.432 114.042  0.00  0.00     0.382 C 
ATOM     23  O   LIG d   1      -0.225  74.718 114.489  0.00  0.00    -0.241 OA
ATOM     24  O   LIG d   1      -1.561  75.252 112.878  0.00  0.00    -0.241 OA
ENDBRANCH   3  22
TORSDOF 7
ENDMDL
MODEL 4
REMARK VINA RESULT:      -4.5     12.486     14.068
REMARK  7 active torsions:
REMARK  status: ('A' for Active; 'I' for Inactive)
REMARK    1  A    between atoms: C_2  and  C_3 
REMARK    2  A    between atoms: C_3  and  O_6 
REMARK    3  A    between atoms: C_3  and  C_4 
REMARK    4  A    between atoms: C_7  and  O_6 
REMARK    5  A    between atoms: C_9  and  C_10 
REMARK    6  A    between atoms: N_15  and  C_14 
REMARK    7  A    between atoms: N_20  and  C_19 
REMARK       I    between atoms: C_22  and  N_20 
ROOT
ATOM      1  C   LIG d   1      10.951  80.028 114.486  0.00  0.00     0.161 C 
ATOM      2  C   LIG d   1       9.633  79.732 114.868  0.00  0.00     0.016 C 
ATOM      3  C   LIG d   1       9.213  78.447 115.283  0.00  0.00     0.038 C 
ATOM      4  C   LIG d   1      10.124  77.400 115.488  0.00  0.00     0.028 C 
ATOM      5  C   LIG d   1      11.381  77.514 114.633  0.00  0.00    -0.047 C 
ATOM      6  C   LIG d   1      11.982  78.927 114.810  0.00  0.00     0.091 C 
ENDROOT
BRANCH   1   7
ATOM      7  O   LIG d   1      11.358  81.282 115.068  0.00  0.00    -0.368 OA
BRANCH   7   8
ATOM      8  C   LIG d   1      11.377  82.423 114.175  0.00  0.00     0.119 C 
BRANCH   8   9
ATOM      9  C   LIG d   1      10.075  83.214 114.407  0.00  0.00     0.028 C 
ATOM     10  C   LIG d   1      10.152  84.120 115.648  0.00  0.00     0.006 C 
ENDBRANCH   8   9
BRANCH   8  11
ATOM     11  C   LIG d   1      11.329  81.984 112.709  0.00  0.00     0.028 C 
ATOM     12  C   LIG d   1      10.292  82.766 111.887  0.00  0.00     0.006 C 
ENDBRANCH   8  11
ENDBRANCH   7   8
ENDBRANCH   1   7
BRANCH   6  13
ATOM     13  N   LIG d   1      13.168  79.151 113.943  0.00  0.00    -0.311 N 
ATOM     14  C   LIG d   1      14.302  79.697 114.378  0.00  0.00     0.210 C 
ATOM     15  C   LIG d   1      15.393  79.857 113.315  0.00  0.00     0.109 C 
ATOM     16  O   LIG d   1      14.520  80.034 115.552  0.00  0.00    -0.276 OA
ATOM     17  H   LIG d   1      13.089  78.878 112.983  0.00  0.00     0.149 HD
ENDBRANCH   6  13
BRANCH   5  18
ATOM     18  N   LIG d   1      12.301  76.438 115.047  0.00  0.00     0.381 N 
ATOM     19  H   LIG d   1      11.794  75.727 115.534  0.00  0.00    -0.090 HD
ATOM     20  H   LIG d   1      12.988  76.820 115.672  0.00  0.00    -0.090 HD
ATOM     21  H   LIG d   1      12.750  76.047 114.248  0.00  0.00    -0.090 HD
ENDBRANCH   5  18
BRANCH   3  22
ATOM     22  C   LIG d   1       7.862  78.188 115.458  0.00  0.00     0.382 C 
ATOM     23  O   LIG d   1       7.231  78.751 116.384  0.00  0.00    -0.241 OA
ATOM     24  O   LIG d   1       7.277  77.365 114.728  0.00  0.00    -0.241 OA
ENDBRANCH   3  22
TORSDOF 7
ENDMDL
MODEL 5
REMARK VINA RESULT:      -4.5      4.463      6.630
REMARK  7 active torsions:
REMARK  status: ('A' for Active; 'I' for Inactive)
REMARK    1  A    between atoms: C_2  and  C_3 
REMARK    2  A    between atoms: C_3  and  O_6 
REMARK    3  A    between atoms: C_3  and  C_4 
REMARK    4  A    between atoms: C_7  and  O_6 
REMARK    5  A    between atoms: C_9  and  C_10 
REMARK    6  A    between atoms: N_15  and  C_14 
REMARK    7  A    between atoms: N_20  and  C_19 
REMARK       I    between atoms: C_22  and  N_20 
ROOT
ATOM      1  C   LIG d   1       1.386  84.643 114.063  0.00  0.00     0.161 C 
ATOM      2  C   LIG d   1       1.851  85.846 113.507  0.00  0.00     0.016 C 
ATOM      3  C   LIG d   1       3.034  86.494 113.930  0.00  0.00     0.038 C 
ATOM      4  C   LIG d   1       3.919  85.899 114.842  0.00  0.00     0.028 C 
ATOM      5  C   LIG d   1       3.239  84.927 115.800  0.00  0.00    -0.047 C 
ATOM      6  C   LIG d   1       2.396  83.923 114.981  0.00  0.00     0.091 C 
ENDROOT
BRANCH   1   7
ATOM      7  O   LIG d   1       0.943  83.759 113.015  0.00  0.00    -0.368 OA
BRANCH   7   8
ATOM      8  C   LIG d   1      -0.485  83.525 112.940  0.00  0.00     0.119 C 
BRANCH   8   9
ATOM      9  C   LIG d   1      -1.120  84.124 114.210  0.00  0.00     0.028 C 
ATOM     10  C   LIG d   1      -1.931  83.087 115.005  0.00  0.00     0.006 C 
ENDBRANCH   8   9
BRANCH   8  11
ATOM     11  C   LIG d   1      -0.808  82.029 112.992  0.00  0.00     0.028 C 
ATOM     12  C   LIG d   1       0.442  81.144 112.860  0.00  0.00     0.006 C 
ENDBRANCH   8  11
ENDBRANCH   7   8
ENDBRANCH   1   7
BRANCH   6  13
ATOM     13  N   LIG d   1       1.630  82.988 115.847  0.00  0.00    -0.311 N 
ATOM     14  C   LIG d   1       2.080  81.788 116.208  0.00  0.00     0.210 C 
ATOM     15  C   LIG d   1       1.123  80.976 117.087  0.00  0.00     0.109 C 
ATOM     16  O   LIG d   1       3.194  81.332 115.911  0.00  0.00    -0.276 OA
ATOM     17  H   LIG d   1       0.728  83.291 116.159  0.00  0.00     0.149 HD
ENDBRANCH   6  13
BRANCH   5  18
ATOM     18  N   LIG d   1       4.294  84.278 116.601  0.00  0.00     0.381 N 
ATOM     19  H   LIG d   1       3.900  83.901 117.439  0.00  0.00    -0.090 HD
ATOM     20  H   LIG d   1       4.979  84.968 116.857  0.00  0.00    -0.090 HD
ATOM     21  H   LIG d   1       4.725  83.552 116.072  0.00  0.00    -0.090 HD
ENDBRANCH   5  18
BRANCH   3  22
ATOM     22  C   LIG d   1       3.323  87.769 113.469  0.00  0.00     0.382 C 
ATOM     23  O   LIG d   1       4.511  88.100 113.242  0.00  0.00    -0.241 OA
ATOM     24  O   LIG d   1       2.414  88.607 113.320  0.00  0.00    -0.241 OA
ENDBRANCH   3  22
TORSDOF 7
ENDMDL
MODEL 6
REMARK VINA RESULT:      -4.4      6.482      9.381
REMARK  7 active torsions:
REMARK  status: ('A' for Active; 'I' for Inactive)
REMARK    1  A    between atoms: C_2  and  C_3 
REMARK    2  A    between atoms: C_3  and  O_6 
REMARK    3  A    between atoms: C_3  and  C_4 
REMARK    4  A    between atoms: C_7  and  O_6 
REMARK    5  A    between atoms: C_9  and  C_10 
REMARK    6  A    between atoms: N_15  and  C_14 
REMARK    7  A    between atoms: N_20  and  C_19 
REMARK       I    between atoms: C_22  and  N_20 
ROOT
ATOM      1  C   LIG d   1       1.913  86.773 115.057  0.00  0.00     0.161 C 
ATOM      2  C   LIG d   1       0.666  86.206 114.746  0.00  0.00     0.016 C 
ATOM      3  C   LIG d   1       0.441  85.397 113.608  0.00  0.00     0.038 C 
ATOM      4  C   LIG d   1       1.492  84.975 112.779  0.00  0.00     0.028 C 
ATOM      5  C   LIG d   1       2.677  85.934 112.768  0.00  0.00    -0.047 C 
ATOM      6  C   LIG d   1       3.095  86.233 114.226  0.00  0.00     0.091 C 
ENDROOT
BRANCH   1   7
ATOM      7  O   LIG d   1       2.180  86.623 116.465  0.00  0.00    -0.368 OA
BRANCH   7   8
ATOM      8  C   LIG d   1       2.100  87.831 117.262  0.00  0.00     0.119 C 
BRANCH   8   9
ATOM      9  C   LIG d   1       1.436  88.916 116.392  0.00  0.00     0.028 C 
ATOM     10  C   LIG d   1       0.012  89.257 116.864  0.00  0.00     0.006 C 
ENDBRANCH   8   9
BRANCH   8  11
ATOM     11  C   LIG d   1       3.493  88.373 117.594  0.00  0.00     0.028 C 
ATOM     12  C   LIG d   1       3.633  89.875 117.299  0.00  0.00     0.006 C 
ENDBRANCH   8  11
ENDBRANCH   7   8
ENDBRANCH   1   7
BRANCH   6  13
ATOM     13  N   LIG d   1       4.195  87.229 114.307  0.00  0.00    -0.311 N 
ATOM     14  C   LIG d   1       4.096  88.471 113.837  0.00  0.00     0.210 C 
ATOM     15  C   LIG d   1       5.354  89.329 114.005  0.00  0.00     0.109 C 
ATOM     16  O   LIG d   1       3.074  88.954 113.324  0.00  0.00    -0.276 OA
ATOM     17  H   LIG d   1       5.049  86.931 114.736  0.00  0.00     0.149 HD
ENDBRANCH   6  13
BRANCH   5  18
ATOM     18  N   LIG d   1       3.752  85.305 111.976  0.00  0.00     0.381 N 
ATOM     19  H   LIG d   1       3.689  84.310 112.050  0.00  0.00    -0.090 HD
ATOM     20  H   LIG d   1       4.640  85.594 112.347  0.00  0.00    -0.090 HD
ATOM     21  H   LIG d   1       3.677  85.580 111.021  0.00  0.00    -0.090 HD
ENDBRANCH   5  18
BRANCH   3  22
ATOM     22  C   LIG d   1      -0.853  85.036 113.266  0.00  0.00     0.382 C 
ATOM     23  O   LIG d   1      -1.201  83.831 113.316  0.00  0.00    -0.241 OA
ATOM     24  O   LIG d   1      -1.664  85.893 112.867  0.00  0.00    -0.241 OA
ENDBRANCH   3  22
TORSDOF 7
ENDMDL
MODEL 7
REMARK VINA RESULT:      -4.3      2.190      3.562
REMARK  7 active torsions:
REMARK  status: ('A' for Active; 'I' for Inactive)
REMARK    1  A    between atoms: C_2  and  C_3 
REMARK    2  A    between atoms: C_3  and  O_6 
REMARK    3  A    between atoms: C_3  and  C_4 
REMARK    4  A    between atoms: C_7  and  O_6 
REMARK    5  A    between atoms: C_9  and  C_10 
REMARK    6  A    between atoms: N_15  and  C_14 
REMARK    7  A    between atoms: N_20  and  C_19 
REMARK       I    between atoms: C_22  and  N_20 
ROOT
ATOM      1  C   LIG d   1      -2.527  79.374 115.856  0.00  0.00     0.161 C 
ATOM      2  C   LIG d   1      -2.460  80.685 115.355  0.00  0.00     0.016 C 
ATOM      3  C   LIG d   1      -1.303  81.493 115.443  0.00  0.00     0.038 C 
ATOM      4  C   LIG d   1      -0.079  80.988 115.907  0.00  0.00     0.028 C 
ATOM      5  C   LIG d   1      -0.234  79.830 116.887  0.00  0.00    -0.047 C 
ATOM      6  C   LIG d   1      -1.169  78.767 116.265  0.00  0.00     0.091 C 
ENDROOT
BRANCH   1   7
ATOM      7  O   LIG d   1      -3.191  78.520 114.903  0.00  0.00    -0.368 OA
BRANCH   7   8
ATOM      8  C   LIG d   1      -2.353  77.949 113.868  0.00  0.00     0.119 C 
BRANCH   8   9
ATOM      9  C   LIG d   1      -2.715  78.647 112.542  0.00  0.00     0.028 C 
ATOM     10  C   LIG d   1      -1.556  79.496 111.991  0.00  0.00     0.006 C 
ENDBRANCH   8   9
BRANCH   8  11
ATOM     11  C   LIG d   1      -2.673  76.468 113.646  0.00  0.00     0.028 C 
ATOM     12  C   LIG d   1      -3.711  75.927 114.643  0.00  0.00     0.006 C 
ENDBRANCH   8  11
ENDBRANCH   7   8
ENDBRANCH   1   7
BRANCH   6  13
ATOM     13  N   LIG d   1      -1.441  77.639 117.193  0.00  0.00    -0.311 N 
ATOM     14  C   LIG d   1      -0.950  76.413 117.021  0.00  0.00     0.210 C 
ATOM     15  C   LIG d   1      -1.371  75.393 118.084  0.00  0.00     0.109 C 
ATOM     16  O   LIG d   1      -0.180  76.082 116.107  0.00  0.00    -0.276 OA
ATOM     17  H   LIG d   1      -2.032  77.828 117.979  0.00  0.00     0.149 HD
ENDBRANCH   6  13
BRANCH   5  18
ATOM     18  N   LIG d   1       1.115  79.312 117.182  0.00  0.00     0.381 N 
ATOM     19  H   LIG d   1       1.405  79.618 118.089  0.00  0.00    -0.090 HD
ATOM     20  H   LIG d   1       1.759  79.679 116.504  0.00  0.00    -0.090 HD
ATOM     21  H   LIG d   1       1.114  78.316 117.144  0.00  0.00    -0.090 HD
ENDBRANCH   5  18
BRANCH   3  22
ATOM     22  C   LIG d   1      -1.375  82.835 115.102  0.00  0.00     0.382 C 
ATOM     23  O   LIG d   1      -0.352  83.558 115.182  0.00  0.00    -0.241 OA
ATOM     24  O   LIG d   1      -2.459  83.342 114.756  0.00  0.00    -0.241 OA
ENDBRANCH   3  22
TORSDOF 7
ENDMDL
MODEL 8
REMARK VINA RESULT:      -4.2      4.094      6.387
REMARK  7 active torsions:
REMARK  status: ('A' for Active; 'I' for Inactive)
REMARK    1  A    between atoms: C_2  and  C_3 
REMARK    2  A    between atoms: C_3  and  O_6 
REMARK    3  A    between atoms: C_3  and  C_4 
REMARK    4  A    between atoms: C_7  and  O_6 
REMARK    5  A    between atoms: C_9  and  C_10 
REMARK    6  A    between atoms: N_15  and  C_14 
REMARK    7  A    between atoms: N_20  and  C_19 
REMARK       I    between atoms: C_22  and  N_20 
ROOT
ATOM      1  C   LIG d   1       0.886  82.697 114.651  0.00  0.00     0.161 C 
ATOM      2  C   LIG d   1      -0.217  81.875 114.366  0.00  0.00     0.016 C 
ATOM      3  C   LIG d   1      -1.127  82.131 113.315  0.00  0.00     0.038 C 
ATOM      4  C   LIG d   1      -0.909  83.151 112.376  0.00  0.00     0.028 C 
ATOM      5  C   LIG d   1      -0.085  84.311 112.924  0.00  0.00    -0.047 C 
ATOM      6  C   LIG d   1       1.203  83.752 113.570  0.00  0.00     0.091 C 
ENDROOT
BRANCH   1   7
ATOM      7  O   LIG d   1       2.047  81.884 114.914  0.00  0.00    -0.368 OA
BRANCH   7   8
ATOM      8  C   LIG d   1       2.546  81.908 116.274  0.00  0.00     0.119 C 
BRANCH   8   9
ATOM      9  C   LIG d   1       2.362  80.494 116.859  0.00  0.00     0.028 C 
ATOM     10  C   LIG d   1       1.047  80.351 117.644  0.00  0.00     0.006 C 
ENDBRANCH   8   9
BRANCH   8  11
ATOM     11  C   LIG d   1       1.703  82.827 117.162  0.00  0.00     0.028 C 
ATOM     12  C   LIG d   1       2.516  83.984 117.763  0.00  0.00     0.006 C 
ENDBRANCH   8  11
ENDBRANCH   7   8
ENDBRANCH   1   7
BRANCH   6  13
ATOM     13  N   LIG d   1       2.026  84.814 114.205  0.00  0.00    -0.311 N 
ATOM     14  C   LIG d   1       3.340  84.933 114.019  0.00  0.00     0.210 C 
ATOM     15  C   LIG d   1       3.999  86.085 114.784  0.00  0.00     0.109 C 
ATOM     16  O   LIG d   1       4.016  84.213 113.268  0.00  0.00    -0.276 OA
ATOM     17  H   LIG d   1       1.553  85.460 114.806  0.00  0.00     0.149 HD
ENDBRANCH   6  13
BRANCH   5  18
ATOM     18  N   LIG d   1       0.183  85.235 111.805  0.00  0.00     0.381 N 
ATOM     19  H   LIG d   1       0.737  86.004 112.126  0.00  0.00    -0.090 HD
ATOM     20  H   LIG d   1      -0.691  85.595 111.465  0.00  0.00    -0.090 HD
ATOM     21  H   LIG d   1       0.660  84.755 111.074  0.00  0.00    -0.090 HD
ENDBRANCH   5  18
BRANCH   3  22
ATOM     22  C   LIG d   1      -2.292  81.386 113.218  0.00  0.00     0.382 C 
ATOM     23  O   LIG d   1      -3.022  81.491 112.203  0.00  0.00    -0.241 OA
ATOM     24  O   LIG d   1      -2.646  80.643 114.153  0.00  0.00    -0.241 OA
ENDBRANCH   3  22
TORSDOF 7
ENDMDL
MODEL 9
REMARK VINA RESULT:      -4.1      3.196      5.248
REMARK  7 active torsions:
REMARK  status: ('A' for Active; 'I' for Inactive)
REMARK    1  A    between atoms: C_2  and  C_3 
REMARK    2  A    between atoms: C_3  and  O_6 
REMARK    3  A    between atoms: C_3  and  C_4 
REMARK    4  A    between atoms: C_7  and  O_6 
REMARK    5  A    between atoms: C_9  and  C_10 
REMARK    6  A    between atoms: N_15  and  C_14 
REMARK    7  A    between atoms: N_20  and  C_19 
REMARK       I    between atoms: C_22  and  N_20 
ROOT
ATOM      1  C   LIG d   1      -0.052  82.940 114.816  0.00  0.00     0.161 C 
ATOM      2  C   LIG d   1      -1.238  82.227 114.570  0.00  0.00     0.016 C 
ATOM      3  C   LIG d   1      -1.392  81.318 113.498  0.00  0.00     0.038 C 
ATOM      4  C   LIG d   1      -0.313  80.945 112.682  0.00  0.00     0.028 C 
ATOM      5  C   LIG d   1       0.767  82.016 112.579  0.00  0.00    -0.047 C 
ATOM      6  C   LIG d   1       1.169  82.462 114.003  0.00  0.00     0.091 C 
ENDROOT
BRANCH   1   7
ATOM      7  O   LIG d   1       0.246  82.921 116.226  0.00  0.00    -0.368 OA
BRANCH   7   8
ATOM      8  C   LIG d   1      -0.162  81.733 116.948  0.00  0.00     0.119 C 
BRANCH   8   9
ATOM      9  C   LIG d   1      -0.710  82.188 118.315  0.00  0.00     0.028 C 
ATOM     10  C   LIG d   1      -2.223  81.944 118.451  0.00  0.00     0.006 C 
ENDBRANCH   8   9
BRANCH   8  11
ATOM     11  C   LIG d   1       1.038  80.838 117.270  0.00  0.00     0.028 C 
ATOM     12  C   LIG d   1       0.634  79.387 117.577  0.00  0.00     0.006 C 
ENDBRANCH   8  11
ENDBRANCH   7   8
ENDBRANCH   1   7
BRANCH   6  13
ATOM     13  N   LIG d   1       2.162  83.569 113.991  0.00  0.00    -0.311 N 
ATOM     14  C   LIG d   1       1.941  84.746 113.409  0.00  0.00     0.210 C 
ATOM     15  C   LIG d   1       3.104  85.739 113.496  0.00  0.00     0.109 C 
ATOM     16  O   LIG d   1       0.880  85.074 112.857  0.00  0.00    -0.276 OA
ATOM     17  H   LIG d   1       3.039  83.399 114.444  0.00  0.00     0.149 HD
ENDBRANCH   6  13
BRANCH   5  18
ATOM     18  N   LIG d   1       1.891  81.443 111.813  0.00  0.00     0.381 N 
ATOM     19  H   LIG d   1       2.221  80.615 112.266  0.00  0.00    -0.090 HD
ATOM     20  H   LIG d   1       2.642  82.111 111.790  0.00  0.00    -0.090 HD
ATOM     21  H   LIG d   1       1.597  81.229 110.886  0.00  0.00    -0.090 HD
ENDBRANCH   5  18
BRANCH   3  22
ATOM     22  C   LIG d   1      -2.646  80.803 113.209  0.00  0.00     0.382 C 
ATOM     23  O   LIG d   1      -3.388  81.387 112.382  0.00  0.00    -0.241 OA
ATOM     24  O   LIG d   1      -3.062  79.787 113.796  0.00  0.00    -0.241 OA
ENDBRANCH   3  22
TORSDOF 7
ENDMDL
