MODEL 1
REMARK VINA RESULT:      -5.3      0.000      0.000
REMARK  7 active torsions:
REMARK  status: ('A' for Active; 'I' for Inactive)
REMARK    1  A    between atoms: C_2  and  C_3 
REMARK    2  A    between atoms: C_3  and  O_6 
REMARK    3  A    between atoms: C_3  and  C_4 
REMARK    4  A    between atoms: C_7  and  O_6 
REMARK    5  A    between atoms: C_9  and  C_10 
REMARK    6  A    between atoms: N_15  and  C_14 
REMARK    7  A    between atoms: N_20  and  C_19 
REMARK       I    between atoms: C_22  and  N_20 
ROOT
ATOM      1  C   LIG d   1      -3.777  76.200 115.007  0.00  0.00     0.161 C 
ATOM      2  C   LIG d   1      -3.789  77.230 114.051  0.00  0.00     0.016 C 
ATOM      3  C   LIG d   1      -2.635  77.949 113.667  0.00  0.00     0.038 C 
ATOM      4  C   LIG d   1      -1.353  77.583 114.105  0.00  0.00     0.028 C 
ATOM      5  C   LIG d   1      -1.354  76.877 115.457  0.00  0.00    -0.047 C 
ATOM      6  C   LIG d   1      -2.370  75.713 115.414  0.00  0.00     0.091 C 
ENDROOT
BRANCH   1   7
ATOM      7  O   LIG d   1      -4.576  75.093 114.544  0.00  0.00    -0.368 OA
BRANCH   7   8
ATOM      8  C   LIG d   1      -5.728  74.756 115.355  0.00  0.00     0.119 C 
BRANCH   8   9
ATOM      9  C   LIG d   1      -6.021  73.258 115.143  0.00  0.00     0.028 C 
ATOM     10  C   LIG d   1      -6.939  72.679 116.232  0.00  0.00     0.006 C 
ENDBRANCH   8   9
BRANCH   8  11
ATOM     11  C   LIG d   1      -6.983  75.487 114.871  0.00  0.00     0.028 C 
ATOM     12  C   LIG d   1      -7.639  76.337 115.971  0.00  0.00     0.006 C 
ENDBRANCH   8  11
ENDBRANCH   7   8
ENDBRANCH   1   7
BRANCH   6  13
ATOM     13  N   LIG d   1      -2.495  75.021 116.723  0.00  0.00    -0.311 N 
ATOM     14  C   LIG d   1      -1.843  73.899 117.025  0.00  0.00     0.210 C 
ATOM     15  C   LIG d   1      -2.130  73.340 118.422  0.00  0.00     0.109 C 
ATOM     16  O   LIG d   1      -1.030  73.332 116.280  0.00  0.00    -0.276 OA
ATOM     17  H   LIG d   1      -3.111  75.430 117.398  0.00  0.00     0.149 HD
ENDBRANCH   6  13
BRANCH   5  18
ATOM     18  N   LIG d   1       0.026  76.430 115.727  0.00  0.00     0.381 N 
ATOM     19  H   LIG d   1       0.385  75.941 114.932  0.00  0.00    -0.090 HD
ATOM     20  H   LIG d   1       0.016  75.798 116.508  0.00  0.00    -0.090 HD
ATOM     21  H   LIG d   1       0.604  77.215 115.933  0.00  0.00    -0.090 HD
ENDBRANCH   5  18
BRANCH   3  22
ATOM     22  C   LIG d   1      -2.761  79.074 112.866  0.00  0.00     0.382 C 
ATOM     23  O   LIG d   1      -2.014  79.219 111.868  0.00  0.00    -0.241 OA
ATOM     24  O   LIG d   1      -3.581  79.965 113.153  0.00  0.00    -0.241 OA
ENDBRANCH   3  22
TORSDOF 7
ENDMDL
MODEL 2
REMARK VINA RESULT:      -5.2      2.323      3.469
REMARK  7 active torsions:
REMARK  status: ('A' for Active; 'I' for Inactive)
REMARK    1  A    between atoms: C_2  and  C_3 
REMARK    2  A    between atoms: C_3  and  O_6 
REMARK    3  A    between atoms: C_3  and  C_4 
REMARK    4  A    between atoms: C_7  and  O_6 
REMARK    5  A    between atoms: C_9  and  C_10 
REMARK    6  A    between atoms: N_15  and  C_14 
REMARK    7  A    between atoms: N_20  and  C_19 
REMARK       I    between atoms: C_22  and  N_20 
ROOT
ATOM      1  C   LIG d   1      -1.768  78.331 115.336  0.00  0.00     0.161 C 
ATOM      2  C   LIG d   1      -2.355  79.508 114.840  0.00  0.00     0.016 C 
ATOM      3  C   LIG d   1      -2.538  79.765 113.462  0.00  0.00     0.038 C 
ATOM      4  C   LIG d   1      -2.283  78.790 112.485  0.00  0.00     0.028 C 
ATOM      5  C   LIG d   1      -1.219  77.780 112.902  0.00  0.00    -0.047 C 
ATOM      6  C   LIG d   1      -1.585  77.210 114.291  0.00  0.00     0.091 C 
ENDROOT
BRANCH   1   7
ATOM      7  O   LIG d   1      -2.523  77.847 116.464  0.00  0.00    -0.368 OA
BRANCH   7   8
ATOM      8  C   LIG d   1      -3.963  77.825 116.306  0.00  0.00     0.119 C 
BRANCH   8   9
ATOM      9  C   LIG d   1      -4.580  78.367 117.610  0.00  0.00     0.028 C 
ATOM     10  C   LIG d   1      -5.144  79.788 117.446  0.00  0.00     0.006 C 
ENDBRANCH   8   9
BRANCH   8  11
ATOM     11  C   LIG d   1      -4.488  76.392 116.173  0.00  0.00     0.028 C 
ATOM     12  C   LIG d   1      -5.015  76.079 114.764  0.00  0.00     0.006 C 
ENDBRANCH   8  11
ENDBRANCH   7   8
ENDBRANCH   1   7
BRANCH   6  13
ATOM     13  N   LIG d   1      -0.552  76.276 114.811  0.00  0.00    -0.311 N 
ATOM     14  C   LIG d   1      -0.807  75.011 115.140  0.00  0.00     0.210 C 
ATOM     15  C   LIG d   1       0.395  74.227 115.674  0.00  0.00     0.109 C 
ATOM     16  O   LIG d   1      -1.908  74.454 115.010  0.00  0.00    -0.276 OA
ATOM     17  H   LIG d   1       0.376  76.636 114.918  0.00  0.00     0.149 HD
ENDBRANCH   6  13
BRANCH   5  18
ATOM     18  N   LIG d   1      -1.152  76.745 111.852  0.00  0.00     0.381 N 
ATOM     19  H   LIG d   1      -1.064  77.179 110.955  0.00  0.00    -0.090 HD
ATOM     20  H   LIG d   1      -2.005  76.215 111.864  0.00  0.00    -0.090 HD
ATOM     21  H   LIG d   1      -0.375  76.143 112.016  0.00  0.00    -0.090 HD
ENDBRANCH   5  18
BRANCH   3  22
ATOM     22  C   LIG d   1      -2.945  81.023 113.046  0.00  0.00     0.382 C 
ATOM     23  O   LIG d   1      -4.123  81.204 112.654  0.00  0.00    -0.241 OA
ATOM     24  O   LIG d   1      -2.136  81.970 113.015  0.00  0.00    -0.241 OA
ENDBRANCH   3  22
TORSDOF 7
ENDMDL
MODEL 3
REMARK VINA RESULT:      -5.0     15.829     18.765
REMARK  7 active torsions:
REMARK  status: ('A' for Active; 'I' for Inactive)
REMARK    1  A    between atoms: C_2  and  C_3 
REMARK    2  A    between atoms: C_3  and  O_6 
REMARK    3  A    between atoms: C_3  and  C_4 
REMARK    4  A    between atoms: C_7  and  O_6 
REMARK    5  A    between atoms: C_9  and  C_10 
REMARK    6  A    between atoms: N_15  and  C_14 
REMARK    7  A    between atoms: N_20  and  C_19 
REMARK       I    between atoms: C_22  and  N_20 
ROOT
ATOM      1  C   LIG d   1     -17.591  65.091 116.301  0.00  0.00     0.161 C 
ATOM      2  C   LIG d   1     -16.531  64.480 116.992  0.00  0.00     0.016 C 
ATOM      3  C   LIG d   1     -16.242  63.099 116.911  0.00  0.00     0.038 C 
ATOM      4  C   LIG d   1     -16.906  62.254 116.008  0.00  0.00     0.028 C 
ATOM      5  C   LIG d   1     -18.315  62.725 115.663  0.00  0.00    -0.047 C 
ATOM      6  C   LIG d   1     -18.257  64.206 115.226  0.00  0.00     0.091 C 
ENDROOT
BRANCH   1   7
ATOM      7  O   LIG d   1     -17.146  66.333 115.722  0.00  0.00    -0.368 OA
BRANCH   7   8
ATOM      8  C   LIG d   1     -15.722  66.452 115.486  0.00  0.00     0.119 C 
BRANCH   8   9
ATOM      9  C   LIG d   1     -15.281  67.837 115.998  0.00  0.00     0.028 C 
ATOM     10  C   LIG d   1     -16.436  68.617 116.648  0.00  0.00     0.006 C 
ENDBRANCH   8   9
BRANCH   8  11
ATOM     11  C   LIG d   1     -15.404  66.454 113.987  0.00  0.00     0.028 C 
ATOM     12  C   LIG d   1     -15.187  67.868 113.426  0.00  0.00     0.006 C 
ENDBRANCH   8  11
ENDBRANCH   7   8
ENDBRANCH   1   7
BRANCH   6  13
ATOM     13  N   LIG d   1     -19.604  64.770 114.951  0.00  0.00    -0.311 N 
ATOM     14  C   LIG d   1     -20.116  64.882 113.727  0.00  0.00     0.210 C 
ATOM     15  C   LIG d   1     -21.513  65.508 113.664  0.00  0.00     0.109 C 
ATOM     16  O   LIG d   1     -19.559  64.492 112.689  0.00  0.00    -0.276 OA
ATOM     17  H   LIG d   1     -20.137  65.082 115.739  0.00  0.00     0.149 HD
ENDBRANCH   6  13
BRANCH   5  18
ATOM     18  N   LIG d   1     -18.837  61.832 114.611  0.00  0.00     0.381 N 
ATOM     19  H   LIG d   1     -19.838  61.859 114.610  0.00  0.00    -0.090 HD
ATOM     20  H   LIG d   1     -18.547  60.891 114.810  0.00  0.00    -0.090 HD
ATOM     21  H   LIG d   1     -18.490  62.113 113.721  0.00  0.00    -0.090 HD
ENDBRANCH   5  18
BRANCH   3  22
ATOM     22  C   LIG d   1     -15.306  62.541 117.768  0.00  0.00     0.382 C 
ATOM     23  O   LIG d   1     -15.577  61.486 118.391  0.00  0.00    -0.241 OA
ATOM     24  O   LIG d   1     -14.211  63.103 117.959  0.00  0.00    -0.241 OA
ENDBRANCH   3  22
TORSDOF 7
ENDMDL
MODEL 4
REMARK VINA RESULT:      -4.8     14.350     17.038
REMARK  7 active torsions:
REMARK  status: ('A' for Active; 'I' for Inactive)
REMARK    1  A    between atoms: C_2  and  C_3 
REMARK    2  A    between atoms: C_3  and  O_6 
REMARK    3  A    between atoms: C_3  and  C_4 
REMARK    4  A    between atoms: C_7  and  O_6 
REMARK    5  A    between atoms: C_9  and  C_10 
REMARK    6  A    between atoms: N_15  and  C_14 
REMARK    7  A    between atoms: N_20  and  C_19 
REMARK       I    between atoms: C_22  and  N_20 
ROOT
ATOM      1  C   LIG d   1     -16.191  65.527 115.902  0.00  0.00     0.161 C 
ATOM      2  C   LIG d   1     -15.572  66.248 114.867  0.00  0.00     0.016 C 
ATOM      3  C   LIG d   1     -15.526  67.660 114.823  0.00  0.00     0.038 C 
ATOM      4  C   LIG d   1     -15.966  68.451 115.895  0.00  0.00     0.028 C 
ATOM      5  C   LIG d   1     -17.052  67.785 116.732  0.00  0.00    -0.047 C 
ATOM      6  C   LIG d   1     -16.579  66.370 117.135  0.00  0.00     0.091 C 
ENDROOT
BRANCH   1   7
ATOM      7  O   LIG d   1     -15.355  64.420 116.295  0.00  0.00    -0.368 OA
BRANCH   7   8
ATOM      8  C   LIG d   1     -15.842  63.100 115.950  0.00  0.00     0.119 C 
BRANCH   8   9
ATOM      9  C   LIG d   1     -17.144  63.282 115.146  0.00  0.00     0.028 C 
ATOM     10  C   LIG d   1     -18.213  62.240 115.514  0.00  0.00     0.006 C 
ENDBRANCH   8   9
BRANCH   8  11
ATOM     11  C   LIG d   1     -16.246  62.312 117.200  0.00  0.00     0.028 C 
ATOM     12  C   LIG d   1     -15.260  62.497 118.365  0.00  0.00     0.006 C 
ENDBRANCH   8  11
ENDBRANCH   7   8
ENDBRANCH   1   7
BRANCH   6  13
ATOM     13  N   LIG d   1     -17.618  65.617 117.886  0.00  0.00    -0.311 N 
ATOM     14  C   LIG d   1     -18.857  65.431 117.436  0.00  0.00     0.210 C 
ATOM     15  C   LIG d   1     -19.775  64.644 118.376  0.00  0.00     0.109 C 
ATOM     16  O   LIG d   1     -19.274  65.816 116.333  0.00  0.00    -0.276 OA
ATOM     17  H   LIG d   1     -17.355  65.243 118.777  0.00  0.00     0.149 HD
ENDBRANCH   6  13
BRANCH   5  18
ATOM     18  N   LIG d   1     -17.319  68.658 117.891  0.00  0.00     0.381 N 
ATOM     19  H   LIG d   1     -18.077  68.286 118.428  0.00  0.00    -0.090 HD
ATOM     20  H   LIG d   1     -17.585  69.568 117.559  0.00  0.00    -0.090 HD
ATOM     21  H   LIG d   1     -16.504  68.729 118.459  0.00  0.00    -0.090 HD
ENDBRANCH   5  18
BRANCH   3  22
ATOM     22  C   LIG d   1     -15.070  68.297 113.678  0.00  0.00     0.382 C 
ATOM     23  O   LIG d   1     -15.464  67.916 112.550  0.00  0.00    -0.241 OA
ATOM     24  O   LIG d   1     -14.236  69.218 113.758  0.00  0.00    -0.241 OA
ENDBRANCH   3  22
TORSDOF 7
ENDMDL
MODEL 5
REMARK VINA RESULT:      -4.8      1.725      4.966
REMARK  7 active torsions:
REMARK  status: ('A' for Active; 'I' for Inactive)
REMARK    1  A    between atoms: C_2  and  C_3 
REMARK    2  A    between atoms: C_3  and  O_6 
REMARK    3  A    between atoms: C_3  and  C_4 
REMARK    4  A    between atoms: C_7  and  O_6 
REMARK    5  A    between atoms: C_9  and  C_10 
REMARK    6  A    between atoms: N_15  and  C_14 
REMARK    7  A    between atoms: N_20  and  C_19 
REMARK       I    between atoms: C_22  and  N_20 
ROOT
ATOM      1  C   LIG d   1      -2.054  75.391 115.027  0.00  0.00     0.161 C 
ATOM      2  C   LIG d   1      -1.943  74.378 115.994  0.00  0.00     0.016 C 
ATOM      3  C   LIG d   1      -1.157  74.501 117.163  0.00  0.00     0.038 C 
ATOM      4  C   LIG d   1      -0.546  75.712 117.521  0.00  0.00     0.028 C 
ATOM      5  C   LIG d   1      -0.217  76.601 116.327  0.00  0.00    -0.047 C 
ATOM      6  C   LIG d   1      -1.484  76.759 115.455  0.00  0.00     0.091 C 
ENDROOT
BRANCH   1   7
ATOM      7  O   LIG d   1      -3.430  75.527 114.618  0.00  0.00    -0.368 OA
BRANCH   7   8
ATOM      8  C   LIG d   1      -4.427  75.193 115.615  0.00  0.00     0.119 C 
BRANCH   8   9
ATOM      9  C   LIG d   1      -5.643  74.603 114.875  0.00  0.00     0.028 C 
ATOM     10  C   LIG d   1      -6.827  75.583 114.819  0.00  0.00     0.006 C 
ENDBRANCH   8   9
BRANCH   8  11
ATOM     11  C   LIG d   1      -4.951  76.447 116.321  0.00  0.00     0.028 C 
ATOM     12  C   LIG d   1      -4.444  76.573 117.766  0.00  0.00     0.006 C 
ENDBRANCH   8  11
ENDBRANCH   7   8
ENDBRANCH   1   7
BRANCH   6  13
ATOM     13  N   LIG d   1      -1.228  77.546 114.220  0.00  0.00    -0.311 N 
ATOM     14  C   LIG d   1      -2.054  78.487 113.767  0.00  0.00     0.210 C 
ATOM     15  C   LIG d   1      -1.610  79.164 112.466  0.00  0.00     0.109 C 
ATOM     16  O   LIG d   1      -3.095  78.849 114.335  0.00  0.00    -0.276 OA
ATOM     17  H   LIG d   1      -0.390  77.339 113.713  0.00  0.00     0.149 HD
ENDBRANCH   6  13
BRANCH   5  18
ATOM     18  N   LIG d   1       0.287  77.884 116.852  0.00  0.00     0.381 N 
ATOM     19  H   LIG d   1       1.250  77.791 117.106  0.00  0.00    -0.090 HD
ATOM     20  H   LIG d   1      -0.235  78.126 117.676  0.00  0.00    -0.090 HD
ATOM     21  H   LIG d   1       0.185  78.597 116.164  0.00  0.00    -0.090 HD
ENDBRANCH   5  18
BRANCH   3  22
ATOM     22  C   LIG d   1      -0.944  73.392 117.968  0.00  0.00     0.382 C 
ATOM     23  O   LIG d   1      -1.893  72.613 118.225  0.00  0.00    -0.241 OA
ATOM     24  O   LIG d   1       0.174  73.186 118.476  0.00  0.00    -0.241 OA
ENDBRANCH   3  22
TORSDOF 7
ENDMDL
MODEL 6
REMARK VINA RESULT:      -4.7     12.794     14.692
REMARK  7 active torsions:
REMARK  status: ('A' for Active; 'I' for Inactive)
REMARK    1  A    between atoms: C_2  and  C_3 
REMARK    2  A    between atoms: C_3  and  O_6 
REMARK    3  A    between atoms: C_3  and  C_4 
REMARK    4  A    between atoms: C_7  and  O_6 
REMARK    5  A    between atoms: C_9  and  C_10 
REMARK    6  A    between atoms: N_15  and  C_14 
REMARK    7  A    between atoms: N_20  and  C_19 
REMARK       I    between atoms: C_22  and  N_20 
ROOT
ATOM      1  C   LIG d   1       3.586  88.029 115.288  0.00  0.00     0.161 C 
ATOM      2  C   LIG d   1       2.809  87.260 114.406  0.00  0.00     0.016 C 
ATOM      3  C   LIG d   1       3.128  87.081 113.040  0.00  0.00     0.038 C 
ATOM      4  C   LIG d   1       4.336  87.540 112.495  0.00  0.00     0.028 C 
ATOM      5  C   LIG d   1       4.908  88.751 113.224  0.00  0.00    -0.047 C 
ATOM      6  C   LIG d   1       4.967  88.445 114.737  0.00  0.00     0.091 C 
ENDROOT
BRANCH   1   7
ATOM      7  O   LIG d   1       3.735  87.334 116.541  0.00  0.00    -0.368 OA
BRANCH   7   8
ATOM      8  C   LIG d   1       2.960  87.849 117.652  0.00  0.00     0.119 C 
BRANCH   8   9
ATOM      9  C   LIG d   1       1.717  86.951 117.805  0.00  0.00     0.028 C 
ATOM     10  C   LIG d   1       0.432  87.638 117.314  0.00  0.00     0.006 C 
ENDBRANCH   8   9
BRANCH   8  11
ATOM     11  C   LIG d   1       2.415  89.248 117.349  0.00  0.00     0.028 C 
ATOM     12  C   LIG d   1       3.097  90.345 118.180  0.00  0.00     0.006 C 
ENDBRANCH   8  11
ENDBRANCH   7   8
ENDBRANCH   1   7
BRANCH   6  13
ATOM     13  N   LIG d   1       5.436  89.608 115.534  0.00  0.00    -0.311 N 
ATOM     14  C   LIG d   1       6.565  89.605 116.242  0.00  0.00     0.210 C 
ATOM     15  C   LIG d   1       6.852  90.901 117.006  0.00  0.00     0.109 C 
ATOM     16  O   LIG d   1       7.371  88.664 116.283  0.00  0.00    -0.276 OA
ATOM     17  H   LIG d   1       4.858  90.426 115.531  0.00  0.00     0.149 HD
ENDBRANCH   6  13
BRANCH   5  18
ATOM     18  N   LIG d   1       6.232  89.038 112.640  0.00  0.00     0.381 N 
ATOM     19  H   LIG d   1       6.582  89.903 113.001  0.00  0.00    -0.090 HD
ATOM     20  H   LIG d   1       6.136  89.128 111.644  0.00  0.00    -0.090 HD
ATOM     21  H   LIG d   1       6.866  88.300 112.854  0.00  0.00    -0.090 HD
ENDBRANCH   5  18
BRANCH   3  22
ATOM     22  C   LIG d   1       2.213  86.472 112.195  0.00  0.00     0.382 C 
ATOM     23  O   LIG d   1       1.172  87.083 111.852  0.00  0.00    -0.241 OA
ATOM     24  O   LIG d   1       2.394  85.303 111.806  0.00  0.00    -0.241 OA
ENDBRANCH   3  22
TORSDOF 7
ENDMDL
MODEL 7
REMARK VINA RESULT:      -4.7     15.464     18.143
REMARK  7 active torsions:
REMARK  status: ('A' for Active; 'I' for Inactive)
REMARK    1  A    between atoms: C_2  and  C_3 
REMARK    2  A    between atoms: C_3  and  O_6 
REMARK    3  A    between atoms: C_3  and  C_4 
REMARK    4  A    between atoms: C_7  and  O_6 
REMARK    5  A    between atoms: C_9  and  C_10 
REMARK    6  A    between atoms: N_15  and  C_14 
REMARK    7  A    between atoms: N_20  and  C_19 
REMARK       I    between atoms: C_22  and  N_20 
ROOT
ATOM      1  C   LIG d   1     -16.355  64.210 114.906  0.00  0.00     0.161 C 
ATOM      2  C   LIG d   1     -17.292  64.662 113.961  0.00  0.00     0.016 C 
ATOM      3  C   LIG d   1     -18.679  64.402 114.055  0.00  0.00     0.038 C 
ATOM      4  C   LIG d   1     -19.245  63.798 115.187  0.00  0.00     0.028 C 
ATOM      5  C   LIG d   1     -18.281  62.879 115.930  0.00  0.00    -0.047 C 
ATOM      6  C   LIG d   1     -16.968  63.646 116.205  0.00  0.00     0.091 C 
ENDROOT
BRANCH   1   7
ATOM      7  O   LIG d   1     -15.421  65.265 115.209  0.00  0.00    -0.368 OA
BRANCH   7   8
ATOM      8  C   LIG d   1     -15.944  66.615 115.156  0.00  0.00     0.119 C 
BRANCH   8   9
ATOM      9  C   LIG d   1     -14.891  67.492 114.451  0.00  0.00     0.028 C 
ATOM     10  C   LIG d   1     -15.376  68.008 113.086  0.00  0.00     0.006 C 
ENDBRANCH   8   9
BRANCH   8  11
ATOM     11  C   LIG d   1     -16.094  67.211 116.559  0.00  0.00     0.028 C 
ATOM     12  C   LIG d   1     -16.463  68.702 116.537  0.00  0.00     0.006 C 
ENDBRANCH   8  11
ENDBRANCH   7   8
ENDBRANCH   1   7
BRANCH   6  13
ATOM     13  N   LIG d   1     -15.938  62.793 116.854  0.00  0.00    -0.311 N 
ATOM     14  C   LIG d   1     -15.255  63.163 117.935  0.00  0.00     0.210 C 
ATOM     15  C   LIG d   1     -14.226  62.142 118.431  0.00  0.00     0.109 C 
ATOM     16  O   LIG d   1     -15.425  64.226 118.550  0.00  0.00    -0.276 OA
ATOM     17  H   LIG d   1     -15.758  61.900 116.438  0.00  0.00     0.149 HD
ENDBRANCH   6  13
BRANCH   5  18
ATOM     18  N   LIG d   1     -18.955  62.426 117.161  0.00  0.00     0.381 N 
ATOM     19  H   LIG d   1     -18.977  63.171 117.829  0.00  0.00    -0.090 HD
ATOM     20  H   LIG d   1     -18.434  61.664 117.556  0.00  0.00    -0.090 HD
ATOM     21  H   LIG d   1     -19.884  62.131 116.953  0.00  0.00    -0.090 HD
ENDBRANCH   5  18
BRANCH   3  22
ATOM     22  C   LIG d   1     -19.510  64.712 112.989  0.00  0.00     0.382 C 
ATOM     23  O   LIG d   1     -19.126  64.503 111.813  0.00  0.00    -0.241 OA
ATOM     24  O   LIG d   1     -20.621  65.240 113.187  0.00  0.00    -0.241 OA
ENDBRANCH   3  22
TORSDOF 7
ENDMDL
MODEL 8
REMARK VINA RESULT:      -4.6      3.312      4.260
REMARK  7 active torsions:
REMARK  status: ('A' for Active; 'I' for Inactive)
REMARK    1  A    between atoms: C_2  and  C_3 
REMARK    2  A    between atoms: C_3  and  O_6 
REMARK    3  A    between atoms: C_3  and  C_4 
REMARK    4  A    between atoms: C_7  and  O_6 
REMARK    5  A    between atoms: C_9  and  C_10 
REMARK    6  A    between atoms: N_15  and  C_14 
REMARK    7  A    between atoms: N_20  and  C_19 
REMARK       I    between atoms: C_22  and  N_20 
ROOT
ATOM      1  C   LIG d   1      -6.042  76.903 117.926  0.00  0.00     0.161 C 
ATOM      2  C   LIG d   1      -6.802  78.084 117.940  0.00  0.00     0.016 C 
ATOM      3  C   LIG d   1      -6.245  79.371 117.760  0.00  0.00     0.038 C 
ATOM      4  C   LIG d   1      -4.902  79.553 117.401  0.00  0.00     0.028 C 
ATOM      5  C   LIG d   1      -3.990  78.426 117.872  0.00  0.00    -0.047 C 
ATOM      6  C   LIG d   1      -4.592  77.074 117.425  0.00  0.00     0.091 C 
ENDROOT
BRANCH   1   7
ATOM      7  O   LIG d   1      -6.722  75.893 117.156  0.00  0.00    -0.368 OA
BRANCH   7   8
ATOM      8  C   LIG d   1      -7.666  76.372 116.168  0.00  0.00     0.119 C 
BRANCH   8   9
ATOM      9  C   LIG d   1      -9.024  75.705 116.461  0.00  0.00     0.028 C 
ATOM     10  C   LIG d   1      -8.876  74.412 117.281  0.00  0.00     0.006 C 
ENDBRANCH   8   9
BRANCH   8  11
ATOM     11  C   LIG d   1      -7.282  75.909 114.759  0.00  0.00     0.028 C 
ATOM     12  C   LIG d   1      -6.134  74.887 114.761  0.00  0.00     0.006 C 
ENDBRANCH   8  11
ENDBRANCH   7   8
ENDBRANCH   1   7
BRANCH   6  13
ATOM     13  N   LIG d   1      -3.806  75.913 117.918  0.00  0.00    -0.311 N 
ATOM     14  C   LIG d   1      -3.097  75.116 117.120  0.00  0.00     0.210 C 
ATOM     15  C   LIG d   1      -2.377  73.965 117.830  0.00  0.00     0.109 C 
ATOM     16  O   LIG d   1      -2.969  75.272 115.897  0.00  0.00    -0.276 OA
ATOM     17  H   LIG d   1      -3.828  75.732 118.902  0.00  0.00     0.149 HD
ENDBRANCH   6  13
BRANCH   5  18
ATOM     18  N   LIG d   1      -2.648  78.674 117.312  0.00  0.00     0.381 N 
ATOM     19  H   LIG d   1      -2.634  78.428 116.343  0.00  0.00    -0.090 HD
ATOM     20  H   LIG d   1      -1.983  78.095 117.794  0.00  0.00    -0.090 HD
ATOM     21  H   LIG d   1      -2.405  79.634 117.422  0.00  0.00    -0.090 HD
ENDBRANCH   5  18
BRANCH   3  22
ATOM     22  C   LIG d   1      -7.027  80.495 117.979  0.00  0.00     0.382 C 
ATOM     23  O   LIG d   1      -6.537  81.497 118.554  0.00  0.00    -0.241 OA
ATOM     24  O   LIG d   1      -8.228  80.503 117.649  0.00  0.00    -0.241 OA
ENDBRANCH   3  22
TORSDOF 7
ENDMDL
MODEL 9
REMARK VINA RESULT:      -4.5      1.947      4.382
REMARK  7 active torsions:
REMARK  status: ('A' for Active; 'I' for Inactive)
REMARK    1  A    between atoms: C_2  and  C_3 
REMARK    2  A    between atoms: C_3  and  O_6 
REMARK    3  A    between atoms: C_3  and  C_4 
REMARK    4  A    between atoms: C_7  and  O_6 
REMARK    5  A    between atoms: C_9  and  C_10 
REMARK    6  A    between atoms: N_15  and  C_14 
REMARK    7  A    between atoms: N_20  and  C_19 
REMARK       I    between atoms: C_22  and  N_20 
ROOT
ATOM      1  C   LIG d   1      -3.168  75.755 115.123  0.00  0.00     0.161 C 
ATOM      2  C   LIG d   1      -2.663  76.988 114.676  0.00  0.00     0.016 C 
ATOM      3  C   LIG d   1      -3.010  78.227 115.261  0.00  0.00     0.038 C 
ATOM      4  C   LIG d   1      -3.771  78.306 116.437  0.00  0.00     0.028 C 
ATOM      5  C   LIG d   1      -4.715  77.123 116.627  0.00  0.00    -0.047 C 
ATOM      6  C   LIG d   1      -3.912  75.811 116.473  0.00  0.00     0.091 C 
ENDROOT
BRANCH   1   7
ATOM      7  O   LIG d   1      -2.105  74.783 115.177  0.00  0.00    -0.368 OA
BRANCH   7   8
ATOM      8  C   LIG d   1      -1.259  74.827 116.353  0.00  0.00     0.119 C 
BRANCH   8   9
ATOM      9  C   LIG d   1       0.155  75.231 115.892  0.00  0.00     0.028 C 
ATOM     10  C   LIG d   1       0.737  74.250 114.860  0.00  0.00     0.006 C 
ENDBRANCH   8   9
BRANCH   8  11
ATOM     11  C   LIG d   1      -1.102  73.439 116.978  0.00  0.00     0.028 C 
ATOM     12  C   LIG d   1      -1.896  73.280 118.285  0.00  0.00     0.006 C 
ENDBRANCH   8  11
ENDBRANCH   7   8
ENDBRANCH   1   7
BRANCH   6  13
ATOM     13  N   LIG d   1      -4.776  74.605 116.561  0.00  0.00    -0.311 N 
ATOM     14  C   LIG d   1      -5.769  74.350 115.711  0.00  0.00     0.210 C 
ATOM     15  C   LIG d   1      -6.547  73.061 115.993  0.00  0.00     0.109 C 
ATOM     16  O   LIG d   1      -6.058  75.052 114.731  0.00  0.00    -0.276 OA
ATOM     17  H   LIG d   1      -4.590  73.965 117.309  0.00  0.00     0.149 HD
ENDBRANCH   6  13
BRANCH   5  18
ATOM     18  N   LIG d   1      -5.344  77.264 117.954  0.00  0.00     0.381 N 
ATOM     19  H   LIG d   1      -4.639  77.277 118.663  0.00  0.00    -0.090 HD
ATOM     20  H   LIG d   1      -5.940  76.471 118.116  0.00  0.00    -0.090 HD
ATOM     21  H   LIG d   1      -5.878  78.104 117.991  0.00  0.00    -0.090 HD
ENDBRANCH   5  18
BRANCH   3  22
ATOM     22  C   LIG d   1      -2.625  79.409 114.646  0.00  0.00     0.382 C 
ATOM     23  O   LIG d   1      -1.454  79.836 114.785  0.00  0.00    -0.241 OA
ATOM     24  O   LIG d   1      -3.447  80.076 113.989  0.00  0.00    -0.241 OA
ENDBRANCH   3  22
TORSDOF 7
ENDMDL
