MODEL 1
REMARK VINA RESULT:      -5.7      0.000      0.000
REMARK  7 active torsions:
REMARK  status: ('A' for Active; 'I' for Inactive)
REMARK    1  A    between atoms: C_2  and  C_3 
REMARK    2  A    between atoms: C_3  and  O_6 
REMARK    3  A    between atoms: C_3  and  C_4 
REMARK    4  A    between atoms: C_7  and  O_6 
REMARK    5  A    between atoms: C_9  and  C_10 
REMARK    6  A    between atoms: N_15  and  C_14 
REMARK    7  A    between atoms: N_20  and  C_19 
REMARK       I    between atoms: C_22  and  N_20 
ROOT
ATOM      1  C   LIG d   1      -3.056  77.696 114.140  0.00  0.00     0.161 C 
ATOM      2  C   LIG d   1      -3.288  78.879 113.418  0.00  0.00     0.016 C 
ATOM      3  C   LIG d   1      -2.306  79.877 113.222  0.00  0.00     0.038 C 
ATOM      4  C   LIG d   1      -0.971  79.689 113.611  0.00  0.00     0.028 C 
ATOM      5  C   LIG d   1      -0.811  78.731 114.786  0.00  0.00    -0.047 C 
ATOM      6  C   LIG d   1      -1.575  77.424 114.476  0.00  0.00     0.091 C 
ENDROOT
BRANCH   1   7
ATOM      7  O   LIG d   1      -3.625  76.574 113.437  0.00  0.00    -0.368 OA
BRANCH   7   8
ATOM      8  C   LIG d   1      -4.721  75.897 114.099  0.00  0.00     0.119 C 
BRANCH   8   9
ATOM      9  C   LIG d   1      -6.024  76.336 113.404  0.00  0.00     0.028 C 
ATOM     10  C   LIG d   1      -5.780  76.875 111.984  0.00  0.00     0.006 C 
ENDBRANCH   8   9
BRANCH   8  11
ATOM     11  C   LIG d   1      -4.863  76.355 115.553  0.00  0.00     0.028 C 
ATOM     12  C   LIG d   1      -6.326  76.572 115.969  0.00  0.00     0.006 C 
ENDBRANCH   8  11
ENDBRANCH   7   8
ENDBRANCH   1   7
BRANCH   6  13
ATOM     13  N   LIG d   1      -1.540  76.464 115.610  0.00  0.00    -0.311 N 
ATOM     14  C   LIG d   1      -1.148  75.197 115.487  0.00  0.00     0.210 C 
ATOM     15  C   LIG d   1      -1.207  74.373 116.777  0.00  0.00     0.109 C 
ATOM     16  O   LIG d   1      -0.726  74.686 114.438  0.00  0.00    -0.276 OA
ATOM     17  H   LIG d   1      -1.836  76.803 116.504  0.00  0.00     0.149 HD
ENDBRANCH   6  13
BRANCH   5  18
ATOM     18  N   LIG d   1       0.634  78.521 114.996  0.00  0.00     0.381 N 
ATOM     19  H   LIG d   1       0.859  77.556 114.859  0.00  0.00    -0.090 HD
ATOM     20  H   LIG d   1       0.864  78.767 115.943  0.00  0.00    -0.090 HD
ATOM     21  H   LIG d   1       1.156  79.084 114.362  0.00  0.00    -0.090 HD
ENDBRANCH   5  18
BRANCH   3  22
ATOM     22  C   LIG d   1      -2.665  81.095 112.668  0.00  0.00     0.382 C 
ATOM     23  O   LIG d   1      -3.875  81.359 112.464  0.00  0.00    -0.241 OA
ATOM     24  O   LIG d   1      -1.793  81.917 112.327  0.00  0.00    -0.241 OA
ENDBRANCH   3  22
TORSDOF 7
ENDMDL
MODEL 2
REMARK VINA RESULT:      -5.3      1.698      2.337
REMARK  7 active torsions:
REMARK  status: ('A' for Active; 'I' for Inactive)
REMARK    1  A    between atoms: C_2  and  C_3 
REMARK    2  A    between atoms: C_3  and  O_6 
REMARK    3  A    between atoms: C_3  and  C_4 
REMARK    4  A    between atoms: C_7  and  O_6 
REMARK    5  A    between atoms: C_9  and  C_10 
REMARK    6  A    between atoms: N_15  and  C_14 
REMARK    7  A    between atoms: N_20  and  C_19 
REMARK       I    between atoms: C_22  and  N_20 
ROOT
ATOM      1  C   LIG d   1      -2.608  77.447 116.147  0.00  0.00     0.161 C 
ATOM      2  C   LIG d   1      -2.918  78.400 115.163  0.00  0.00     0.016 C 
ATOM      3  C   LIG d   1      -2.107  78.641 114.030  0.00  0.00     0.038 C 
ATOM      4  C   LIG d   1      -1.001  77.834 113.725  0.00  0.00     0.028 C 
ATOM      5  C   LIG d   1      -0.364  77.190 114.952  0.00  0.00    -0.047 C 
ATOM      6  C   LIG d   1      -1.464  76.481 115.774  0.00  0.00     0.091 C 
ENDROOT
BRANCH   1   7
ATOM      7  O   LIG d   1      -3.793  76.707 116.502  0.00  0.00    -0.368 OA
BRANCH   7   8
ATOM      8  C   LIG d   1      -4.850  76.683 115.511  0.00  0.00     0.119 C 
BRANCH   8   9
ATOM      9  C   LIG d   1      -6.192  76.775 116.263  0.00  0.00     0.028 C 
ATOM     10  C   LIG d   1      -6.187  77.874 117.340  0.00  0.00     0.006 C 
ENDBRANCH   8   9
BRANCH   8  11
ATOM     11  C   LIG d   1      -4.891  75.342 114.772  0.00  0.00     0.028 C 
ATOM     12  C   LIG d   1      -6.083  74.467 115.190  0.00  0.00     0.006 C 
ENDBRANCH   8  11
ENDBRANCH   7   8
ENDBRANCH   1   7
BRANCH   6  13
ATOM     13  N   LIG d   1      -0.940  75.896 117.035  0.00  0.00    -0.311 N 
ATOM     14  C   LIG d   1      -0.489  74.646 117.132  0.00  0.00     0.210 C 
ATOM     15  C   LIG d   1      -0.012  74.237 118.529  0.00  0.00     0.109 C 
ATOM     16  O   LIG d   1      -0.409  73.848 116.186  0.00  0.00    -0.276 OA
ATOM     17  H   LIG d   1      -0.939  76.484 117.846  0.00  0.00     0.149 HD
ENDBRANCH   6  13
BRANCH   5  18
ATOM     18  N   LIG d   1       0.687  76.271 114.477  0.00  0.00     0.381 N 
ATOM     19  H   LIG d   1       1.572  76.738 114.480  0.00  0.00    -0.090 HD
ATOM     20  H   LIG d   1       0.478  75.998 113.533  0.00  0.00    -0.090 HD
ATOM     21  H   LIG d   1       0.726  75.466 115.063  0.00  0.00    -0.090 HD
ENDBRANCH   5  18
BRANCH   3  22
ATOM     22  C   LIG d   1      -2.378  79.726 113.209  0.00  0.00     0.382 C 
ATOM     23  O   LIG d   1      -1.873  79.785 112.062  0.00  0.00    -0.241 OA
ATOM     24  O   LIG d   1      -3.085  80.666 113.618  0.00  0.00    -0.241 OA
ENDBRANCH   3  22
TORSDOF 7
ENDMDL
MODEL 3
REMARK VINA RESULT:      -4.9      2.578      4.326
REMARK  7 active torsions:
REMARK  status: ('A' for Active; 'I' for Inactive)
REMARK    1  A    between atoms: C_2  and  C_3 
REMARK    2  A    between atoms: C_3  and  O_6 
REMARK    3  A    between atoms: C_3  and  C_4 
REMARK    4  A    between atoms: C_7  and  O_6 
REMARK    5  A    between atoms: C_9  and  C_10 
REMARK    6  A    between atoms: N_15  and  C_14 
REMARK    7  A    between atoms: N_20  and  C_19 
REMARK       I    between atoms: C_22  and  N_20 
ROOT
ATOM      1  C   LIG d   1      -4.394  75.676 115.044  0.00  0.00     0.161 C 
ATOM      2  C   LIG d   1      -5.574  76.302 115.477  0.00  0.00     0.016 C 
ATOM      3  C   LIG d   1      -5.651  77.095 116.646  0.00  0.00     0.038 C 
ATOM      4  C   LIG d   1      -4.509  77.440 117.383  0.00  0.00     0.028 C 
ATOM      5  C   LIG d   1      -3.382  76.418 117.270  0.00  0.00    -0.047 C 
ATOM      6  C   LIG d   1      -3.114  76.132 115.775  0.00  0.00     0.091 C 
ENDROOT
BRANCH   1   7
ATOM      7  O   LIG d   1      -4.246  75.844 113.620  0.00  0.00    -0.368 OA
BRANCH   7   8
ATOM      8  C   LIG d   1      -4.188  77.211 113.143  0.00  0.00     0.119 C 
BRANCH   8   9
ATOM      9  C   LIG d   1      -5.021  77.285 111.849  0.00  0.00     0.028 C 
ATOM     10  C   LIG d   1      -6.504  76.957 112.086  0.00  0.00     0.006 C 
ENDBRANCH   8   9
BRANCH   8  11
ATOM     11  C   LIG d   1      -2.764  77.598 112.731  0.00  0.00     0.028 C 
ATOM     12  C   LIG d   1      -2.579  79.116 112.580  0.00  0.00     0.006 C 
ENDBRANCH   8  11
ENDBRANCH   7   8
ENDBRANCH   1   7
BRANCH   6  13
ATOM     13  N   LIG d   1      -2.083  75.080 115.575  0.00  0.00    -0.311 N 
ATOM     14  C   LIG d   1      -0.798  75.346 115.347  0.00  0.00     0.210 C 
ATOM     15  C   LIG d   1       0.092  74.115 115.150  0.00  0.00     0.109 C 
ATOM     16  O   LIG d   1      -0.306  76.484 115.322  0.00  0.00    -0.276 OA
ATOM     17  H   LIG d   1      -2.391  74.127 115.611  0.00  0.00     0.149 HD
ENDBRANCH   6  13
BRANCH   5  18
ATOM     18  N   LIG d   1      -2.209  76.969 117.973  0.00  0.00     0.381 N 
ATOM     19  H   LIG d   1      -1.708  77.586 117.364  0.00  0.00    -0.090 HD
ATOM     20  H   LIG d   1      -1.598  76.213 118.227  0.00  0.00    -0.090 HD
ATOM     21  H   LIG d   1      -2.499  77.460 118.789  0.00  0.00    -0.090 HD
ENDBRANCH   5  18
BRANCH   3  22
ATOM     22  C   LIG d   1      -6.887  77.518 117.109  0.00  0.00     0.382 C 
ATOM     23  O   LIG d   1      -6.998  78.633 117.672  0.00  0.00    -0.241 OA
ATOM     24  O   LIG d   1      -7.885  76.778 117.012  0.00  0.00    -0.241 OA
ENDBRANCH   3  22
TORSDOF 7
ENDMDL
MODEL 4
REMARK VINA RESULT:      -4.8     12.341     14.972
REMARK  7 active torsions:
REMARK  status: ('A' for Active; 'I' for Inactive)
REMARK    1  A    between atoms: C_2  and  C_3 
REMARK    2  A    between atoms: C_3  and  O_6 
REMARK    3  A    between atoms: C_3  and  C_4 
REMARK    4  A    between atoms: C_7  and  O_6 
REMARK    5  A    between atoms: C_9  and  C_10 
REMARK    6  A    between atoms: N_15  and  C_14 
REMARK    7  A    between atoms: N_20  and  C_19 
REMARK       I    between atoms: C_22  and  N_20 
ROOT
ATOM      1  C   LIG d   1      10.881  76.286 114.001  0.00  0.00     0.161 C 
ATOM      2  C   LIG d   1      10.690  75.028 114.597  0.00  0.00     0.016 C 
ATOM      3  C   LIG d   1      11.742  74.259 115.144  0.00  0.00     0.038 C 
ATOM      4  C   LIG d   1      13.045  74.765 115.267  0.00  0.00     0.028 C 
ATOM      5  C   LIG d   1      13.384  75.824 114.224  0.00  0.00    -0.047 C 
ATOM      6  C   LIG d   1      12.277  76.903 114.226  0.00  0.00     0.091 C 
ENDROOT
BRANCH   1   7
ATOM      7  O   LIG d   1       9.854  77.196 114.441  0.00  0.00    -0.368 OA
BRANCH   7   8
ATOM      8  C   LIG d   1       9.250  76.904 115.726  0.00  0.00     0.119 C 
BRANCH   8   9
ATOM      9  C   LIG d   1       7.827  77.494 115.714  0.00  0.00     0.028 C 
ATOM     10  C   LIG d   1       7.377  77.969 117.106  0.00  0.00     0.006 C 
ENDBRANCH   8   9
BRANCH   8  11
ATOM     11  C   LIG d   1       9.980  77.627 116.862  0.00  0.00     0.028 C 
ATOM     12  C   LIG d   1      10.682  76.661 117.829  0.00  0.00     0.006 C 
ENDBRANCH   8  11
ENDBRANCH   7   8
ENDBRANCH   1   7
BRANCH   6  13
ATOM     13  N   LIG d   1      12.488  77.934 113.176  0.00  0.00    -0.311 N 
ATOM     14  C   LIG d   1      12.262  79.232 113.367  0.00  0.00     0.210 C 
ATOM     15  C   LIG d   1      12.524  80.121 112.147  0.00  0.00     0.109 C 
ATOM     16  O   LIG d   1      11.900  79.736 114.441  0.00  0.00    -0.276 OA
ATOM     17  H   LIG d   1      12.810  77.616 112.283  0.00  0.00     0.149 HD
ENDBRANCH   6  13
BRANCH   5  18
ATOM     18  N   LIG d   1      14.717  76.363 114.554  0.00  0.00     0.381 N 
ATOM     19  H   LIG d   1      15.280  75.646 114.966  0.00  0.00    -0.090 HD
ATOM     20  H   LIG d   1      14.611  77.105 115.223  0.00  0.00    -0.090 HD
ATOM     21  H   LIG d   1      15.158  76.709 113.730  0.00  0.00    -0.090 HD
ENDBRANCH   5  18
BRANCH   3  22
ATOM     22  C   LIG d   1      11.504  72.951 115.538  0.00  0.00     0.382 C 
ATOM     23  O   LIG d   1      11.989  72.522 116.613  0.00  0.00    -0.241 OA
ATOM     24  O   LIG d   1      10.848  72.181 114.811  0.00  0.00    -0.241 OA
ENDBRANCH   3  22
TORSDOF 7
ENDMDL
MODEL 5
REMARK VINA RESULT:      -4.7     13.056     15.349
REMARK  7 active torsions:
REMARK  status: ('A' for Active; 'I' for Inactive)
REMARK    1  A    between atoms: C_2  and  C_3 
REMARK    2  A    between atoms: C_3  and  O_6 
REMARK    3  A    between atoms: C_3  and  C_4 
REMARK    4  A    between atoms: C_7  and  O_6 
REMARK    5  A    between atoms: C_9  and  C_10 
REMARK    6  A    between atoms: N_15  and  C_14 
REMARK    7  A    between atoms: N_20  and  C_19 
REMARK       I    between atoms: C_22  and  N_20 
ROOT
ATOM      1  C   LIG d   1      11.703  76.566 114.056  0.00  0.00     0.161 C 
ATOM      2  C   LIG d   1      10.506  77.215 114.401  0.00  0.00     0.016 C 
ATOM      3  C   LIG d   1       9.827  76.997 115.621  0.00  0.00     0.038 C 
ATOM      4  C   LIG d   1      10.382  76.222 116.651  0.00  0.00     0.028 C 
ATOM      5  C   LIG d   1      11.342  75.149 116.151  0.00  0.00    -0.047 C 
ATOM      6  C   LIG d   1      12.382  75.803 115.212  0.00  0.00     0.091 C 
ENDROOT
BRANCH   1   7
ATOM      7  O   LIG d   1      12.621  77.513 113.473  0.00  0.00    -0.368 OA
BRANCH   7   8
ATOM      8  C   LIG d   1      12.399  78.905 113.807  0.00  0.00     0.119 C 
BRANCH   8   9
ATOM      9  C   LIG d   1      12.732  79.740 112.556  0.00  0.00     0.028 C 
ATOM     10  C   LIG d   1      13.964  79.207 111.806  0.00  0.00     0.006 C 
ENDBRANCH   8   9
BRANCH   8  11
ATOM     11  C   LIG d   1      13.377  79.382 114.885  0.00  0.00     0.028 C 
ATOM     12  C   LIG d   1      12.718  79.522 116.267  0.00  0.00     0.006 C 
ENDBRANCH   8  11
ENDBRANCH   7   8
ENDBRANCH   1   7
BRANCH   6  13
ATOM     13  N   LIG d   1      13.309  74.808 114.612  0.00  0.00    -0.311 N 
ATOM     14  C   LIG d   1      14.487  74.488 115.145  0.00  0.00     0.210 C 
ATOM     15  C   LIG d   1      15.295  73.455 114.355  0.00  0.00     0.109 C 
ATOM     16  O   LIG d   1      14.924  74.939 116.214  0.00  0.00    -0.276 OA
ATOM     17  H   LIG d   1      13.019  74.371 113.759  0.00  0.00     0.149 HD
ENDBRANCH   6  13
BRANCH   5  18
ATOM     18  N   LIG d   1      11.951  74.510 117.333  0.00  0.00     0.381 N 
ATOM     19  H   LIG d   1      12.173  75.205 118.017  0.00  0.00    -0.090 HD
ATOM     20  H   LIG d   1      12.805  74.058 117.054  0.00  0.00    -0.090 HD
ATOM     21  H   LIG d   1      11.324  73.840 117.720  0.00  0.00    -0.090 HD
ENDBRANCH   5  18
BRANCH   3  22
ATOM     22  C   LIG d   1       8.558  77.525 115.805  0.00  0.00     0.382 C 
ATOM     23  O   LIG d   1       7.803  77.701 114.819  0.00  0.00    -0.241 OA
ATOM     24  O   LIG d   1       8.175  77.868 116.940  0.00  0.00    -0.241 OA
ENDBRANCH   3  22
TORSDOF 7
ENDMDL
MODEL 6
REMARK VINA RESULT:      -4.6     16.423     19.093
REMARK  7 active torsions:
REMARK  status: ('A' for Active; 'I' for Inactive)
REMARK    1  A    between atoms: C_2  and  C_3 
REMARK    2  A    between atoms: C_3  and  O_6 
REMARK    3  A    between atoms: C_3  and  C_4 
REMARK    4  A    between atoms: C_7  and  O_6 
REMARK    5  A    between atoms: C_9  and  C_10 
REMARK    6  A    between atoms: N_15  and  C_14 
REMARK    7  A    between atoms: N_20  and  C_19 
REMARK       I    between atoms: C_22  and  N_20 
ROOT
ATOM      1  C   LIG d   1     -16.835  65.917 115.478  0.00  0.00     0.161 C 
ATOM      2  C   LIG d   1     -15.632  66.643 115.477  0.00  0.00     0.016 C 
ATOM      3  C   LIG d   1     -15.376  67.725 116.352  0.00  0.00     0.038 C 
ATOM      4  C   LIG d   1     -16.252  68.058 117.395  0.00  0.00     0.028 C 
ATOM      5  C   LIG d   1     -17.702  67.678 117.113  0.00  0.00    -0.047 C 
ATOM      6  C   LIG d   1     -17.757  66.194 116.683  0.00  0.00     0.091 C 
ENDROOT
BRANCH   1   7
ATOM      7  O   LIG d   1     -16.553  64.507 115.376  0.00  0.00    -0.368 OA
BRANCH   7   8
ATOM      8  C   LIG d   1     -16.882  63.881 114.112  0.00  0.00     0.119 C 
BRANCH   8   9
ATOM      9  C   LIG d   1     -17.607  64.932 113.249  0.00  0.00     0.028 C 
ATOM     10  C   LIG d   1     -19.000  64.462 112.798  0.00  0.00     0.006 C 
ENDBRANCH   8   9
BRANCH   8  11
ATOM     11  C   LIG d   1     -17.892  62.744 114.299  0.00  0.00     0.028 C 
ATOM     12  C   LIG d   1     -17.504  61.783 115.434  0.00  0.00     0.006 C 
ENDBRANCH   8  11
ENDBRANCH   7   8
ENDBRANCH   1   7
BRANCH   6  13
ATOM     13  N   LIG d   1     -19.129  65.764 116.307  0.00  0.00    -0.311 N 
ATOM     14  C   LIG d   1     -19.725  64.686 116.816  0.00  0.00     0.210 C 
ATOM     15  C   LIG d   1     -21.132  64.411 116.278  0.00  0.00     0.109 C 
ATOM     16  O   LIG d   1     -19.233  63.951 117.685  0.00  0.00    -0.276 OA
ATOM     17  H   LIG d   1     -19.613  66.321 115.631  0.00  0.00     0.149 HD
ENDBRANCH   6  13
BRANCH   5  18
ATOM     18  N   LIG d   1     -18.481  67.955 118.335  0.00  0.00     0.381 N 
ATOM     19  H   LIG d   1     -18.864  68.878 118.290  0.00  0.00    -0.090 HD
ATOM     20  H   LIG d   1     -17.868  67.906 119.130  0.00  0.00    -0.090 HD
ATOM     21  H   LIG d   1     -19.214  67.287 118.431  0.00  0.00    -0.090 HD
ENDBRANCH   5  18
BRANCH   3  22
ATOM     22  C   LIG d   1     -14.250  68.511 116.161  0.00  0.00     0.382 C 
ATOM     23  O   LIG d   1     -14.246  69.395 115.270  0.00  0.00    -0.241 OA
ATOM     24  O   LIG d   1     -13.223  68.318 116.838  0.00  0.00    -0.241 OA
ENDBRANCH   3  22
TORSDOF 7
ENDMDL
MODEL 7
REMARK VINA RESULT:      -4.6     12.861     14.701
REMARK  7 active torsions:
REMARK  status: ('A' for Active; 'I' for Inactive)
REMARK    1  A    between atoms: C_2  and  C_3 
REMARK    2  A    between atoms: C_3  and  O_6 
REMARK    3  A    between atoms: C_3  and  C_4 
REMARK    4  A    between atoms: C_7  and  O_6 
REMARK    5  A    between atoms: C_9  and  C_10 
REMARK    6  A    between atoms: N_15  and  C_14 
REMARK    7  A    between atoms: N_20  and  C_19 
REMARK       I    between atoms: C_22  and  N_20 
ROOT
ATOM      1  C   LIG d   1      11.573  77.236 114.754  0.00  0.00     0.161 C 
ATOM      2  C   LIG d   1      11.821  78.391 113.993  0.00  0.00     0.016 C 
ATOM      3  C   LIG d   1      12.989  78.575 113.217  0.00  0.00     0.038 C 
ATOM      4  C   LIG d   1      13.924  77.546 113.029  0.00  0.00     0.028 C 
ATOM      5  C   LIG d   1      13.966  76.548 114.181  0.00  0.00    -0.047 C 
ATOM      6  C   LIG d   1      12.529  76.058 114.473  0.00  0.00     0.091 C 
ENDROOT
BRANCH   1   7
ATOM      7  O   LIG d   1      10.203  76.822 114.581  0.00  0.00    -0.368 OA
BRANCH   7   8
ATOM      8  C   LIG d   1       9.389  76.795 115.779  0.00  0.00     0.119 C 
BRANCH   8   9
ATOM      9  C   LIG d   1       8.075  77.534 115.463  0.00  0.00     0.028 C 
ATOM     10  C   LIG d   1       7.231  77.795 116.722  0.00  0.00     0.006 C 
ENDBRANCH   8   9
BRANCH   8  11
ATOM     11  C   LIG d   1      10.040  77.592 116.913  0.00  0.00     0.028 C 
ATOM     12  C   LIG d   1      10.421  76.715 118.116  0.00  0.00     0.006 C 
ENDBRANCH   8  11
ENDBRANCH   7   8
ENDBRANCH   1   7
BRANCH   6  13
ATOM     13  N   LIG d   1      12.469  75.142 115.641  0.00  0.00    -0.311 N 
ATOM     14  C   LIG d   1      11.817  73.980 115.629  0.00  0.00     0.210 C 
ATOM     15  C   LIG d   1      11.865  73.198 116.946  0.00  0.00     0.109 C 
ATOM     16  O   LIG d   1      11.231  73.508 114.643  0.00  0.00    -0.276 OA
ATOM     17  H   LIG d   1      12.944  75.432 116.474  0.00  0.00     0.149 HD
ENDBRANCH   6  13
BRANCH   5  18
ATOM     18  N   LIG d   1      14.880  75.457 113.792  0.00  0.00     0.381 N 
ATOM     19  H   LIG d   1      15.242  75.010 114.611  0.00  0.00    -0.090 HD
ATOM     20  H   LIG d   1      15.651  75.847 113.279  0.00  0.00    -0.090 HD
ATOM     21  H   LIG d   1      14.398  74.793 113.227  0.00  0.00    -0.090 HD
ENDBRANCH   5  18
BRANCH   3  22
ATOM     22  C   LIG d   1      13.250  79.814 112.652  0.00  0.00     0.382 C 
ATOM     23  O   LIG d   1      14.253  80.472 113.020  0.00  0.00    -0.241 OA
ATOM     24  O   LIG d   1      12.471  80.301 111.811  0.00  0.00    -0.241 OA
ENDBRANCH   3  22
TORSDOF 7
ENDMDL
MODEL 8
REMARK VINA RESULT:      -4.6      2.386      4.877
REMARK  7 active torsions:
REMARK  status: ('A' for Active; 'I' for Inactive)
REMARK    1  A    between atoms: C_2  and  C_3 
REMARK    2  A    between atoms: C_3  and  O_6 
REMARK    3  A    between atoms: C_3  and  C_4 
REMARK    4  A    between atoms: C_7  and  O_6 
REMARK    5  A    between atoms: C_9  and  C_10 
REMARK    6  A    between atoms: N_15  and  C_14 
REMARK    7  A    between atoms: N_20  and  C_19 
REMARK       I    between atoms: C_22  and  N_20 
ROOT
ATOM      1  C   LIG d   1      -2.505  78.235 115.687  0.00  0.00     0.161 C 
ATOM      2  C   LIG d   1      -1.121  78.331 115.907  0.00  0.00     0.016 C 
ATOM      3  C   LIG d   1      -0.339  77.271 116.420  0.00  0.00     0.038 C 
ATOM      4  C   LIG d   1      -0.866  75.985 116.609  0.00  0.00     0.028 C 
ATOM      5  C   LIG d   1      -2.367  75.979 116.879  0.00  0.00    -0.047 C 
ATOM      6  C   LIG d   1      -3.077  76.805 115.782  0.00  0.00     0.091 C 
ENDROOT
BRANCH   1   7
ATOM      7  O   LIG d   1      -2.840  78.826 114.415  0.00  0.00    -0.368 OA
BRANCH   7   8
ATOM      8  C   LIG d   1      -1.878  78.633 113.350  0.00  0.00     0.119 C 
BRANCH   8   9
ATOM      9  C   LIG d   1      -1.642  80.003 112.686  0.00  0.00     0.028 C 
ATOM     10  C   LIG d   1      -2.823  80.966 112.892  0.00  0.00     0.006 C 
ENDBRANCH   8   9
BRANCH   8  11
ATOM     11  C   LIG d   1      -2.444  77.738 112.243  0.00  0.00     0.028 C 
ATOM     12  C   LIG d   1      -3.978  77.657 112.269  0.00  0.00     0.006 C 
ENDBRANCH   8  11
ENDBRANCH   7   8
ENDBRANCH   1   7
BRANCH   6  13
ATOM     13  N   LIG d   1      -4.540  76.921 116.017  0.00  0.00    -0.311 N 
ATOM     14  C   LIG d   1      -5.437  76.098 115.476  0.00  0.00     0.210 C 
ATOM     15  C   LIG d   1      -6.894  76.406 115.832  0.00  0.00     0.109 C 
ATOM     16  O   LIG d   1      -5.161  75.124 114.760  0.00  0.00    -0.276 OA
ATOM     17  H   LIG d   1      -4.849  77.665 116.611  0.00  0.00     0.149 HD
ENDBRANCH   6  13
BRANCH   5  18
ATOM     18  N   LIG d   1      -2.807  74.572 116.918  0.00  0.00     0.381 N 
ATOM     19  H   LIG d   1      -3.780  74.515 116.693  0.00  0.00    -0.090 HD
ATOM     20  H   LIG d   1      -2.677  74.216 117.849  0.00  0.00    -0.090 HD
ATOM     21  H   LIG d   1      -2.277  74.030 116.271  0.00  0.00    -0.090 HD
ENDBRANCH   5  18
BRANCH   3  22
ATOM     22  C   LIG d   1       0.977  77.505 116.789  0.00  0.00     0.382 C 
ATOM     23  O   LIG d   1       1.756  76.539 116.976  0.00  0.00    -0.241 OA
ATOM     24  O   LIG d   1       1.384  78.666 116.981  0.00  0.00    -0.241 OA
ENDBRANCH   3  22
TORSDOF 7
ENDMDL
MODEL 9
REMARK VINA RESULT:      -4.5      2.320      4.777
REMARK  7 active torsions:
REMARK  status: ('A' for Active; 'I' for Inactive)
REMARK    1  A    between atoms: C_2  and  C_3 
REMARK    2  A    between atoms: C_3  and  O_6 
REMARK    3  A    between atoms: C_3  and  C_4 
REMARK    4  A    between atoms: C_7  and  O_6 
REMARK    5  A    between atoms: C_9  and  C_10 
REMARK    6  A    between atoms: N_15  and  C_14 
REMARK    7  A    between atoms: N_20  and  C_19 
REMARK       I    between atoms: C_22  and  N_20 
ROOT
ATOM      1  C   LIG d   1      -1.201  76.212 114.845  0.00  0.00     0.161 C 
ATOM      2  C   LIG d   1      -2.438  76.321 114.189  0.00  0.00     0.016 C 
ATOM      3  C   LIG d   1      -3.665  75.930 114.771  0.00  0.00     0.038 C 
ATOM      4  C   LIG d   1      -3.757  75.541 116.116  0.00  0.00     0.028 C 
ATOM      5  C   LIG d   1      -2.468  74.935 116.660  0.00  0.00    -0.047 C 
ATOM      6  C   LIG d   1      -1.294  75.893 116.352  0.00  0.00     0.091 C 
ENDROOT
BRANCH   1   7
ATOM      7  O   LIG d   1      -0.427  77.409 114.634  0.00  0.00    -0.368 OA
BRANCH   7   8
ATOM      8  C   LIG d   1      -1.098  78.661 114.922  0.00  0.00     0.119 C 
BRANCH   8   9
ATOM      9  C   LIG d   1      -0.851  79.604 113.728  0.00  0.00     0.028 C 
ATOM     10  C   LIG d   1      -2.157  80.041 113.045  0.00  0.00     0.006 C 
ENDBRANCH   8   9
BRANCH   8  11
ATOM     11  C   LIG d   1      -0.473  79.363 116.130  0.00  0.00     0.028 C 
ATOM     12  C   LIG d   1      -1.467  79.559 117.286  0.00  0.00     0.006 C 
ENDBRANCH   8  11
ENDBRANCH   7   8
ENDBRANCH   1   7
BRANCH   6  13
ATOM     13  N   LIG d   1       0.017  75.337 116.777  0.00  0.00    -0.311 N 
ATOM     14  C   LIG d   1       0.715  75.811 117.807  0.00  0.00     0.210 C 
ATOM     15  C   LIG d   1       2.051  75.107 118.062  0.00  0.00     0.109 C 
ATOM     16  O   LIG d   1       0.340  76.727 118.554  0.00  0.00    -0.276 OA
ATOM     17  H   LIG d   1       0.382  74.571 116.245  0.00  0.00     0.149 HD
ENDBRANCH   6  13
BRANCH   5  18
ATOM     18  N   LIG d   1      -2.660  74.702 118.104  0.00  0.00     0.381 N 
ATOM     19  H   LIG d   1      -3.610  74.890 118.354  0.00  0.00    -0.090 HD
ATOM     20  H   LIG d   1      -2.068  75.332 118.617  0.00  0.00    -0.090 HD
ATOM     21  H   LIG d   1      -2.430  73.759 118.331  0.00  0.00    -0.090 HD
ENDBRANCH   5  18
BRANCH   3  22
ATOM     22  C   LIG d   1      -4.813  75.889 113.994  0.00  0.00     0.382 C 
ATOM     23  O   LIG d   1      -5.263  76.943 113.484  0.00  0.00    -0.241 OA
ATOM     24  O   LIG d   1      -5.428  74.818 113.832  0.00  0.00    -0.241 OA
ENDBRANCH   3  22
TORSDOF 7
ENDMDL
