MODEL 1
REMARK VINA RESULT:      -5.2      0.000      0.000
REMARK  7 active torsions:
REMARK  status: ('A' for Active; 'I' for Inactive)
REMARK    1  A    between atoms: C_2  and  C_3 
REMARK    2  A    between atoms: C_3  and  O_6 
REMARK    3  A    between atoms: C_3  and  C_4 
REMARK    4  A    between atoms: C_7  and  O_6 
REMARK    5  A    between atoms: C_9  and  C_10 
REMARK    6  A    between atoms: N_15  and  C_14 
REMARK    7  A    between atoms: N_20  and  C_19 
REMARK       I    between atoms: C_22  and  N_20 
ROOT
ATOM      1  C   LIG d   1      -6.519  76.937 117.631  0.00  0.00     0.161 C 
ATOM      2  C   LIG d   1      -7.300  78.093 117.459  0.00  0.00     0.016 C 
ATOM      3  C   LIG d   1      -6.761  79.400 117.445  0.00  0.00     0.038 C 
ATOM      4  C   LIG d   1      -5.378  79.632 117.452  0.00  0.00     0.028 C 
ATOM      5  C   LIG d   1      -4.581  78.524 118.133  0.00  0.00    -0.047 C 
ATOM      6  C   LIG d   1      -4.997  77.164 117.528  0.00  0.00     0.091 C 
ENDROOT
BRANCH   1   7
ATOM      7  O   LIG d   1      -6.939  75.921 116.698  0.00  0.00    -0.368 OA
BRANCH   7   8
ATOM      8  C   LIG d   1      -6.852  74.552 117.165  0.00  0.00     0.119 C 
BRANCH   8   9
ATOM      9  C   LIG d   1      -6.193  73.722 116.046  0.00  0.00     0.028 C 
ATOM     10  C   LIG d   1      -5.635  74.601 114.914  0.00  0.00     0.006 C 
ENDBRANCH   8   9
BRANCH   8  11
ATOM     11  C   LIG d   1      -8.242  73.940 117.359  0.00  0.00     0.028 C 
ATOM     12  C   LIG d   1      -8.218  72.404 117.386  0.00  0.00     0.006 C 
ENDBRANCH   8  11
ENDBRANCH   7   8
ENDBRANCH   1   7
BRANCH   6  13
ATOM     13  N   LIG d   1      -4.325  76.018 118.197  0.00  0.00    -0.311 N 
ATOM     14  C   LIG d   1      -3.227  75.434 117.722  0.00  0.00     0.210 C 
ATOM     15  C   LIG d   1      -2.709  74.257 118.555  0.00  0.00     0.109 C 
ATOM     16  O   LIG d   1      -2.614  75.798 116.707  0.00  0.00    -0.276 OA
ATOM     17  H   LIG d   1      -4.738  75.678 119.043  0.00  0.00     0.149 HD
ENDBRANCH   6  13
BRANCH   5  18
ATOM     18  N   LIG d   1      -3.149  78.827 117.946  0.00  0.00     0.381 N 
ATOM     19  H   LIG d   1      -2.743  79.093 118.821  0.00  0.00    -0.090 HD
ATOM     20  H   LIG d   1      -3.060  79.599 117.309  0.00  0.00    -0.090 HD
ATOM     21  H   LIG d   1      -2.677  78.029 117.581  0.00  0.00    -0.090 HD
ENDBRANCH   5  18
BRANCH   3  22
ATOM     22  C   LIG d   1      -7.613  80.494 117.464  0.00  0.00     0.382 C 
ATOM     23  O   LIG d   1      -8.737  80.404 118.016  0.00  0.00    -0.241 OA
ATOM     24  O   LIG d   1      -7.290  81.556 116.899  0.00  0.00    -0.241 OA
ENDBRANCH   3  22
TORSDOF 7
ENDMDL
MODEL 2
REMARK VINA RESULT:      -5.1     12.066     14.234
REMARK  7 active torsions:
REMARK  status: ('A' for Active; 'I' for Inactive)
REMARK    1  A    between atoms: C_2  and  C_3 
REMARK    2  A    between atoms: C_3  and  O_6 
REMARK    3  A    between atoms: C_3  and  C_4 
REMARK    4  A    between atoms: C_7  and  O_6 
REMARK    5  A    between atoms: C_9  and  C_10 
REMARK    6  A    between atoms: N_15  and  C_14 
REMARK    7  A    between atoms: N_20  and  C_19 
REMARK       I    between atoms: C_22  and  N_20 
ROOT
ATOM      1  C   LIG d   1       2.966  86.711 115.364  0.00  0.00     0.161 C 
ATOM      2  C   LIG d   1       3.074  88.030 114.893  0.00  0.00     0.016 C 
ATOM      3  C   LIG d   1       4.217  88.837 115.095  0.00  0.00     0.038 C 
ATOM      4  C   LIG d   1       5.397  88.324 115.654  0.00  0.00     0.028 C 
ATOM      5  C   LIG d   1       5.160  87.150 116.598  0.00  0.00    -0.047 C 
ATOM      6  C   LIG d   1       4.285  86.098 115.879  0.00  0.00     0.091 C 
ENDROOT
BRANCH   1   7
ATOM      7  O   LIG d   1       2.389  85.873 114.342  0.00  0.00    -0.368 OA
BRANCH   7   8
ATOM      8  C   LIG d   1       1.816  86.560 113.203  0.00  0.00     0.119 C 
BRANCH   8   9
ATOM      9  C   LIG d   1       0.325  86.176 113.133  0.00  0.00     0.028 C 
ATOM     10  C   LIG d   1      -0.328  86.595 111.805  0.00  0.00     0.006 C 
ENDBRANCH   8   9
BRANCH   8  11
ATOM     11  C   LIG d   1       2.424  86.064 111.888  0.00  0.00     0.028 C 
ATOM     12  C   LIG d   1       3.940  86.302 111.806  0.00  0.00     0.006 C 
ENDBRANCH   8  11
ENDBRANCH   7   8
ENDBRANCH   1   7
BRANCH   6  13
ATOM     13  N   LIG d   1       3.935  84.954 116.761  0.00  0.00    -0.311 N 
ATOM     14  C   LIG d   1       4.486  83.746 116.649  0.00  0.00     0.210 C 
ATOM     15  C   LIG d   1       3.968  82.704 117.645  0.00  0.00     0.109 C 
ATOM     16  O   LIG d   1       5.378  83.448 115.841  0.00  0.00    -0.276 OA
ATOM     17  H   LIG d   1       3.242  85.116 117.465  0.00  0.00     0.149 HD
ENDBRANCH   6  13
BRANCH   5  18
ATOM     18  N   LIG d   1       6.479  86.627 117.000  0.00  0.00     0.381 N 
ATOM     19  H   LIG d   1       7.203  87.167 116.569  0.00  0.00    -0.090 HD
ATOM     20  H   LIG d   1       6.563  85.677 116.683  0.00  0.00    -0.090 HD
ATOM     21  H   LIG d   1       6.573  86.664 117.991  0.00  0.00    -0.090 HD
ENDBRANCH   5  18
BRANCH   3  22
ATOM     22  C   LIG d   1       4.173  90.184 114.771  0.00  0.00     0.382 C 
ATOM     23  O   LIG d   1       4.132  91.047 115.681  0.00  0.00    -0.241 OA
ATOM     24  O   LIG d   1       4.129  90.547 113.580  0.00  0.00    -0.241 OA
ENDBRANCH   3  22
TORSDOF 7
ENDMDL
MODEL 3
REMARK VINA RESULT:      -5.0      1.643      2.614
REMARK  7 active torsions:
REMARK  status: ('A' for Active; 'I' for Inactive)
REMARK    1  A    between atoms: C_2  and  C_3 
REMARK    2  A    between atoms: C_3  and  O_6 
REMARK    3  A    between atoms: C_3  and  C_4 
REMARK    4  A    between atoms: C_7  and  O_6 
REMARK    5  A    between atoms: C_9  and  C_10 
REMARK    6  A    between atoms: N_15  and  C_14 
REMARK    7  A    between atoms: N_20  and  C_19 
REMARK       I    between atoms: C_22  and  N_20 
ROOT
ATOM      1  C   LIG d   1      -6.473  76.283 118.423  0.00  0.00     0.161 C 
ATOM      2  C   LIG d   1      -7.848  76.565 118.369  0.00  0.00     0.016 C 
ATOM      3  C   LIG d   1      -8.370  77.816 117.968  0.00  0.00     0.038 C 
ATOM      4  C   LIG d   1      -7.552  78.829 117.447  0.00  0.00     0.028 C 
ATOM      5  C   LIG d   1      -6.116  78.770 117.957  0.00  0.00    -0.047 C 
ATOM      6  C   LIG d   1      -5.569  77.338 117.752  0.00  0.00     0.091 C 
ENDROOT
BRANCH   1   7
ATOM      7  O   LIG d   1      -6.219  74.978 117.866  0.00  0.00    -0.368 OA
BRANCH   7   8
ATOM      8  C   LIG d   1      -6.996  74.624 116.695  0.00  0.00     0.119 C 
BRANCH   8   9
ATOM      9  C   LIG d   1      -7.242  73.103 116.746  0.00  0.00     0.028 C 
ATOM     10  C   LIG d   1      -8.405  72.728 117.680  0.00  0.00     0.006 C 
ENDBRANCH   8   9
BRANCH   8  11
ATOM     11  C   LIG d   1      -6.203  74.863 115.407  0.00  0.00     0.028 C 
ATOM     12  C   LIG d   1      -6.791  75.992 114.546  0.00  0.00     0.006 C 
ENDBRANCH   8  11
ENDBRANCH   7   8
ENDBRANCH   1   7
BRANCH   6  13
ATOM     13  N   LIG d   1      -4.198  77.171 118.301  0.00  0.00    -0.311 N 
ATOM     14  C   LIG d   1      -3.157  76.780 117.568  0.00  0.00     0.210 C 
ATOM     15  C   LIG d   1      -1.837  76.653 118.335  0.00  0.00     0.109 C 
ATOM     16  O   LIG d   1      -3.195  76.557 116.349  0.00  0.00    -0.276 OA
ATOM     17  H   LIG d   1      -4.071  77.361 119.276  0.00  0.00     0.149 HD
ENDBRANCH   6  13
BRANCH   5  18
ATOM     18  N   LIG d   1      -5.342  79.793 117.229  0.00  0.00     0.381 N 
ATOM     19  H   LIG d   1      -5.519  80.696 117.624  0.00  0.00    -0.090 HD
ATOM     20  H   LIG d   1      -5.640  79.805 116.270  0.00  0.00    -0.090 HD
ATOM     21  H   LIG d   1      -4.369  79.586 117.281  0.00  0.00    -0.090 HD
ENDBRANCH   5  18
BRANCH   3  22
ATOM     22  C   LIG d   1      -9.723  78.078 118.125  0.00  0.00     0.382 C 
ATOM     23  O   LIG d   1     -10.131  79.264 118.171  0.00  0.00    -0.241 OA
ATOM     24  O   LIG d   1     -10.535  77.144 118.267  0.00  0.00    -0.241 OA
ENDBRANCH   3  22
TORSDOF 7
ENDMDL
MODEL 4
REMARK VINA RESULT:      -4.8     18.251     19.848
REMARK  7 active torsions:
REMARK  status: ('A' for Active; 'I' for Inactive)
REMARK    1  A    between atoms: C_2  and  C_3 
REMARK    2  A    between atoms: C_3  and  O_6 
REMARK    3  A    between atoms: C_3  and  C_4 
REMARK    4  A    between atoms: C_7  and  O_6 
REMARK    5  A    between atoms: C_9  and  C_10 
REMARK    6  A    between atoms: N_15  and  C_14 
REMARK    7  A    between atoms: N_20  and  C_19 
REMARK       I    between atoms: C_22  and  N_20 
ROOT
ATOM      1  C   LIG d   1     -24.796  83.612 114.985  0.00  0.00     0.161 C 
ATOM      2  C   LIG d   1     -25.315  82.323 114.782  0.00  0.00     0.016 C 
ATOM      3  C   LIG d   1     -24.850  81.447 113.774  0.00  0.00     0.038 C 
ATOM      4  C   LIG d   1     -23.724  81.745 112.994  0.00  0.00     0.028 C 
ATOM      5  C   LIG d   1     -23.485  83.242 112.823  0.00  0.00    -0.047 C 
ATOM      6  C   LIG d   1     -23.492  83.913 114.216  0.00  0.00     0.091 C 
ENDROOT
BRANCH   1   7
ATOM      7  O   LIG d   1     -24.611  83.848 116.395  0.00  0.00    -0.368 OA
BRANCH   7   8
ATOM      8  C   LIG d   1     -23.640  83.003 117.061  0.00  0.00     0.119 C 
BRANCH   8   9
ATOM      9  C   LIG d   1     -24.314  82.430 118.323  0.00  0.00     0.028 C 
ATOM     10  C   LIG d   1     -24.661  80.939 118.176  0.00  0.00     0.006 C 
ENDBRANCH   8   9
BRANCH   8  11
ATOM     11  C   LIG d   1     -22.449  83.819 117.571  0.00  0.00     0.028 C 
ATOM     12  C   LIG d   1     -22.814  85.281 117.875  0.00  0.00     0.006 C 
ENDBRANCH   8  11
ENDBRANCH   7   8
ENDBRANCH   1   7
BRANCH   6  13
ATOM     13  N   LIG d   1     -23.349  85.390 114.134  0.00  0.00    -0.311 N 
ATOM     14  C   LIG d   1     -22.195  86.026 114.324  0.00  0.00     0.210 C 
ATOM     15  C   LIG d   1     -22.271  87.552 114.214  0.00  0.00     0.109 C 
ATOM     16  O   LIG d   1     -21.108  85.470 114.541  0.00  0.00    -0.276 OA
ATOM     17  H   LIG d   1     -24.175  85.918 113.930  0.00  0.00     0.149 HD
ENDBRANCH   6  13
BRANCH   5  18
ATOM     18  N   LIG d   1     -22.206  83.410 112.107  0.00  0.00     0.381 N 
ATOM     19  H   LIG d   1     -21.444  83.321 112.749  0.00  0.00    -0.090 HD
ATOM     20  H   LIG d   1     -22.176  84.332 111.708  0.00  0.00    -0.090 HD
ATOM     21  H   LIG d   1     -22.126  82.726 111.387  0.00  0.00    -0.090 HD
ENDBRANCH   5  18
BRANCH   3  22
ATOM     22  C   LIG d   1     -25.540  80.272 113.513  0.00  0.00     0.382 C 
ATOM     23  O   LIG d   1     -26.600  80.304 112.842  0.00  0.00    -0.241 OA
ATOM     24  O   LIG d   1     -25.140  79.188 113.978  0.00  0.00    -0.241 OA
ENDBRANCH   3  22
TORSDOF 7
ENDMDL
MODEL 5
REMARK VINA RESULT:      -4.8     11.221     13.907
REMARK  7 active torsions:
REMARK  status: ('A' for Active; 'I' for Inactive)
REMARK    1  A    between atoms: C_2  and  C_3 
REMARK    2  A    between atoms: C_3  and  O_6 
REMARK    3  A    between atoms: C_3  and  C_4 
REMARK    4  A    between atoms: C_7  and  O_6 
REMARK    5  A    between atoms: C_9  and  C_10 
REMARK    6  A    between atoms: N_15  and  C_14 
REMARK    7  A    between atoms: N_20  and  C_19 
REMARK       I    between atoms: C_22  and  N_20 
ROOT
ATOM      1  C   LIG d   1       2.163  87.483 115.868  0.00  0.00     0.161 C 
ATOM      2  C   LIG d   1       2.808  88.509 115.157  0.00  0.00     0.016 C 
ATOM      3  C   LIG d   1       3.750  88.271 114.130  0.00  0.00     0.038 C 
ATOM      4  C   LIG d   1       4.000  86.981 113.638  0.00  0.00     0.028 C 
ATOM      5  C   LIG d   1       3.750  85.882 114.664  0.00  0.00    -0.047 C 
ATOM      6  C   LIG d   1       2.340  86.072 115.269  0.00  0.00     0.091 C 
ENDROOT
BRANCH   1   7
ATOM      7  O   LIG d   1       0.763  87.794 116.012  0.00  0.00    -0.368 OA
BRANCH   7   8
ATOM      8  C   LIG d   1       0.329  88.178 117.339  0.00  0.00     0.119 C 
BRANCH   8   9
ATOM      9  C   LIG d   1      -0.873  87.286 117.710  0.00  0.00     0.028 C 
ATOM     10  C   LIG d   1      -2.215  88.025 117.577  0.00  0.00     0.006 C 
ENDBRANCH   8   9
BRANCH   8  11
ATOM     11  C   LIG d   1      -0.210  89.612 117.357  0.00  0.00     0.028 C 
ATOM     12  C   LIG d   1       0.793  90.617 117.944  0.00  0.00     0.006 C 
ENDBRANCH   8  11
ENDBRANCH   7   8
ENDBRANCH   1   7
BRANCH   6  13
ATOM     13  N   LIG d   1       2.046  85.087 116.343  0.00  0.00    -0.311 N 
ATOM     14  C   LIG d   1       1.545  83.875 116.110  0.00  0.00     0.210 C 
ATOM     15  C   LIG d   1       1.299  83.026 117.361  0.00  0.00     0.109 C 
ATOM     16  O   LIG d   1       1.312  83.411 114.984  0.00  0.00    -0.276 OA
ATOM     17  H   LIG d   1       2.235  85.370 117.285  0.00  0.00     0.149 HD
ENDBRANCH   6  13
BRANCH   5  18
ATOM     18  N   LIG d   1       3.915  84.586 113.979  0.00  0.00     0.381 N 
ATOM     19  H   LIG d   1       3.968  84.730 112.990  0.00  0.00    -0.090 HD
ATOM     20  H   LIG d   1       3.113  84.012 114.171  0.00  0.00    -0.090 HD
ATOM     21  H   LIG d   1       4.742  84.133 114.301  0.00  0.00    -0.090 HD
ENDBRANCH   5  18
BRANCH   3  22
ATOM     22  C   LIG d   1       4.484  89.327 113.612  0.00  0.00     0.382 C 
ATOM     23  O   LIG d   1       5.591  89.112 113.064  0.00  0.00    -0.241 OA
ATOM     24  O   LIG d   1       4.072  90.498 113.726  0.00  0.00    -0.241 OA
ENDBRANCH   3  22
TORSDOF 7
ENDMDL
MODEL 6
REMARK VINA RESULT:      -4.5     11.660     14.615
REMARK  7 active torsions:
REMARK  status: ('A' for Active; 'I' for Inactive)
REMARK    1  A    between atoms: C_2  and  C_3 
REMARK    2  A    between atoms: C_3  and  O_6 
REMARK    3  A    between atoms: C_3  and  C_4 
REMARK    4  A    between atoms: C_7  and  O_6 
REMARK    5  A    between atoms: C_9  and  C_10 
REMARK    6  A    between atoms: N_15  and  C_14 
REMARK    7  A    between atoms: N_20  and  C_19 
REMARK       I    between atoms: C_22  and  N_20 
ROOT
ATOM      1  C   LIG d   1       3.711  86.453 115.702  0.00  0.00     0.161 C 
ATOM      2  C   LIG d   1       3.541  85.192 115.105  0.00  0.00     0.016 C 
ATOM      3  C   LIG d   1       2.275  84.616 114.851  0.00  0.00     0.038 C 
ATOM      4  C   LIG d   1       1.083  85.331 115.039  0.00  0.00     0.028 C 
ATOM      5  C   LIG d   1       1.188  86.412 116.110  0.00  0.00    -0.047 C 
ATOM      6  C   LIG d   1       2.422  87.295 115.813  0.00  0.00     0.091 C 
ENDROOT
BRANCH   1   7
ATOM      7  O   LIG d   1       4.733  87.190 115.004  0.00  0.00    -0.368 OA
BRANCH   7   8
ATOM      8  C   LIG d   1       4.285  88.003 113.891  0.00  0.00     0.119 C 
BRANCH   8   9
ATOM      9  C   LIG d   1       4.343  87.127 112.625  0.00  0.00     0.028 C 
ATOM     10  C   LIG d   1       2.959  86.933 111.982  0.00  0.00     0.006 C 
ENDBRANCH   8   9
BRANCH   8  11
ATOM     11  C   LIG d   1       5.248  89.164 113.626  0.00  0.00     0.028 C 
ATOM     12  C   LIG d   1       5.558  89.982 114.890  0.00  0.00     0.006 C 
ENDBRANCH   8  11
ENDBRANCH   7   8
ENDBRANCH   1   7
BRANCH   6  13
ATOM     13  N   LIG d   1       2.647  88.325 116.860  0.00  0.00    -0.311 N 
ATOM     14  C   LIG d   1       2.491  89.631 116.648  0.00  0.00     0.210 C 
ATOM     15  C   LIG d   1       2.794  90.523 117.856  0.00  0.00     0.109 C 
ATOM     16  O   LIG d   1       2.099  90.133 115.584  0.00  0.00    -0.276 OA
ATOM     17  H   LIG d   1       2.937  88.003 117.762  0.00  0.00     0.149 HD
ENDBRANCH   6  13
BRANCH   5  18
ATOM     18  N   LIG d   1      -0.078  87.168 116.106  0.00  0.00     0.381 N 
ATOM     19  H   LIG d   1      -0.183  87.658 116.972  0.00  0.00    -0.090 HD
ATOM     20  H   LIG d   1      -0.842  86.522 116.014  0.00  0.00    -0.090 HD
ATOM     21  H   LIG d   1      -0.087  87.815 115.347  0.00  0.00    -0.090 HD
ENDBRANCH   5  18
BRANCH   3  22
ATOM     22  C   LIG d   1       2.192  83.294 114.439  0.00  0.00     0.382 C 
ATOM     23  O   LIG d   1       1.115  82.849 113.976  0.00  0.00    -0.241 OA
ATOM     24  O   LIG d   1       3.168  82.531 114.566  0.00  0.00    -0.241 OA
ENDBRANCH   3  22
TORSDOF 7
ENDMDL
MODEL 7
REMARK VINA RESULT:      -4.5     11.831     13.911
REMARK  7 active torsions:
REMARK  status: ('A' for Active; 'I' for Inactive)
REMARK    1  A    between atoms: C_2  and  C_3 
REMARK    2  A    between atoms: C_3  and  O_6 
REMARK    3  A    between atoms: C_3  and  C_4 
REMARK    4  A    between atoms: C_7  and  O_6 
REMARK    5  A    between atoms: C_9  and  C_10 
REMARK    6  A    between atoms: N_15  and  C_14 
REMARK    7  A    between atoms: N_20  and  C_19 
REMARK       I    between atoms: C_22  and  N_20 
ROOT
ATOM      1  C   LIG d   1       3.389  86.679 115.732  0.00  0.00     0.161 C 
ATOM      2  C   LIG d   1       3.348  87.961 115.159  0.00  0.00     0.016 C 
ATOM      3  C   LIG d   1       4.430  88.870 115.207  0.00  0.00     0.038 C 
ATOM      4  C   LIG d   1       5.688  88.499 115.704  0.00  0.00     0.028 C 
ATOM      5  C   LIG d   1       5.625  87.388 116.746  0.00  0.00    -0.047 C 
ATOM      6  C   LIG d   1       4.791  86.216 116.181  0.00  0.00     0.091 C 
ENDROOT
BRANCH   1   7
ATOM      7  O   LIG d   1       2.811  85.719 114.825  0.00  0.00    -0.368 OA
BRANCH   7   8
ATOM      8  C   LIG d   1       1.459  85.292 115.126  0.00  0.00     0.119 C 
BRANCH   8   9
ATOM      9  C   LIG d   1       0.498  86.303 114.470  0.00  0.00     0.028 C 
ATOM     10  C   LIG d   1       0.180  85.946 113.008  0.00  0.00     0.006 C 
ENDBRANCH   8   9
BRANCH   8  11
ATOM     11  C   LIG d   1       1.170  85.373 116.628  0.00  0.00     0.028 C 
ATOM     12  C   LIG d   1       1.096  83.991 117.295  0.00  0.00     0.006 C 
ENDBRANCH   8  11
ENDBRANCH   7   8
ENDBRANCH   1   7
BRANCH   6  13
ATOM     13  N   LIG d   1       4.609  85.121 117.169  0.00  0.00    -0.311 N 
ATOM     14  C   LIG d   1       4.928  83.851 116.924  0.00  0.00     0.210 C 
ATOM     15  C   LIG d   1       4.640  82.879 118.073  0.00  0.00     0.109 C 
ATOM     16  O   LIG d   1       5.452  83.443 115.877  0.00  0.00    -0.276 OA
ATOM     17  H   LIG d   1       4.218  85.369 118.057  0.00  0.00     0.149 HD
ENDBRANCH   6  13
BRANCH   5  18
ATOM     18  N   LIG d   1       7.011  87.006 117.076  0.00  0.00     0.381 N 
ATOM     19  H   LIG d   1       7.204  86.092 116.718  0.00  0.00    -0.090 HD
ATOM     20  H   LIG d   1       7.113  86.981 118.075  0.00  0.00    -0.090 HD
ATOM     21  H   LIG d   1       7.648  87.665 116.685  0.00  0.00    -0.090 HD
ENDBRANCH   5  18
BRANCH   3  22
ATOM     22  C   LIG d   1       4.246  90.179 114.791  0.00  0.00     0.382 C 
ATOM     23  O   LIG d   1       4.199  91.105 115.636  0.00  0.00    -0.241 OA
ATOM     24  O   LIG d   1       4.081  90.442 113.585  0.00  0.00    -0.241 OA
ENDBRANCH   3  22
TORSDOF 7
ENDMDL
MODEL 8
REMARK VINA RESULT:      -4.4     14.263     16.914
REMARK  7 active torsions:
REMARK  status: ('A' for Active; 'I' for Inactive)
REMARK    1  A    between atoms: C_2  and  C_3 
REMARK    2  A    between atoms: C_3  and  O_6 
REMARK    3  A    between atoms: C_3  and  C_4 
REMARK    4  A    between atoms: C_7  and  O_6 
REMARK    5  A    between atoms: C_9  and  C_10 
REMARK    6  A    between atoms: N_15  and  C_14 
REMARK    7  A    between atoms: N_20  and  C_19 
REMARK       I    between atoms: C_22  and  N_20 
ROOT
ATOM      1  C   LIG d   1      10.520  76.256 115.928  0.00  0.00     0.161 C 
ATOM      2  C   LIG d   1       9.176  76.600 115.707  0.00  0.00     0.016 C 
ATOM      3  C   LIG d   1       8.752  77.905 115.369  0.00  0.00     0.038 C 
ATOM      4  C   LIG d   1       9.666  78.929 115.078  0.00  0.00     0.028 C 
ATOM      5  C   LIG d   1      11.009  78.759 115.779  0.00  0.00    -0.047 C 
ATOM      6  C   LIG d   1      11.541  77.333 115.507  0.00  0.00     0.091 C 
ENDROOT
BRANCH   1   7
ATOM      7  O   LIG d   1      10.817  75.003 115.279  0.00  0.00    -0.368 OA
BRANCH   7   8
ATOM      8  C   LIG d   1      11.082  73.880 116.154  0.00  0.00     0.119 C 
BRANCH   8   9
ATOM      9  C   LIG d   1      12.291  73.118 115.576  0.00  0.00     0.028 C 
ATOM     10  C   LIG d   1      12.970  73.882 114.427  0.00  0.00     0.006 C 
ENDBRANCH   8   9
BRANCH   8  11
ATOM     11  C   LIG d   1       9.926  72.876 116.139  0.00  0.00     0.028 C 
ATOM     12  C   LIG d   1       9.540  72.433 114.718  0.00  0.00     0.006 C 
ENDBRANCH   8  11
ENDBRANCH   7   8
ENDBRANCH   1   7
BRANCH   6  13
ATOM     13  N   LIG d   1      12.811  77.055 116.226  0.00  0.00    -0.311 N 
ATOM     14  C   LIG d   1      14.014  77.210 115.677  0.00  0.00     0.210 C 
ATOM     15  C   LIG d   1      15.192  76.848 116.586  0.00  0.00     0.109 C 
ATOM     16  O   LIG d   1      14.218  77.645 114.533  0.00  0.00    -0.276 OA
ATOM     17  H   LIG d   1      12.739  76.728 117.170  0.00  0.00     0.149 HD
ENDBRANCH   6  13
BRANCH   5  18
ATOM     18  N   LIG d   1      11.909  79.816 115.281  0.00  0.00     0.381 N 
ATOM     19  H   LIG d   1      11.385  80.649 115.097  0.00  0.00    -0.090 HD
ATOM     20  H   LIG d   1      12.326  79.509 114.420  0.00  0.00    -0.090 HD
ATOM     21  H   LIG d   1      12.620  80.005 115.954  0.00  0.00    -0.090 HD
ENDBRANCH   5  18
BRANCH   3  22
ATOM     22  C   LIG d   1       7.399  78.208 115.357  0.00  0.00     0.382 C 
ATOM     23  O   LIG d   1       6.585  77.416 114.823  0.00  0.00    -0.241 OA
ATOM     24  O   LIG d   1       6.987  79.282 115.834  0.00  0.00    -0.241 OA
ENDBRANCH   3  22
TORSDOF 7
ENDMDL
MODEL 9
REMARK VINA RESULT:      -4.4     19.095     21.153
REMARK  7 active torsions:
REMARK  status: ('A' for Active; 'I' for Inactive)
REMARK    1  A    between atoms: C_2  and  C_3 
REMARK    2  A    between atoms: C_3  and  O_6 
REMARK    3  A    between atoms: C_3  and  C_4 
REMARK    4  A    between atoms: C_7  and  O_6 
REMARK    5  A    between atoms: C_9  and  C_10 
REMARK    6  A    between atoms: N_15  and  C_14 
REMARK    7  A    between atoms: N_20  and  C_19 
REMARK       I    between atoms: C_22  and  N_20 
ROOT
ATOM      1  C   LIG d   1     -24.213  84.819 113.214  0.00  0.00     0.161 C 
ATOM      2  C   LIG d   1     -24.508  83.465 112.987  0.00  0.00     0.016 C 
ATOM      3  C   LIG d   1     -24.453  82.477 113.997  0.00  0.00     0.038 C 
ATOM      4  C   LIG d   1     -24.245  82.805 115.345  0.00  0.00     0.028 C 
ATOM      5  C   LIG d   1     -23.445  84.089 115.539  0.00  0.00    -0.047 C 
ATOM      6  C   LIG d   1     -24.093  85.215 114.701  0.00  0.00     0.091 C 
ENDROOT
BRANCH   1   7
ATOM      7  O   LIG d   1     -25.189  85.649 112.553  0.00  0.00    -0.368 OA
BRANCH   7   8
ATOM      8  C   LIG d   1     -26.418  85.891 113.281  0.00  0.00     0.119 C 
BRANCH   8   9
ATOM      9  C   LIG d   1     -27.547  85.146 112.543  0.00  0.00     0.028 C 
ATOM     10  C   LIG d   1     -28.331  84.202 113.471  0.00  0.00     0.006 C 
ENDBRANCH   8   9
BRANCH   8  11
ATOM     11  C   LIG d   1     -26.810  87.371 113.234  0.00  0.00     0.028 C 
ATOM     12  C   LIG d   1     -27.067  87.875 111.805  0.00  0.00     0.006 C 
ENDBRANCH   8  11
ENDBRANCH   7   8
ENDBRANCH   1   7
BRANCH   6  13
ATOM     13  N   LIG d   1     -23.324  86.485 114.767  0.00  0.00    -0.311 N 
ATOM     14  C   LIG d   1     -22.089  86.620 114.288  0.00  0.00     0.210 C 
ATOM     15  C   LIG d   1     -21.470  88.009 114.478  0.00  0.00     0.109 C 
ATOM     16  O   LIG d   1     -21.459  85.731 113.696  0.00  0.00    -0.276 OA
ATOM     17  H   LIG d   1     -23.772  87.267 115.204  0.00  0.00     0.149 HD
ENDBRANCH   6  13
BRANCH   5  18
ATOM     18  N   LIG d   1     -23.422  84.385 116.984  0.00  0.00     0.381 N 
ATOM     19  H   LIG d   1     -24.220  84.935 117.231  0.00  0.00    -0.090 HD
ATOM     20  H   LIG d   1     -22.596  84.918 117.193  0.00  0.00    -0.090 HD
ATOM     21  H   LIG d   1     -23.420  83.537 117.506  0.00  0.00    -0.090 HD
ENDBRANCH   5  18
BRANCH   3  22
ATOM     22  C   LIG d   1     -24.568  81.138 113.656  0.00  0.00     0.382 C 
ATOM     23  O   LIG d   1     -24.181  80.251 114.455  0.00  0.00    -0.241 OA
ATOM     24  O   LIG d   1     -25.012  80.806 112.540  0.00  0.00    -0.241 OA
ENDBRANCH   3  22
TORSDOF 7
ENDMDL
