MODEL 1
REMARK VINA RESULT:      -5.3      0.000      0.000
REMARK  7 active torsions:
REMARK  status: ('A' for Active; 'I' for Inactive)
REMARK    1  A    between atoms: C_2  and  C_3 
REMARK    2  A    between atoms: C_3  and  O_6 
REMARK    3  A    between atoms: C_3  and  C_4 
REMARK    4  A    between atoms: C_7  and  O_6 
REMARK    5  A    between atoms: C_9  and  C_10 
REMARK    6  A    between atoms: N_15  and  C_14 
REMARK    7  A    between atoms: N_20  and  C_19 
REMARK       I    between atoms: C_22  and  N_20 
ROOT
ATOM      1  C   LIG d   1      -6.389  91.086 117.580  0.00  0.00     0.161 C 
ATOM      2  C   LIG d   1      -7.234  92.204 117.484  0.00  0.00     0.016 C 
ATOM      3  C   LIG d   1      -6.784  93.536 117.640  0.00  0.00     0.038 C 
ATOM      4  C   LIG d   1      -5.421  93.849 117.754  0.00  0.00     0.028 C 
ATOM      5  C   LIG d   1      -4.589  92.724 118.361  0.00  0.00    -0.047 C 
ATOM      6  C   LIG d   1      -4.881  91.414 117.593  0.00  0.00     0.091 C 
ENDROOT
BRANCH   1   7
ATOM      7  O   LIG d   1      -6.690  90.154 116.523  0.00  0.00    -0.368 OA
BRANCH   7   8
ATOM      8  C   LIG d   1      -7.547  90.647 115.464  0.00  0.00     0.119 C 
BRANCH   8   9
ATOM      9  C   LIG d   1      -8.423  89.470 114.992  0.00  0.00     0.028 C 
ATOM     10  C   LIG d   1      -8.958  88.629 116.163  0.00  0.00     0.006 C 
ENDBRANCH   8   9
BRANCH   8  11
ATOM     11  C   LIG d   1      -6.732  91.064 114.236  0.00  0.00     0.028 C 
ATOM     12  C   LIG d   1      -7.187  92.409 113.648  0.00  0.00     0.006 C 
ENDBRANCH   8  11
ENDBRANCH   7   8
ENDBRANCH   1   7
BRANCH   6  13
ATOM     13  N   LIG d   1      -4.172  90.245 118.176  0.00  0.00    -0.311 N 
ATOM     14  C   LIG d   1      -2.939  89.886 117.824  0.00  0.00     0.210 C 
ATOM     15  C   LIG d   1      -2.402  88.639 118.533  0.00  0.00     0.109 C 
ATOM     16  O   LIG d   1      -2.226  90.501 117.017  0.00  0.00    -0.276 OA
ATOM     17  H   LIG d   1      -4.665  89.708 118.863  0.00  0.00     0.149 HD
ENDBRANCH   6  13
BRANCH   5  18
ATOM     18  N   LIG d   1      -3.173  93.130 118.293  0.00  0.00     0.381 N 
ATOM     19  H   LIG d   1      -2.844  93.057 117.351  0.00  0.00    -0.090 HD
ATOM     20  H   LIG d   1      -2.629  92.509 118.866  0.00  0.00    -0.090 HD
ATOM     21  H   LIG d   1      -3.071  94.067 118.616  0.00  0.00    -0.090 HD
ENDBRANCH   5  18
BRANCH   3  22
ATOM     22  C   LIG d   1      -7.706  94.568 117.724  0.00  0.00     0.382 C 
ATOM     23  O   LIG d   1      -7.401  95.635 118.308  0.00  0.00    -0.241 OA
ATOM     24  O   LIG d   1      -8.854  94.428 117.261  0.00  0.00    -0.241 OA
ENDBRANCH   3  22
TORSDOF 7
ENDMDL
MODEL 2
REMARK VINA RESULT:      -5.1     13.586     15.577
REMARK  7 active torsions:
REMARK  status: ('A' for Active; 'I' for Inactive)
REMARK    1  A    between atoms: C_2  and  C_3 
REMARK    2  A    between atoms: C_3  and  O_6 
REMARK    3  A    between atoms: C_3  and  C_4 
REMARK    4  A    between atoms: C_7  and  O_6 
REMARK    5  A    between atoms: C_9  and  C_10 
REMARK    6  A    between atoms: N_15  and  C_14 
REMARK    7  A    between atoms: N_20  and  C_19 
REMARK       I    between atoms: C_22  and  N_20 
ROOT
ATOM      1  C   LIG d   1      -2.874  77.877 115.954  0.00  0.00     0.161 C 
ATOM      2  C   LIG d   1      -3.081  78.762 114.883  0.00  0.00     0.016 C 
ATOM      3  C   LIG d   1      -2.294  78.760 113.709  0.00  0.00     0.038 C 
ATOM      4  C   LIG d   1      -1.335  77.767 113.460  0.00  0.00     0.028 C 
ATOM      5  C   LIG d   1      -0.748  77.161 114.731  0.00  0.00    -0.047 C 
ATOM      6  C   LIG d   1      -1.904  76.715 115.654  0.00  0.00     0.091 C 
ENDROOT
BRANCH   1   7
ATOM      7  O   LIG d   1      -4.139  77.367 116.419  0.00  0.00    -0.368 OA
BRANCH   7   8
ATOM      8  C   LIG d   1      -4.535  76.074 115.899  0.00  0.00     0.119 C 
BRANCH   8   9
ATOM      9  C   LIG d   1      -5.685  76.309 114.901  0.00  0.00     0.028 C 
ATOM     10  C   LIG d   1      -5.331  75.846 113.477  0.00  0.00     0.006 C 
ENDBRANCH   8   9
BRANCH   8  11
ATOM     11  C   LIG d   1      -5.127  75.188 116.999  0.00  0.00     0.028 C 
ATOM     12  C   LIG d   1      -6.329  74.361 116.516  0.00  0.00     0.006 C 
ENDBRANCH   8  11
ENDBRANCH   7   8
ENDBRANCH   1   7
BRANCH   6  13
ATOM     13  N   LIG d   1      -1.419  76.187 116.956  0.00  0.00    -0.311 N 
ATOM     14  C   LIG d   1      -0.985  74.939 117.125  0.00  0.00     0.210 C 
ATOM     15  C   LIG d   1      -0.548  74.595 118.553  0.00  0.00     0.109 C 
ATOM     16  O   LIG d   1      -0.890  74.095 116.222  0.00  0.00    -0.276 OA
ATOM     17  H   LIG d   1      -1.432  76.815 117.736  0.00  0.00     0.149 HD
ENDBRANCH   6  13
BRANCH   5  18
ATOM     18  N   LIG d   1       0.132  76.048 114.328  0.00  0.00     0.381 N 
ATOM     19  H   LIG d   1       1.089  76.303 114.474  0.00  0.00    -0.090 HD
ATOM     20  H   LIG d   1       0.001  75.868 113.348  0.00  0.00    -0.090 HD
ATOM     21  H   LIG d   1      -0.086  75.232 114.856  0.00  0.00    -0.090 HD
ENDBRANCH   5  18
BRANCH   3  22
ATOM     22  C   LIG d   1      -2.435  79.785 112.785  0.00  0.00     0.382 C 
ATOM     23  O   LIG d   1      -1.644  79.868 111.815  0.00  0.00    -0.241 OA
ATOM     24  O   LIG d   1      -3.317  80.652 112.934  0.00  0.00    -0.241 OA
ENDBRANCH   3  22
TORSDOF 7
ENDMDL
MODEL 3
REMARK VINA RESULT:      -5.1     18.246     21.078
REMARK  7 active torsions:
REMARK  status: ('A' for Active; 'I' for Inactive)
REMARK    1  A    between atoms: C_2  and  C_3 
REMARK    2  A    between atoms: C_3  and  O_6 
REMARK    3  A    between atoms: C_3  and  C_4 
REMARK    4  A    between atoms: C_7  and  O_6 
REMARK    5  A    between atoms: C_9  and  C_10 
REMARK    6  A    between atoms: N_15  and  C_14 
REMARK    7  A    between atoms: N_20  and  C_19 
REMARK       I    between atoms: C_22  and  N_20 
ROOT
ATOM      1  C   LIG d   1     -25.457  85.782 113.390  0.00  0.00     0.161 C 
ATOM      2  C   LIG d   1     -24.336  86.593 113.635  0.00  0.00     0.016 C 
ATOM      3  C   LIG d   1     -23.043  86.078 113.887  0.00  0.00     0.038 C 
ATOM      4  C   LIG d   1     -22.752  84.712 113.760  0.00  0.00     0.028 C 
ATOM      5  C   LIG d   1     -23.955  83.810 114.011  0.00  0.00    -0.047 C 
ATOM      6  C   LIG d   1     -25.136  84.294 113.138  0.00  0.00     0.091 C 
ENDROOT
BRANCH   1   7
ATOM      7  O   LIG d   1     -26.220  86.323 112.294  0.00  0.00    -0.368 OA
BRANCH   7   8
ATOM      8  C   LIG d   1     -27.124  87.407 112.620  0.00  0.00     0.119 C 
BRANCH   8   9
ATOM      9  C   LIG d   1     -28.532  86.994 112.148  0.00  0.00     0.028 C 
ATOM     10  C   LIG d   1     -29.158  85.913 113.044  0.00  0.00     0.006 C 
ENDBRANCH   8   9
BRANCH   8  11
ATOM     11  C   LIG d   1     -26.786  88.673 111.827  0.00  0.00     0.028 C 
ATOM     12  C   LIG d   1     -27.795  89.808 112.058  0.00  0.00     0.006 C 
ENDBRANCH   8  11
ENDBRANCH   7   8
ENDBRANCH   1   7
BRANCH   6  13
ATOM     13  N   LIG d   1     -26.379  83.518 113.385  0.00  0.00    -0.311 N 
ATOM     14  C   LIG d   1     -26.710  82.426 112.698  0.00  0.00     0.210 C 
ATOM     15  C   LIG d   1     -28.044  81.789 113.099  0.00  0.00     0.109 C 
ATOM     16  O   LIG d   1     -26.010  81.906 111.816  0.00  0.00    -0.276 OA
ATOM     17  H   LIG d   1     -26.990  83.852 114.104  0.00  0.00     0.149 HD
ENDBRANCH   6  13
BRANCH   5  18
ATOM     18  N   LIG d   1     -23.545  82.425 113.711  0.00  0.00     0.381 N 
ATOM     19  H   LIG d   1     -22.575  82.305 113.928  0.00  0.00    -0.090 HD
ATOM     20  H   LIG d   1     -23.671  82.254 112.729  0.00  0.00    -0.090 HD
ATOM     21  H   LIG d   1     -24.093  81.784 114.241  0.00  0.00    -0.090 HD
ENDBRANCH   5  18
BRANCH   3  22
ATOM     22  C   LIG d   1     -22.034  86.931 114.309  0.00  0.00     0.382 C 
ATOM     23  O   LIG d   1     -20.849  86.726 113.951  0.00  0.00    -0.241 OA
ATOM     24  O   LIG d   1     -22.287  87.876 115.079  0.00  0.00    -0.241 OA
ENDBRANCH   3  22
TORSDOF 7
ENDMDL
MODEL 4
REMARK VINA RESULT:      -5.0     20.123     23.700
REMARK  7 active torsions:
REMARK  status: ('A' for Active; 'I' for Inactive)
REMARK    1  A    between atoms: C_2  and  C_3 
REMARK    2  A    between atoms: C_3  and  O_6 
REMARK    3  A    between atoms: C_3  and  C_4 
REMARK    4  A    between atoms: C_7  and  O_6 
REMARK    5  A    between atoms: C_9  and  C_10 
REMARK    6  A    between atoms: N_15  and  C_14 
REMARK    7  A    between atoms: N_20  and  C_19 
REMARK       I    between atoms: C_22  and  N_20 
ROOT
ATOM      1  C   LIG d   1      11.400  76.182 114.394  0.00  0.00     0.161 C 
ATOM      2  C   LIG d   1      10.118  76.717 114.597  0.00  0.00     0.016 C 
ATOM      3  C   LIG d   1       9.785  78.065 114.328  0.00  0.00     0.038 C 
ATOM      4  C   LIG d   1      10.680  78.936 113.689  0.00  0.00     0.028 C 
ATOM      5  C   LIG d   1      12.144  78.581 113.927  0.00  0.00    -0.047 C 
ATOM      6  C   LIG d   1      12.360  77.087 113.594  0.00  0.00     0.091 C 
ENDROOT
BRANCH   1   7
ATOM      7  O   LIG d   1      11.296  74.887 113.769  0.00  0.00    -0.368 OA
BRANCH   7   8
ATOM      8  C   LIG d   1      11.169  73.755 114.665  0.00  0.00     0.119 C 
BRANCH   8   9
ATOM      9  C   LIG d   1      12.361  73.801 115.640  0.00  0.00     0.028 C 
ATOM     10  C   LIG d   1      11.941  73.528 117.094  0.00  0.00     0.006 C 
ENDBRANCH   8   9
BRANCH   8  11
ATOM     11  C   LIG d   1      11.311  72.429 113.911  0.00  0.00     0.028 C 
ATOM     12  C   LIG d   1      10.335  71.352 114.410  0.00  0.00     0.006 C 
ENDBRANCH   8  11
ENDBRANCH   7   8
ENDBRANCH   1   7
BRANCH   6  13
ATOM     13  N   LIG d   1      13.747  76.637 113.880  0.00  0.00    -0.311 N 
ATOM     14  C   LIG d   1      14.720  76.636 112.970  0.00  0.00     0.210 C 
ATOM     15  C   LIG d   1      16.071  76.113 113.469  0.00  0.00     0.109 C 
ATOM     16  O   LIG d   1      14.601  77.050 111.807  0.00  0.00    -0.276 OA
ATOM     17  H   LIG d   1      13.939  76.314 114.808  0.00  0.00     0.149 HD
ENDBRANCH   6  13
BRANCH   5  18
ATOM     18  N   LIG d   1      12.963  79.483 113.095  0.00  0.00     0.381 N 
ATOM     19  H   LIG d   1      13.647  78.954 112.593  0.00  0.00    -0.090 HD
ATOM     20  H   LIG d   1      13.443  80.132 113.694  0.00  0.00    -0.090 HD
ATOM     21  H   LIG d   1      12.381  79.979 112.456  0.00  0.00    -0.090 HD
ENDBRANCH   5  18
BRANCH   3  22
ATOM     22  C   LIG d   1       8.557  78.564 114.734  0.00  0.00     0.382 C 
ATOM     23  O   LIG d   1       7.498  78.001 114.366  0.00  0.00    -0.241 OA
ATOM     24  O   LIG d   1       8.494  79.596 115.429  0.00  0.00    -0.241 OA
ENDBRANCH   3  22
TORSDOF 7
ENDMDL
MODEL 5
REMARK VINA RESULT:      -4.9      9.124     11.269
REMARK  7 active torsions:
REMARK  status: ('A' for Active; 'I' for Inactive)
REMARK    1  A    between atoms: C_2  and  C_3 
REMARK    2  A    between atoms: C_3  and  O_6 
REMARK    3  A    between atoms: C_3  and  C_4 
REMARK    4  A    between atoms: C_7  and  O_6 
REMARK    5  A    between atoms: C_9  and  C_10 
REMARK    6  A    between atoms: N_15  and  C_14 
REMARK    7  A    between atoms: N_20  and  C_19 
REMARK       I    between atoms: C_22  and  N_20 
ROOT
ATOM      1  C   LIG d   1       3.213  88.608 115.426  0.00  0.00     0.161 C 
ATOM      2  C   LIG d   1       2.470  87.890 114.474  0.00  0.00     0.016 C 
ATOM      3  C   LIG d   1       2.831  87.801 113.110  0.00  0.00     0.038 C 
ATOM      4  C   LIG d   1       4.050  88.302 112.632  0.00  0.00     0.028 C 
ATOM      5  C   LIG d   1       4.589  89.469 113.452  0.00  0.00    -0.047 C 
ATOM      6  C   LIG d   1       4.605  89.068 114.945  0.00  0.00     0.091 C 
ENDROOT
BRANCH   1   7
ATOM      7  O   LIG d   1       3.331  87.836 116.637  0.00  0.00    -0.368 OA
BRANCH   7   8
ATOM      8  C   LIG d   1       2.621  86.573 116.660  0.00  0.00     0.119 C 
BRANCH   8   9
ATOM      9  C   LIG d   1       1.823  86.515 117.977  0.00  0.00     0.028 C 
ATOM     10  C   LIG d   1       0.660  87.522 118.003  0.00  0.00     0.006 C 
ENDBRANCH   8   9
BRANCH   8  11
ATOM     11  C   LIG d   1       3.591  85.389 116.721  0.00  0.00     0.028 C 
ATOM     12  C   LIG d   1       3.748  84.678 115.368  0.00  0.00     0.006 C 
ENDBRANCH   8  11
ENDBRANCH   7   8
ENDBRANCH   1   7
BRANCH   6  13
ATOM     13  N   LIG d   1       5.040  90.182 115.827  0.00  0.00    -0.311 N 
ATOM     14  C   LIG d   1       5.978  90.053 116.763  0.00  0.00     0.210 C 
ATOM     15  C   LIG d   1       6.261  91.322 117.575  0.00  0.00     0.109 C 
ATOM     16  O   LIG d   1       6.626  89.018 116.977  0.00  0.00    -0.276 OA
ATOM     17  H   LIG d   1       4.588  91.067 115.700  0.00  0.00     0.149 HD
ENDBRANCH   6  13
BRANCH   5  18
ATOM     18  N   LIG d   1       5.927  89.802 112.928  0.00  0.00     0.381 N 
ATOM     19  H   LIG d   1       6.561  89.051 113.115  0.00  0.00    -0.090 HD
ATOM     20  H   LIG d   1       6.265  90.624 113.398  0.00  0.00    -0.090 HD
ATOM     21  H   LIG d   1       5.878  89.968 111.947  0.00  0.00    -0.090 HD
ENDBRANCH   5  18
BRANCH   3  22
ATOM     22  C   LIG d   1       1.947  87.239 112.201  0.00  0.00     0.382 C 
ATOM     23  O   LIG d   1       0.954  87.895 111.805  0.00  0.00    -0.241 OA
ATOM     24  O   LIG d   1       2.107  86.069 111.805  0.00  0.00    -0.241 OA
ENDBRANCH   3  22
TORSDOF 7
ENDMDL
MODEL 6
REMARK VINA RESULT:      -4.9     19.760     22.374
REMARK  7 active torsions:
REMARK  status: ('A' for Active; 'I' for Inactive)
REMARK    1  A    between atoms: C_2  and  C_3 
REMARK    2  A    between atoms: C_3  and  O_6 
REMARK    3  A    between atoms: C_3  and  C_4 
REMARK    4  A    between atoms: C_7  and  O_6 
REMARK    5  A    between atoms: C_9  and  C_10 
REMARK    6  A    between atoms: N_15  and  C_14 
REMARK    7  A    between atoms: N_20  and  C_19 
REMARK       I    between atoms: C_22  and  N_20 
ROOT
ATOM      1  C   LIG d   1      11.061  79.009 113.681  0.00  0.00     0.161 C 
ATOM      2  C   LIG d   1       9.747  79.161 114.154  0.00  0.00     0.016 C 
ATOM      3  C   LIG d   1       8.954  78.083 114.609  0.00  0.00     0.038 C 
ATOM      4  C   LIG d   1       9.478  76.791 114.764  0.00  0.00     0.028 C 
ATOM      5  C   LIG d   1      10.642  76.493 113.825  0.00  0.00    -0.047 C 
ATOM      6  C   LIG d   1      11.688  77.625 113.947  0.00  0.00     0.091 C 
ENDROOT
BRANCH   1   7
ATOM      7  O   LIG d   1      11.898  80.051 114.221  0.00  0.00    -0.368 OA
BRANCH   7   8
ATOM      8  C   LIG d   1      12.446  79.808 115.540  0.00  0.00     0.119 C 
BRANCH   8   9
ATOM      9  C   LIG d   1      11.689  80.714 116.530  0.00  0.00     0.028 C 
ATOM     10  C   LIG d   1      10.972  79.911 117.629  0.00  0.00     0.006 C 
ENDBRANCH   8   9
BRANCH   8  11
ATOM     11  C   LIG d   1      13.910  80.249 115.625  0.00  0.00     0.028 C 
ATOM     12  C   LIG d   1      14.465  80.737 114.277  0.00  0.00     0.006 C 
ENDBRANCH   8  11
ENDBRANCH   7   8
ENDBRANCH   1   7
BRANCH   6  13
ATOM     13  N   LIG d   1      12.820  77.454 113.000  0.00  0.00    -0.311 N 
ATOM     14  C   LIG d   1      14.053  77.124 113.382  0.00  0.00     0.210 C 
ATOM     15  C   LIG d   1      15.076  77.020 112.247  0.00  0.00     0.109 C 
ATOM     16  O   LIG d   1      14.388  76.877 114.550  0.00  0.00    -0.276 OA
ATOM     17  H   LIG d   1      12.629  77.605 112.029  0.00  0.00     0.149 HD
ENDBRANCH   6  13
BRANCH   5  18
ATOM     18  N   LIG d   1      11.179  75.168 114.188  0.00  0.00     0.381 N 
ATOM     19  H   LIG d   1      10.443  74.589 114.542  0.00  0.00    -0.090 HD
ATOM     20  H   LIG d   1      11.866  75.283 114.913  0.00  0.00    -0.090 HD
ATOM     21  H   LIG d   1      11.595  74.738 113.392  0.00  0.00    -0.090 HD
ENDBRANCH   5  18
BRANCH   3  22
ATOM     22  C   LIG d   1       7.608  78.284 114.877  0.00  0.00     0.382 C 
ATOM     23  O   LIG d   1       7.017  77.549 115.703  0.00  0.00    -0.241 OA
ATOM     24  O   LIG d   1       6.968  79.163 114.269  0.00  0.00    -0.241 OA
ENDBRANCH   3  22
TORSDOF 7
ENDMDL
MODEL 7
REMARK VINA RESULT:      -4.9     19.551     22.618
REMARK  7 active torsions:
REMARK  status: ('A' for Active; 'I' for Inactive)
REMARK    1  A    between atoms: C_2  and  C_3 
REMARK    2  A    between atoms: C_3  and  O_6 
REMARK    3  A    between atoms: C_3  and  C_4 
REMARK    4  A    between atoms: C_7  and  O_6 
REMARK    5  A    between atoms: C_9  and  C_10 
REMARK    6  A    between atoms: N_15  and  C_14 
REMARK    7  A    between atoms: N_20  and  C_19 
REMARK       I    between atoms: C_22  and  N_20 
ROOT
ATOM      1  C   LIG d   1      11.868  78.460 114.323  0.00  0.00     0.161 C 
ATOM      2  C   LIG d   1      10.512  78.129 114.159  0.00  0.00     0.016 C 
ATOM      3  C   LIG d   1       9.457  78.852 114.761  0.00  0.00     0.038 C 
ATOM      4  C   LIG d   1       9.680  80.053 115.451  0.00  0.00     0.028 C 
ATOM      5  C   LIG d   1      11.071  80.149 116.067  0.00  0.00    -0.047 C 
ATOM      6  C   LIG d   1      12.124  79.832 114.980  0.00  0.00     0.091 C 
ENDROOT
BRANCH   1   7
ATOM      7  O   LIG d   1      12.548  78.377 113.055  0.00  0.00    -0.368 OA
BRANCH   7   8
ATOM      8  C   LIG d   1      13.218  77.124 112.772  0.00  0.00     0.119 C 
BRANCH   8   9
ATOM      9  C   LIG d   1      13.854  76.632 114.086  0.00  0.00     0.028 C 
ATOM     10  C   LIG d   1      14.187  75.131 114.051  0.00  0.00     0.006 C 
ENDBRANCH   8   9
BRANCH   8  11
ATOM     11  C   LIG d   1      14.389  77.325 111.805  0.00  0.00     0.028 C 
ATOM     12  C   LIG d   1      15.552  78.109 112.433  0.00  0.00     0.006 C 
ENDBRANCH   8  11
ENDBRANCH   7   8
ENDBRANCH   1   7
BRANCH   6  13
ATOM     13  N   LIG d   1      13.509  79.821 115.519  0.00  0.00    -0.311 N 
ATOM     14  C   LIG d   1      14.506  80.531 114.992  0.00  0.00     0.210 C 
ATOM     15  C   LIG d   1      15.859  80.360 115.689  0.00  0.00     0.109 C 
ATOM     16  O   LIG d   1      14.390  81.310 114.034  0.00  0.00    -0.276 OA
ATOM     17  H   LIG d   1      13.684  79.240 116.315  0.00  0.00     0.149 HD
ENDBRANCH   6  13
BRANCH   5  18
ATOM     18  N   LIG d   1      11.215  81.503 116.634  0.00  0.00     0.381 N 
ATOM     19  H   LIG d   1      10.529  82.112 116.234  0.00  0.00    -0.090 HD
ATOM     20  H   LIG d   1      12.126  81.858 116.401  0.00  0.00    -0.090 HD
ATOM     21  H   LIG d   1      11.106  81.472 117.623  0.00  0.00    -0.090 HD
ENDBRANCH   5  18
BRANCH   3  22
ATOM     22  C   LIG d   1       8.165  78.351 114.711  0.00  0.00     0.382 C 
ATOM     23  O   LIG d   1       7.207  79.044 115.132  0.00  0.00    -0.241 OA
ATOM     24  O   LIG d   1       7.950  77.198 114.290  0.00  0.00    -0.241 OA
ENDBRANCH   3  22
TORSDOF 7
ENDMDL
MODEL 8
REMARK VINA RESULT:      -4.8     12.261     14.575
REMARK  7 active torsions:
REMARK  status: ('A' for Active; 'I' for Inactive)
REMARK    1  A    between atoms: C_2  and  C_3 
REMARK    2  A    between atoms: C_3  and  O_6 
REMARK    3  A    between atoms: C_3  and  C_4 
REMARK    4  A    between atoms: C_7  and  O_6 
REMARK    5  A    between atoms: C_9  and  C_10 
REMARK    6  A    between atoms: N_15  and  C_14 
REMARK    7  A    between atoms: N_20  and  C_19 
REMARK       I    between atoms: C_22  and  N_20 
ROOT
ATOM      1  C   LIG d   1      -4.195  76.902 117.524  0.00  0.00     0.161 C 
ATOM      2  C   LIG d   1      -5.062  77.978 117.775  0.00  0.00     0.016 C 
ATOM      3  C   LIG d   1      -4.809  79.299 117.341  0.00  0.00     0.038 C 
ATOM      4  C   LIG d   1      -3.737  79.607 116.490  0.00  0.00     0.028 C 
ATOM      5  C   LIG d   1      -2.559  78.649 116.627  0.00  0.00    -0.047 C 
ATOM      6  C   LIG d   1      -3.077  77.197 116.502  0.00  0.00     0.091 C 
ENDROOT
BRANCH   1   7
ATOM      7  O   LIG d   1      -4.954  75.747 117.116  0.00  0.00    -0.368 OA
BRANCH   7   8
ATOM      8  C   LIG d   1      -5.854  75.939 115.996  0.00  0.00     0.119 C 
BRANCH   8   9
ATOM      9  C   LIG d   1      -7.248  75.450 116.434  0.00  0.00     0.028 C 
ATOM     10  C   LIG d   1      -8.223  76.611 116.693  0.00  0.00     0.006 C 
ENDBRANCH   8   9
BRANCH   8  11
ATOM     11  C   LIG d   1      -5.466  75.050 114.811  0.00  0.00     0.028 C 
ATOM     12  C   LIG d   1      -5.348  75.833 113.493  0.00  0.00     0.006 C 
ENDBRANCH   8  11
ENDBRANCH   7   8
ENDBRANCH   1   7
BRANCH   6  13
ATOM     13  N   LIG d   1      -2.001  76.192 116.709  0.00  0.00    -0.311 N 
ATOM     14  C   LIG d   1      -1.556  75.387 115.746  0.00  0.00     0.210 C 
ATOM     15  C   LIG d   1      -0.456  74.411 116.177  0.00  0.00     0.109 C 
ATOM     16  O   LIG d   1      -1.944  75.410 114.569  0.00  0.00    -0.276 OA
ATOM     17  H   LIG d   1      -1.608  76.128 117.628  0.00  0.00     0.149 HD
ENDBRANCH   6  13
BRANCH   5  18
ATOM     18  N   LIG d   1      -1.573  79.002 115.589  0.00  0.00     0.381 N 
ATOM     19  H   LIG d   1      -1.661  79.971 115.354  0.00  0.00    -0.090 HD
ATOM     20  H   LIG d   1      -1.761  78.459 114.764  0.00  0.00    -0.090 HD
ATOM     21  H   LIG d   1      -0.651  78.815 115.916  0.00  0.00    -0.090 HD
ENDBRANCH   5  18
BRANCH   3  22
ATOM     22  C   LIG d   1      -5.611  80.336 117.792  0.00  0.00     0.382 C 
ATOM     23  O   LIG d   1      -5.100  81.302 118.409  0.00  0.00    -0.241 OA
ATOM     24  O   LIG d   1      -6.845  80.297 117.628  0.00  0.00    -0.241 OA
ENDBRANCH   3  22
TORSDOF 7
ENDMDL
MODEL 9
REMARK VINA RESULT:      -4.8     13.439     15.961
REMARK  7 active torsions:
REMARK  status: ('A' for Active; 'I' for Inactive)
REMARK    1  A    between atoms: C_2  and  C_3 
REMARK    2  A    between atoms: C_3  and  O_6 
REMARK    3  A    between atoms: C_3  and  C_4 
REMARK    4  A    between atoms: C_7  and  O_6 
REMARK    5  A    between atoms: C_9  and  C_10 
REMARK    6  A    between atoms: N_15  and  C_14 
REMARK    7  A    between atoms: N_20  and  C_19 
REMARK       I    between atoms: C_22  and  N_20 
ROOT
ATOM      1  C   LIG d   1      -2.212  77.145 114.316  0.00  0.00     0.161 C 
ATOM      2  C   LIG d   1      -1.146  78.049 114.171  0.00  0.00     0.016 C 
ATOM      3  C   LIG d   1      -0.961  79.174 115.006  0.00  0.00     0.038 C 
ATOM      4  C   LIG d   1      -1.750  79.390 116.146  0.00  0.00     0.028 C 
ATOM      5  C   LIG d   1      -3.146  78.784 116.040  0.00  0.00    -0.047 C 
ATOM      6  C   LIG d   1      -3.019  77.301 115.622  0.00  0.00     0.091 C 
ENDROOT
BRANCH   1   7
ATOM      7  O   LIG d   1      -1.728  75.794 114.185  0.00  0.00    -0.368 OA
BRANCH   7   8
ATOM      8  C   LIG d   1      -0.416  75.530 114.739  0.00  0.00     0.119 C 
BRANCH   8   9
ATOM      9  C   LIG d   1       0.433  74.880 113.630  0.00  0.00     0.028 C 
ATOM     10  C   LIG d   1       0.274  73.351 113.588  0.00  0.00     0.006 C 
ENDBRANCH   8   9
BRANCH   8  11
ATOM     11  C   LIG d   1      -0.483  74.489 115.860  0.00  0.00     0.028 C 
ATOM     12  C   LIG d   1      -0.444  75.118 117.262  0.00  0.00     0.006 C 
ENDBRANCH   8  11
ENDBRANCH   7   8
ENDBRANCH   1   7
BRANCH   6  13
ATOM     13  N   LIG d   1      -4.342  76.656 115.413  0.00  0.00    -0.311 N 
ATOM     14  C   LIG d   1      -4.708  75.524 116.011  0.00  0.00     0.210 C 
ATOM     15  C   LIG d   1      -6.106  75.020 115.641  0.00  0.00     0.109 C 
ATOM     16  O   LIG d   1      -4.019  74.906 116.837  0.00  0.00    -0.276 OA
ATOM     17  H   LIG d   1      -4.975  77.108 114.782  0.00  0.00     0.149 HD
ENDBRANCH   6  13
BRANCH   5  18
ATOM     18  N   LIG d   1      -3.810  78.963 117.345  0.00  0.00     0.381 N 
ATOM     19  H   LIG d   1      -4.158  79.897 117.422  0.00  0.00    -0.090 HD
ATOM     20  H   LIG d   1      -3.136  78.816 118.075  0.00  0.00    -0.090 HD
ATOM     21  H   LIG d   1      -4.559  78.313 117.438  0.00  0.00    -0.090 HD
ENDBRANCH   5  18
BRANCH   3  22
ATOM     22  C   LIG d   1      -0.001  80.121 114.681  0.00  0.00     0.382 C 
ATOM     23  O   LIG d   1       0.109  80.521 113.497  0.00  0.00    -0.241 OA
ATOM     24  O   LIG d   1       0.785  80.547 115.548  0.00  0.00    -0.241 OA
ENDBRANCH   3  22
TORSDOF 7
ENDMDL
