MODEL 1
REMARK VINA RESULT:      -5.3      0.000      0.000
REMARK  7 active torsions:
REMARK  status: ('A' for Active; 'I' for Inactive)
REMARK    1  A    between atoms: C_2  and  C_3 
REMARK    2  A    between atoms: C_3  and  O_6 
REMARK    3  A    between atoms: C_3  and  C_4 
REMARK    4  A    between atoms: C_7  and  O_6 
REMARK    5  A    between atoms: C_9  and  C_10 
REMARK    6  A    between atoms: N_15  and  C_14 
REMARK    7  A    between atoms: N_20  and  C_19 
REMARK       I    between atoms: C_22  and  N_20 
ROOT
ATOM      1  C   LIG d   1      -3.003  77.335 115.974  0.00  0.00     0.161 C 
ATOM      2  C   LIG d   1      -3.211  78.309 114.983  0.00  0.00     0.016 C 
ATOM      3  C   LIG d   1      -2.368  78.467 113.859  0.00  0.00     0.038 C 
ATOM      4  C   LIG d   1      -1.340  77.557 113.569  0.00  0.00     0.028 C 
ATOM      5  C   LIG d   1      -0.781  76.861 114.805  0.00  0.00    -0.047 C 
ATOM      6  C   LIG d   1      -1.952  76.263 115.618  0.00  0.00     0.091 C 
ENDROOT
BRANCH   1   7
ATOM      7  O   LIG d   1      -4.257  76.712 116.318  0.00  0.00    -0.368 OA
BRANCH   7   8
ATOM      8  C   LIG d   1      -5.085  76.291 115.206  0.00  0.00     0.119 C 
BRANCH   8   9
ATOM      9  C   LIG d   1      -6.549  76.595 115.579  0.00  0.00     0.028 C 
ATOM     10  C   LIG d   1      -6.667  77.405 116.880  0.00  0.00     0.006 C 
ENDBRANCH   8   9
BRANCH   8  11
ATOM     11  C   LIG d   1      -5.024  74.773 115.010  0.00  0.00     0.028 C 
ATOM     12  C   LIG d   1      -5.024  74.000 116.338  0.00  0.00     0.006 C 
ENDBRANCH   8  11
ENDBRANCH   7   8
ENDBRANCH   1   7
BRANCH   6  13
ATOM     13  N   LIG d   1      -1.500  75.636 116.887  0.00  0.00    -0.311 N 
ATOM     14  C   LIG d   1      -1.224  74.339 117.006  0.00  0.00     0.210 C 
ATOM     15  C   LIG d   1      -0.793  73.896 118.408  0.00  0.00     0.109 C 
ATOM     16  O   LIG d   1      -1.263  73.519 116.077  0.00  0.00    -0.276 OA
ATOM     17  H   LIG d   1      -1.410  76.235 117.685  0.00  0.00     0.149 HD
ENDBRANCH   6  13
BRANCH   5  18
ATOM     18  N   LIG d   1       0.184  75.844 114.346  0.00  0.00     0.381 N 
ATOM     19  H   LIG d   1       0.695  75.484 115.127  0.00  0.00    -0.090 HD
ATOM     20  H   LIG d   1       0.835  76.275 113.715  0.00  0.00    -0.090 HD
ATOM     21  H   LIG d   1      -0.296  75.103 113.884  0.00  0.00    -0.090 HD
ENDBRANCH   5  18
BRANCH   3  22
ATOM     22  C   LIG d   1      -2.526  79.568 113.032  0.00  0.00     0.382 C 
ATOM     23  O   LIG d   1      -3.386  80.439 113.305  0.00  0.00    -0.241 OA
ATOM     24  O   LIG d   1      -1.849  79.679 111.992  0.00  0.00    -0.241 OA
ENDBRANCH   3  22
TORSDOF 7
ENDMDL
MODEL 2
REMARK VINA RESULT:      -5.1      3.851      7.080
REMARK  7 active torsions:
REMARK  status: ('A' for Active; 'I' for Inactive)
REMARK    1  A    between atoms: C_2  and  C_3 
REMARK    2  A    between atoms: C_3  and  O_6 
REMARK    3  A    between atoms: C_3  and  C_4 
REMARK    4  A    between atoms: C_7  and  O_6 
REMARK    5  A    between atoms: C_9  and  C_10 
REMARK    6  A    between atoms: N_15  and  C_14 
REMARK    7  A    between atoms: N_20  and  C_19 
REMARK       I    between atoms: C_22  and  N_20 
ROOT
ATOM      1  C   LIG d   1      -7.559  76.878 117.167  0.00  0.00     0.161 C 
ATOM      2  C   LIG d   1      -8.915  76.641 117.448  0.00  0.00     0.016 C 
ATOM      3  C   LIG d   1      -9.478  75.347 117.530  0.00  0.00     0.038 C 
ATOM      4  C   LIG d   1      -8.686  74.190 117.487  0.00  0.00     0.028 C 
ATOM      5  C   LIG d   1      -7.391  74.371 116.702  0.00  0.00    -0.047 C 
ATOM      6  C   LIG d   1      -6.658  75.627 117.227  0.00  0.00     0.091 C 
ENDROOT
BRANCH   1   7
ATOM      7  O   LIG d   1      -7.050  77.903 118.043  0.00  0.00    -0.368 OA
BRANCH   7   8
ATOM      8  C   LIG d   1      -6.734  79.173 117.422  0.00  0.00     0.119 C 
BRANCH   8   9
ATOM      9  C   LIG d   1      -5.291  79.538 117.822  0.00  0.00     0.028 C 
ATOM     10  C   LIG d   1      -4.331  79.533 116.620  0.00  0.00     0.006 C 
ENDBRANCH   8   9
BRANCH   8  11
ATOM     11  C   LIG d   1      -7.607  80.300 117.983  0.00  0.00     0.028 C 
ATOM     12  C   LIG d   1      -7.256  81.675 117.392  0.00  0.00     0.006 C 
ENDBRANCH   8  11
ENDBRANCH   7   8
ENDBRANCH   1   7
BRANCH   6  13
ATOM     13  N   LIG d   1      -5.422  75.925 116.456  0.00  0.00    -0.311 N 
ATOM     14  C   LIG d   1      -5.421  76.213 115.156  0.00  0.00     0.210 C 
ATOM     15  C   LIG d   1      -4.036  76.469 114.552  0.00  0.00     0.109 C 
ATOM     16  O   LIG d   1      -6.437  76.313 114.452  0.00  0.00    -0.276 OA
ATOM     17  H   LIG d   1      -4.555  75.897 116.956  0.00  0.00     0.149 HD
ENDBRANCH   6  13
BRANCH   5  18
ATOM     18  N   LIG d   1      -6.601  73.135 116.853  0.00  0.00     0.381 N 
ATOM     19  H   LIG d   1      -7.192  72.392 117.169  0.00  0.00    -0.090 HD
ATOM     20  H   LIG d   1      -5.889  73.287 117.545  0.00  0.00    -0.090 HD
ATOM     21  H   LIG d   1      -6.182  72.889 115.983  0.00  0.00    -0.090 HD
ENDBRANCH   5  18
BRANCH   3  22
ATOM     22  C   LIG d   1     -10.854  75.200 117.619  0.00  0.00     0.382 C 
ATOM     23  O   LIG d   1     -11.388  74.105 117.321  0.00  0.00    -0.241 OA
ATOM     24  O   LIG d   1     -11.572  76.163 117.949  0.00  0.00    -0.241 OA
ENDBRANCH   3  22
TORSDOF 7
ENDMDL
MODEL 3
REMARK VINA RESULT:      -4.8     13.296     15.619
REMARK  7 active torsions:
REMARK  status: ('A' for Active; 'I' for Inactive)
REMARK    1  A    between atoms: C_2  and  C_3 
REMARK    2  A    between atoms: C_3  and  O_6 
REMARK    3  A    between atoms: C_3  and  C_4 
REMARK    4  A    between atoms: C_7  and  O_6 
REMARK    5  A    between atoms: C_9  and  C_10 
REMARK    6  A    between atoms: N_15  and  C_14 
REMARK    7  A    between atoms: N_20  and  C_19 
REMARK       I    between atoms: C_22  and  N_20 
ROOT
ATOM      1  C   LIG d   1      11.822  78.298 114.704  0.00  0.00     0.161 C 
ATOM      2  C   LIG d   1      10.509  78.672 115.036  0.00  0.00     0.016 C 
ATOM      3  C   LIG d   1       9.533  77.760 115.499  0.00  0.00     0.038 C 
ATOM      4  C   LIG d   1       9.850  76.429 115.807  0.00  0.00     0.028 C 
ATOM      5  C   LIG d   1      11.033  75.887 115.011  0.00  0.00    -0.047 C 
ATOM      6  C   LIG d   1      12.217  76.871 115.140  0.00  0.00     0.091 C 
ENDROOT
BRANCH   1   7
ATOM      7  O   LIG d   1      12.754  79.261 115.236  0.00  0.00    -0.368 OA
BRANCH   7   8
ATOM      8  C   LIG d   1      13.072  80.382 114.375  0.00  0.00     0.119 C 
BRANCH   8   9
ATOM      9  C   LIG d   1      12.991  79.886 112.919  0.00  0.00     0.028 C 
ATOM     10  C   LIG d   1      11.988  80.694 112.078  0.00  0.00     0.006 C 
ENDBRANCH   8   9
BRANCH   8  11
ATOM     11  C   LIG d   1      14.521  80.839 114.568  0.00  0.00     0.028 C 
ATOM     12  C   LIG d   1      15.543  79.814 114.053  0.00  0.00     0.006 C 
ENDBRANCH   8  11
ENDBRANCH   7   8
ENDBRANCH   1   7
BRANCH   6  13
ATOM     13  N   LIG d   1      13.388  76.459 114.322  0.00  0.00    -0.311 N 
ATOM     14  C   LIG d   1      14.598  76.238 114.833  0.00  0.00     0.210 C 
ATOM     15  C   LIG d   1      15.669  75.842 113.812  0.00  0.00     0.109 C 
ATOM     16  O   LIG d   1      14.879  76.302 116.039  0.00  0.00    -0.276 OA
ATOM     17  H   LIG d   1      13.242  76.354 113.337  0.00  0.00     0.149 HD
ENDBRANCH   6  13
BRANCH   5  18
ATOM     18  N   LIG d   1      11.340  74.541 115.530  0.00  0.00     0.381 N 
ATOM     19  H   LIG d   1      11.229  73.864 114.802  0.00  0.00    -0.090 HD
ATOM     20  H   LIG d   1      10.694  74.321 116.267  0.00  0.00    -0.090 HD
ATOM     21  H   LIG d   1      12.273  74.515 115.878  0.00  0.00    -0.090 HD
ENDBRANCH   5  18
BRANCH   3  22
ATOM     22  C   LIG d   1       8.214  78.168 115.619  0.00  0.00     0.382 C 
ATOM     23  O   LIG d   1       7.340  77.700 114.850  0.00  0.00    -0.241 OA
ATOM     24  O   LIG d   1       7.894  79.031 116.459  0.00  0.00    -0.241 OA
ENDBRANCH   3  22
TORSDOF 7
ENDMDL
MODEL 4
REMARK VINA RESULT:      -4.7      2.564      3.570
REMARK  7 active torsions:
REMARK  status: ('A' for Active; 'I' for Inactive)
REMARK    1  A    between atoms: C_2  and  C_3 
REMARK    2  A    between atoms: C_3  and  O_6 
REMARK    3  A    between atoms: C_3  and  C_4 
REMARK    4  A    between atoms: C_7  and  O_6 
REMARK    5  A    between atoms: C_9  and  C_10 
REMARK    6  A    between atoms: N_15  and  C_14 
REMARK    7  A    between atoms: N_20  and  C_19 
REMARK       I    between atoms: C_22  and  N_20 
ROOT
ATOM      1  C   LIG d   1      -4.938  77.072 117.440  0.00  0.00     0.161 C 
ATOM      2  C   LIG d   1      -5.697  78.242 117.608  0.00  0.00     0.016 C 
ATOM      3  C   LIG d   1      -5.244  79.525 117.226  0.00  0.00     0.038 C 
ATOM      4  C   LIG d   1      -4.053  79.707 116.506  0.00  0.00     0.028 C 
ATOM      5  C   LIG d   1      -3.019  78.616 116.761  0.00  0.00    -0.047 C 
ATOM      6  C   LIG d   1      -3.684  77.236 116.556  0.00  0.00     0.091 C 
ENDROOT
BRANCH   1   7
ATOM      7  O   LIG d   1      -5.775  76.015 116.930  0.00  0.00    -0.368 OA
BRANCH   7   8
ATOM      8  C   LIG d   1      -6.734  76.396 115.913  0.00  0.00     0.119 C 
BRANCH   8   9
ATOM      9  C   LIG d   1      -8.078  75.732 116.272  0.00  0.00     0.028 C 
ATOM     10  C   LIG d   1      -7.947  74.732 117.434  0.00  0.00     0.006 C 
ENDBRANCH   8   9
BRANCH   8  11
ATOM     11  C   LIG d   1      -6.352  75.824 114.545  0.00  0.00     0.028 C 
ATOM     12  C   LIG d   1      -5.399  74.622 114.646  0.00  0.00     0.006 C 
ENDBRANCH   8  11
ENDBRANCH   7   8
ENDBRANCH   1   7
BRANCH   6  13
ATOM     13  N   LIG d   1      -2.763  76.111 116.868  0.00  0.00    -0.311 N 
ATOM     14  C   LIG d   1      -2.025  75.492 115.948  0.00  0.00     0.210 C 
ATOM     15  C   LIG d   1      -1.160  74.345 116.479  0.00  0.00     0.109 C 
ATOM     16  O   LIG d   1      -1.981  75.804 114.749  0.00  0.00    -0.276 OA
ATOM     17  H   LIG d   1      -2.714  75.813 117.822  0.00  0.00     0.149 HD
ENDBRANCH   6  13
BRANCH   5  18
ATOM     18  N   LIG d   1      -1.886  78.853 115.847  0.00  0.00     0.381 N 
ATOM     19  H   LIG d   1      -1.719  79.836 115.762  0.00  0.00    -0.090 HD
ATOM     20  H   LIG d   1      -2.120  78.494 114.938  0.00  0.00    -0.090 HD
ATOM     21  H   LIG d   1      -1.069  78.399 116.191  0.00  0.00    -0.090 HD
ENDBRANCH   5  18
BRANCH   3  22
ATOM     22  C   LIG d   1      -5.966  80.648 117.599  0.00  0.00     0.382 C 
ATOM     23  O   LIG d   1      -6.981  80.987 116.944  0.00  0.00    -0.241 OA
ATOM     24  O   LIG d   1      -5.590  81.352 118.555  0.00  0.00    -0.241 OA
ENDBRANCH   3  22
TORSDOF 7
ENDMDL
MODEL 5
REMARK VINA RESULT:      -4.7     12.365     14.139
REMARK  7 active torsions:
REMARK  status: ('A' for Active; 'I' for Inactive)
REMARK    1  A    between atoms: C_2  and  C_3 
REMARK    2  A    between atoms: C_3  and  O_6 
REMARK    3  A    between atoms: C_3  and  C_4 
REMARK    4  A    between atoms: C_7  and  O_6 
REMARK    5  A    between atoms: C_9  and  C_10 
REMARK    6  A    between atoms: N_15  and  C_14 
REMARK    7  A    between atoms: N_20  and  C_19 
REMARK       I    between atoms: C_22  and  N_20 
ROOT
ATOM      1  C   LIG d   1      10.854  77.714 115.243  0.00  0.00     0.161 C 
ATOM      2  C   LIG d   1      11.149  78.925 114.594  0.00  0.00     0.016 C 
ATOM      3  C   LIG d   1      12.391  79.193 113.973  0.00  0.00     0.038 C 
ATOM      4  C   LIG d   1      13.375  78.204 113.827  0.00  0.00     0.028 C 
ATOM      5  C   LIG d   1      13.319  77.129 114.907  0.00  0.00    -0.047 C 
ATOM      6  C   LIG d   1      11.876  76.583 114.998  0.00  0.00     0.091 C 
ENDROOT
BRANCH   1   7
ATOM      7  O   LIG d   1       9.528  77.278 114.885  0.00  0.00    -0.368 OA
BRANCH   7   8
ATOM      8  C   LIG d   1       8.519  77.392 115.918  0.00  0.00     0.119 C 
BRANCH   8   9
ATOM      9  C   LIG d   1       7.383  78.271 115.360  0.00  0.00     0.028 C 
ATOM     10  C   LIG d   1       6.195  78.381 116.330  0.00  0.00     0.006 C 
ENDBRANCH   8   9
BRANCH   8  11
ATOM     11  C   LIG d   1       9.054  78.146 117.138  0.00  0.00     0.028 C 
ATOM     12  C   LIG d   1       9.082  77.281 118.408  0.00  0.00     0.006 C 
ENDBRANCH   8  11
ENDBRANCH   7   8
ENDBRANCH   1   7
BRANCH   6  13
ATOM     13  N   LIG d   1      11.713  75.586 116.088  0.00  0.00    -0.311 N 
ATOM     14  C   LIG d   1      11.884  74.277 115.915  0.00  0.00     0.210 C 
ATOM     15  C   LIG d   1      11.648  73.423 117.165  0.00  0.00     0.109 C 
ATOM     16  O   LIG d   1      12.239  73.744 114.853  0.00  0.00    -0.276 OA
ATOM     17  H   LIG d   1      11.457  75.935 116.990  0.00  0.00     0.149 HD
ENDBRANCH   6  13
BRANCH   5  18
ATOM     18  N   LIG d   1      14.308  76.092 114.556  0.00  0.00     0.381 N 
ATOM     19  H   LIG d   1      13.916  75.464 113.884  0.00  0.00    -0.090 HD
ATOM     20  H   LIG d   1      14.536  75.568 115.382  0.00  0.00    -0.090 HD
ATOM     21  H   LIG d   1      15.130  76.517 114.186  0.00  0.00    -0.090 HD
ENDBRANCH   5  18
BRANCH   3  22
ATOM     22  C   LIG d   1      12.673  80.474 113.526  0.00  0.00     0.382 C 
ATOM     23  O   LIG d   1      11.875  81.058 112.753  0.00  0.00    -0.241 OA
ATOM     24  O   LIG d   1      13.736  81.037 113.850  0.00  0.00    -0.241 OA
ENDBRANCH   3  22
TORSDOF 7
ENDMDL
MODEL 6
REMARK VINA RESULT:      -4.7      8.521     10.705
REMARK  7 active torsions:
REMARK  status: ('A' for Active; 'I' for Inactive)
REMARK    1  A    between atoms: C_2  and  C_3 
REMARK    2  A    between atoms: C_3  and  O_6 
REMARK    3  A    between atoms: C_3  and  C_4 
REMARK    4  A    between atoms: C_7  and  O_6 
REMARK    5  A    between atoms: C_9  and  C_10 
REMARK    6  A    between atoms: N_15  and  C_14 
REMARK    7  A    between atoms: N_20  and  C_19 
REMARK       I    between atoms: C_22  and  N_20 
ROOT
ATOM      1  C   LIG d   1       2.133  85.695 114.562  0.00  0.00     0.161 C 
ATOM      2  C   LIG d   1       2.597  86.703 113.700  0.00  0.00     0.016 C 
ATOM      3  C   LIG d   1       3.948  87.114 113.640  0.00  0.00     0.038 C 
ATOM      4  C   LIG d   1       4.961  86.436 114.335  0.00  0.00     0.028 C 
ATOM      5  C   LIG d   1       4.467  85.741 115.599  0.00  0.00    -0.047 C 
ATOM      6  C   LIG d   1       3.241  84.868 115.246  0.00  0.00     0.091 C 
ENDROOT
BRANCH   1   7
ATOM      7  O   LIG d   1       1.225  84.828 113.855  0.00  0.00    -0.368 OA
BRANCH   7   8
ATOM      8  C   LIG d   1       1.367  84.795 112.413  0.00  0.00     0.119 C 
BRANCH   8   9
ATOM      9  C   LIG d   1      -0.038  84.971 111.805  0.00  0.00     0.028 C 
ATOM     10  C   LIG d   1      -0.522  86.430 111.859  0.00  0.00     0.006 C 
ENDBRANCH   8   9
BRANCH   8  11
ATOM     11  C   LIG d   1       1.848  83.423 111.932  0.00  0.00     0.028 C 
ATOM     12  C   LIG d   1       3.380  83.298 111.922  0.00  0.00     0.006 C 
ENDBRANCH   8  11
ENDBRANCH   7   8
ENDBRANCH   1   7
BRANCH   6  13
ATOM     13  N   LIG d   1       2.644  84.219 116.442  0.00  0.00    -0.311 N 
ATOM     14  C   LIG d   1       2.173  82.973 116.441  0.00  0.00     0.210 C 
ATOM     15  C   LIG d   1       1.582  82.505 117.775  0.00  0.00     0.109 C 
ATOM     16  O   LIG d   1       2.217  82.201 115.472  0.00  0.00    -0.276 OA
ATOM     17  H   LIG d   1       2.597  84.763 117.281  0.00  0.00     0.149 HD
ENDBRANCH   6  13
BRANCH   5  18
ATOM     18  N   LIG d   1       5.593  84.961 116.147  0.00  0.00     0.381 N 
ATOM     19  H   LIG d   1       5.447  83.987 115.974  0.00  0.00    -0.090 HD
ATOM     20  H   LIG d   1       5.633  85.102 117.142  0.00  0.00    -0.090 HD
ATOM     21  H   LIG d   1       6.448  85.255 115.729  0.00  0.00    -0.090 HD
ENDBRANCH   5  18
BRANCH   3  22
ATOM     22  C   LIG d   1       4.292  88.241 112.909  0.00  0.00     0.382 C 
ATOM     23  O   LIG d   1       5.496  88.469 112.638  0.00  0.00    -0.241 OA
ATOM     24  O   LIG d   1       3.419  89.055 112.555  0.00  0.00    -0.241 OA
ENDBRANCH   3  22
TORSDOF 7
ENDMDL
MODEL 7
REMARK VINA RESULT:      -4.5     12.677     14.998
REMARK  7 active torsions:
REMARK  status: ('A' for Active; 'I' for Inactive)
REMARK    1  A    between atoms: C_2  and  C_3 
REMARK    2  A    between atoms: C_3  and  O_6 
REMARK    3  A    between atoms: C_3  and  C_4 
REMARK    4  A    between atoms: C_7  and  O_6 
REMARK    5  A    between atoms: C_9  and  C_10 
REMARK    6  A    between atoms: N_15  and  C_14 
REMARK    7  A    between atoms: N_20  and  C_19 
REMARK       I    between atoms: C_22  and  N_20 
ROOT
ATOM      1  C   LIG d   1      11.176  75.842 115.658  0.00  0.00     0.161 C 
ATOM      2  C   LIG d   1       9.815  76.086 115.910  0.00  0.00     0.016 C 
ATOM      3  C   LIG d   1       9.157  77.280 115.537  0.00  0.00     0.038 C 
ATOM      4  C   LIG d   1       9.782  78.257 114.748  0.00  0.00     0.028 C 
ATOM      5  C   LIG d   1      11.299  78.280 114.902  0.00  0.00    -0.047 C 
ATOM      6  C   LIG d   1      11.846  76.849 114.699  0.00  0.00     0.091 C 
ENDROOT
BRANCH   1   7
ATOM      7  O   LIG d   1      11.349  74.496 115.172  0.00  0.00    -0.368 OA
BRANCH   7   8
ATOM      8  C   LIG d   1      12.280  73.667 115.911  0.00  0.00     0.119 C 
BRANCH   8   9
ATOM      9  C   LIG d   1      13.071  72.832 114.885  0.00  0.00     0.028 C 
ATOM     10  C   LIG d   1      14.578  73.136 114.918  0.00  0.00     0.006 C 
ENDBRANCH   8   9
BRANCH   8  11
ATOM     11  C   LIG d   1      11.545  72.646 116.784  0.00  0.00     0.028 C 
ATOM     12  C   LIG d   1      11.140  71.382 116.010  0.00  0.00     0.006 C 
ENDBRANCH   8  11
ENDBRANCH   7   8
ENDBRANCH   1   7
BRANCH   6  13
ATOM     13  N   LIG d   1      13.314  76.767 114.917  0.00  0.00    -0.311 N 
ATOM     14  C   LIG d   1      14.207  76.856 113.932  0.00  0.00     0.210 C 
ATOM     15  C   LIG d   1      15.669  76.726 114.371  0.00  0.00     0.109 C 
ATOM     16  O   LIG d   1      13.929  77.062 112.741  0.00  0.00    -0.276 OA
ATOM     17  H   LIG d   1      13.629  76.632 115.857  0.00  0.00     0.149 HD
ENDBRANCH   6  13
BRANCH   5  18
ATOM     18  N   LIG d   1      11.832  79.247 113.924  0.00  0.00     0.381 N 
ATOM     19  H   LIG d   1      12.286  78.758 113.178  0.00  0.00    -0.090 HD
ATOM     20  H   LIG d   1      12.511  79.830 114.379  0.00  0.00    -0.090 HD
ATOM     21  H   LIG d   1      11.092  79.808 113.561  0.00  0.00    -0.090 HD
ENDBRANCH   5  18
BRANCH   3  22
ATOM     22  C   LIG d   1       7.869  77.525 115.990  0.00  0.00     0.382 C 
ATOM     23  O   LIG d   1       6.988  77.921 115.190  0.00  0.00    -0.241 OA
ATOM     24  O   LIG d   1       7.589  77.396 117.197  0.00  0.00    -0.241 OA
ENDBRANCH   3  22
TORSDOF 7
ENDMDL
MODEL 8
REMARK VINA RESULT:      -4.4      8.669     10.860
REMARK  7 active torsions:
REMARK  status: ('A' for Active; 'I' for Inactive)
REMARK    1  A    between atoms: C_2  and  C_3 
REMARK    2  A    between atoms: C_3  and  O_6 
REMARK    3  A    between atoms: C_3  and  C_4 
REMARK    4  A    between atoms: C_7  and  O_6 
REMARK    5  A    between atoms: C_9  and  C_10 
REMARK    6  A    between atoms: N_15  and  C_14 
REMARK    7  A    between atoms: N_20  and  C_19 
REMARK       I    between atoms: C_22  and  N_20 
ROOT
ATOM      1  C   LIG d   1       3.185  85.033 113.797  0.00  0.00     0.161 C 
ATOM      2  C   LIG d   1       3.383  86.243 113.111  0.00  0.00     0.016 C 
ATOM      3  C   LIG d   1       4.304  87.231 113.528  0.00  0.00     0.038 C 
ATOM      4  C   LIG d   1       5.204  87.009 114.582  0.00  0.00     0.028 C 
ATOM      5  C   LIG d   1       4.694  86.009 115.613  0.00  0.00    -0.047 C 
ATOM      6  C   LIG d   1       4.236  84.725 114.884  0.00  0.00     0.091 C 
ENDROOT
BRANCH   1   7
ATOM      7  O   LIG d   1       3.105  83.945 112.855  0.00  0.00    -0.368 OA
BRANCH   7   8
ATOM      8  C   LIG d   1       1.909  83.131 112.920  0.00  0.00     0.119 C 
BRANCH   8   9
ATOM      9  C   LIG d   1       2.318  81.680 112.603  0.00  0.00     0.028 C 
ATOM     10  C   LIG d   1       3.630  81.601 111.806  0.00  0.00     0.006 C 
ENDBRANCH   8   9
BRANCH   8  11
ATOM     11  C   LIG d   1       0.910  83.519 111.825  0.00  0.00     0.028 C 
ATOM     12  C   LIG d   1       0.180  84.838 112.125  0.00  0.00     0.006 C 
ENDBRANCH   8  11
ENDBRANCH   7   8
ENDBRANCH   1   7
BRANCH   6  13
ATOM     13  N   LIG d   1       3.644  83.727 115.812  0.00  0.00    -0.311 N 
ATOM     14  C   LIG d   1       3.990  82.440 115.822  0.00  0.00     0.210 C 
ATOM     15  C   LIG d   1       3.243  81.578 116.845  0.00  0.00     0.109 C 
ATOM     16  O   LIG d   1       4.867  81.938 115.103  0.00  0.00    -0.276 OA
ATOM     17  H   LIG d   1       2.947  84.055 116.451  0.00  0.00     0.149 HD
ENDBRANCH   6  13
BRANCH   5  18
ATOM     18  N   LIG d   1       5.784  85.768 116.578  0.00  0.00     0.381 N 
ATOM     19  H   LIG d   1       5.914  86.578 117.151  0.00  0.00    -0.090 HD
ATOM     20  H   LIG d   1       6.635  85.600 116.071  0.00  0.00    -0.090 HD
ATOM     21  H   LIG d   1       5.567  84.981 117.148  0.00  0.00    -0.090 HD
ENDBRANCH   5  18
BRANCH   3  22
ATOM     22  C   LIG d   1       4.304  88.474 112.914  0.00  0.00     0.382 C 
ATOM     23  O   LIG d   1       5.390  89.030 112.622  0.00  0.00    -0.241 OA
ATOM     24  O   LIG d   1       3.232  89.067 112.687  0.00  0.00    -0.241 OA
ENDBRANCH   3  22
TORSDOF 7
ENDMDL
MODEL 9
REMARK VINA RESULT:      -4.4      2.930      5.532
REMARK  7 active torsions:
REMARK  status: ('A' for Active; 'I' for Inactive)
REMARK    1  A    between atoms: C_2  and  C_3 
REMARK    2  A    between atoms: C_3  and  O_6 
REMARK    3  A    between atoms: C_3  and  C_4 
REMARK    4  A    between atoms: C_7  and  O_6 
REMARK    5  A    between atoms: C_9  and  C_10 
REMARK    6  A    between atoms: N_15  and  C_14 
REMARK    7  A    between atoms: N_20  and  C_19 
REMARK       I    between atoms: C_22  and  N_20 
ROOT
ATOM      1  C   LIG d   1      -5.419  76.340 117.111  0.00  0.00     0.161 C 
ATOM      2  C   LIG d   1      -6.738  76.688 117.446  0.00  0.00     0.016 C 
ATOM      3  C   LIG d   1      -7.816  75.774 117.417  0.00  0.00     0.038 C 
ATOM      4  C   LIG d   1      -7.619  74.403 117.194  0.00  0.00     0.028 C 
ATOM      5  C   LIG d   1      -6.382  74.097 116.355  0.00  0.00    -0.047 C 
ATOM      6  C   LIG d   1      -5.166  74.824 116.972  0.00  0.00     0.091 C 
ENDROOT
BRANCH   1   7
ATOM      7  O   LIG d   1      -4.504  76.916 118.064  0.00  0.00    -0.368 OA
BRANCH   7   8
ATOM      8  C   LIG d   1      -3.691  78.015 117.583  0.00  0.00     0.119 C 
BRANCH   8   9
ATOM      9  C   LIG d   1      -4.251  79.310 118.203  0.00  0.00     0.028 C 
ATOM     10  C   LIG d   1      -5.046  80.149 117.189  0.00  0.00     0.006 C 
ENDBRANCH   8   9
BRANCH   8  11
ATOM     11  C   LIG d   1      -3.835  78.194 116.069  0.00  0.00     0.028 C 
ATOM     12  C   LIG d   1      -2.512  77.989 115.315  0.00  0.00     0.006 C 
ENDBRANCH   8  11
ENDBRANCH   7   8
ENDBRANCH   1   7
BRANCH   6  13
ATOM     13  N   LIG d   1      -3.930  74.646 116.165  0.00  0.00    -0.311 N 
ATOM     14  C   LIG d   1      -2.784  74.191 116.669  0.00  0.00     0.210 C 
ATOM     15  C   LIG d   1      -1.628  74.104 115.669  0.00  0.00     0.109 C 
ATOM     16  O   LIG d   1      -2.625  73.822 117.842  0.00  0.00    -0.276 OA
ATOM     17  H   LIG d   1      -3.979  74.892 115.196  0.00  0.00     0.149 HD
ENDBRANCH   6  13
BRANCH   5  18
ATOM     18  N   LIG d   1      -6.222  72.631 116.317  0.00  0.00     0.381 N 
ATOM     19  H   LIG d   1      -6.726  72.255 115.539  0.00  0.00    -0.090 HD
ATOM     20  H   LIG d   1      -6.604  72.240 117.159  0.00  0.00    -0.090 HD
ATOM     21  H   LIG d   1      -5.256  72.396 116.241  0.00  0.00    -0.090 HD
ENDBRANCH   5  18
BRANCH   3  22
ATOM     22  C   LIG d   1      -9.113  76.236 117.574  0.00  0.00     0.382 C 
ATOM     23  O   LIG d   1      -9.318  77.426 117.914  0.00  0.00    -0.241 OA
ATOM     24  O   LIG d   1     -10.081  75.466 117.422  0.00  0.00    -0.241 OA
ENDBRANCH   3  22
TORSDOF 7
ENDMDL
