MODEL 1
REMARK VINA RESULT:      -5.4      0.000      0.000
REMARK  7 active torsions:
REMARK  status: ('A' for Active; 'I' for Inactive)
REMARK    1  A    between atoms: C_2  and  C_3 
REMARK    2  A    between atoms: C_3  and  O_6 
REMARK    3  A    between atoms: C_3  and  C_4 
REMARK    4  A    between atoms: C_7  and  O_6 
REMARK    5  A    between atoms: C_9  and  C_10 
REMARK    6  A    between atoms: N_15  and  C_14 
REMARK    7  A    between atoms: N_20  and  C_19 
REMARK       I    between atoms: C_22  and  N_20 
ROOT
ATOM      1  C   LIG d   1      -3.754  75.590 115.906  0.00  0.00     0.161 C 
ATOM      2  C   LIG d   1      -4.594  74.489 115.670  0.00  0.00     0.016 C 
ATOM      3  C   LIG d   1      -5.992  74.516 115.882  0.00  0.00     0.038 C 
ATOM      4  C   LIG d   1      -6.670  75.702 116.204  0.00  0.00     0.028 C 
ATOM      5  C   LIG d   1      -5.801  76.714 116.943  0.00  0.00    -0.047 C 
ATOM      6  C   LIG d   1      -4.490  76.924 116.151  0.00  0.00     0.091 C 
ENDROOT
BRANCH   1   7
ATOM      7  O   LIG d   1      -2.814  75.729 114.823  0.00  0.00    -0.368 OA
BRANCH   7   8
ATOM      8  C   LIG d   1      -1.555  75.027 114.978  0.00  0.00     0.119 C 
BRANCH   8   9
ATOM      9  C   LIG d   1      -0.960  75.438 116.339  0.00  0.00     0.028 C 
ATOM     10  C   LIG d   1      -0.453  74.232 117.146  0.00  0.00     0.006 C 
ENDBRANCH   8   9
BRANCH   8  11
ATOM     11  C   LIG d   1      -0.532  75.482 113.934  0.00  0.00     0.028 C 
ATOM     12  C   LIG d   1       0.248  74.311 113.314  0.00  0.00     0.006 C 
ENDBRANCH   8  11
ENDBRANCH   7   8
ENDBRANCH   1   7
BRANCH   6  13
ATOM     13  N   LIG d   1      -3.547  77.837 116.848  0.00  0.00    -0.311 N 
ATOM     14  C   LIG d   1      -2.993  78.900 116.269  0.00  0.00     0.210 C 
ATOM     15  C   LIG d   1      -2.034  79.696 117.159  0.00  0.00     0.109 C 
ATOM     16  O   LIG d   1      -3.230  79.279 115.112  0.00  0.00    -0.276 OA
ATOM     17  H   LIG d   1      -3.323  77.621 117.800  0.00  0.00     0.149 HD
ENDBRANCH   6  13
BRANCH   5  18
ATOM     18  N   LIG d   1      -6.590  77.952 117.094  0.00  0.00     0.381 N 
ATOM     19  H   LIG d   1      -6.058  78.734 116.768  0.00  0.00    -0.090 HD
ATOM     20  H   LIG d   1      -6.792  78.092 118.068  0.00  0.00    -0.090 HD
ATOM     21  H   LIG d   1      -7.439  77.880 116.578  0.00  0.00    -0.090 HD
ENDBRANCH   5  18
BRANCH   3  22
ATOM     22  C   LIG d   1      -6.721  73.339 115.812  0.00  0.00     0.382 C 
ATOM     23  O   LIG d   1      -6.149  72.265 115.504  0.00  0.00    -0.241 OA
ATOM     24  O   LIG d   1      -7.951  73.345 116.008  0.00  0.00    -0.241 OA
ENDBRANCH   3  22
TORSDOF 7
ENDMDL
MODEL 2
REMARK VINA RESULT:      -4.7      2.037      2.628
REMARK  7 active torsions:
REMARK  status: ('A' for Active; 'I' for Inactive)
REMARK    1  A    between atoms: C_2  and  C_3 
REMARK    2  A    between atoms: C_3  and  O_6 
REMARK    3  A    between atoms: C_3  and  C_4 
REMARK    4  A    between atoms: C_7  and  O_6 
REMARK    5  A    between atoms: C_9  and  C_10 
REMARK    6  A    between atoms: N_15  and  C_14 
REMARK    7  A    between atoms: N_20  and  C_19 
REMARK       I    between atoms: C_22  and  N_20 
ROOT
ATOM      1  C   LIG d   1      -3.680  76.228 116.304  0.00  0.00     0.161 C 
ATOM      2  C   LIG d   1      -4.379  75.095 115.854  0.00  0.00     0.016 C 
ATOM      3  C   LIG d   1      -5.780  74.949 115.967  0.00  0.00     0.038 C 
ATOM      4  C   LIG d   1      -6.602  75.998 116.405  0.00  0.00     0.028 C 
ATOM      5  C   LIG d   1      -5.894  76.972 117.341  0.00  0.00    -0.047 C 
ATOM      6  C   LIG d   1      -4.572  77.429 116.683  0.00  0.00     0.091 C 
ENDROOT
BRANCH   1   7
ATOM      7  O   LIG d   1      -2.701  76.621 115.322  0.00  0.00    -0.368 OA
BRANCH   7   8
ATOM      8  C   LIG d   1      -2.999  77.824 114.572  0.00  0.00     0.119 C 
BRANCH   8   9
ATOM      9  C   LIG d   1      -3.351  77.396 113.134  0.00  0.00     0.028 C 
ATOM     10  C   LIG d   1      -2.384  77.985 112.093  0.00  0.00     0.006 C 
ENDBRANCH   8   9
BRANCH   8  11
ATOM     11  C   LIG d   1      -1.762  78.717 114.437  0.00  0.00     0.028 C 
ATOM     12  C   LIG d   1      -0.829  78.630 115.656  0.00  0.00     0.006 C 
ENDBRANCH   8  11
ENDBRANCH   7   8
ENDBRANCH   1   7
BRANCH   6  13
ATOM     13  N   LIG d   1      -3.776  78.318 117.569  0.00  0.00    -0.311 N 
ATOM     14  C   LIG d   1      -3.902  79.644 117.581  0.00  0.00     0.210 C 
ATOM     15  C   LIG d   1      -2.972  80.373 118.555  0.00  0.00     0.109 C 
ATOM     16  O   LIG d   1      -4.719  80.283 116.901  0.00  0.00    -0.276 OA
ATOM     17  H   LIG d   1      -3.111  77.881 118.176  0.00  0.00     0.149 HD
ENDBRANCH   6  13
BRANCH   5  18
ATOM     18  N   LIG d   1      -6.822  78.087 117.609  0.00  0.00     0.381 N 
ATOM     19  H   LIG d   1      -6.323  78.853 118.015  0.00  0.00    -0.090 HD
ATOM     20  H   LIG d   1      -7.518  77.780 118.266  0.00  0.00    -0.090 HD
ATOM     21  H   LIG d   1      -7.260  78.378 116.762  0.00  0.00    -0.090 HD
ENDBRANCH   5  18
BRANCH   3  22
ATOM     22  C   LIG d   1      -6.370  73.728 115.678  0.00  0.00     0.382 C 
ATOM     23  O   LIG d   1      -7.578  73.533 115.955  0.00  0.00    -0.241 OA
ATOM     24  O   LIG d   1      -5.697  72.803 115.184  0.00  0.00    -0.241 OA
ENDBRANCH   3  22
TORSDOF 7
ENDMDL
MODEL 3
REMARK VINA RESULT:      -4.5     20.981     23.552
REMARK  7 active torsions:
REMARK  status: ('A' for Active; 'I' for Inactive)
REMARK    1  A    between atoms: C_2  and  C_3 
REMARK    2  A    between atoms: C_3  and  O_6 
REMARK    3  A    between atoms: C_3  and  C_4 
REMARK    4  A    between atoms: C_7  and  O_6 
REMARK    5  A    between atoms: C_9  and  C_10 
REMARK    6  A    between atoms: N_15  and  C_14 
REMARK    7  A    between atoms: N_20  and  C_19 
REMARK       I    between atoms: C_22  and  N_20 
ROOT
ATOM      1  C   LIG d   1     -24.593  84.598 116.167  0.00  0.00     0.161 C 
ATOM      2  C   LIG d   1     -24.497  85.983 115.953  0.00  0.00     0.016 C 
ATOM      3  C   LIG d   1     -23.884  86.554 114.815  0.00  0.00     0.038 C 
ATOM      4  C   LIG d   1     -23.457  85.772 113.732  0.00  0.00     0.028 C 
ATOM      5  C   LIG d   1     -23.076  84.349 114.126  0.00  0.00    -0.047 C 
ATOM      6  C   LIG d   1     -24.232  83.728 114.944  0.00  0.00     0.091 C 
ENDROOT
BRANCH   1   7
ATOM      7  O   LIG d   1     -25.912  84.267 116.644  0.00  0.00    -0.368 OA
BRANCH   7   8
ATOM      8  C   LIG d   1     -26.907  83.989 115.628  0.00  0.00     0.119 C 
BRANCH   8   9
ATOM      9  C   LIG d   1     -27.984  85.087 115.721  0.00  0.00     0.028 C 
ATOM     10  C   LIG d   1     -27.898  86.094 114.562  0.00  0.00     0.006 C 
ENDBRANCH   8   9
BRANCH   8  11
ATOM     11  C   LIG d   1     -27.641  82.675 115.911  0.00  0.00     0.028 C 
ATOM     12  C   LIG d   1     -27.134  81.971 117.179  0.00  0.00     0.006 C 
ENDBRANCH   8  11
ENDBRANCH   7   8
ENDBRANCH   1   7
BRANCH   6  13
ATOM     13  N   LIG d   1     -23.907  82.366 115.441  0.00  0.00    -0.311 N 
ATOM     14  C   LIG d   1     -24.308  81.250 114.835  0.00  0.00     0.210 C 
ATOM     15  C   LIG d   1     -23.881  79.950 115.525  0.00  0.00     0.109 C 
ATOM     16  O   LIG d   1     -24.949  81.212 113.774  0.00  0.00    -0.276 OA
ATOM     17  H   LIG d   1     -23.363  82.304 116.279  0.00  0.00     0.149 HD
ENDBRANCH   6  13
BRANCH   5  18
ATOM     18  N   LIG d   1     -22.783  83.606 112.885  0.00  0.00     0.381 N 
ATOM     19  H   LIG d   1     -21.798  83.443 112.813  0.00  0.00    -0.090 HD
ATOM     20  H   LIG d   1     -23.068  84.162 112.099  0.00  0.00    -0.090 HD
ATOM     21  H   LIG d   1     -23.272  82.738 112.884  0.00  0.00    -0.090 HD
ENDBRANCH   5  18
BRANCH   3  22
ATOM     22  C   LIG d   1     -23.658  87.921 114.770  0.00  0.00     0.382 C 
ATOM     23  O   LIG d   1     -24.619  88.720 114.877  0.00  0.00    -0.241 OA
ATOM     24  O   LIG d   1     -22.510  88.366 114.579  0.00  0.00    -0.241 OA
ENDBRANCH   3  22
TORSDOF 7
ENDMDL
MODEL 4
REMARK VINA RESULT:      -4.3     21.665     24.521
REMARK  7 active torsions:
REMARK  status: ('A' for Active; 'I' for Inactive)
REMARK    1  A    between atoms: C_2  and  C_3 
REMARK    2  A    between atoms: C_3  and  O_6 
REMARK    3  A    between atoms: C_3  and  C_4 
REMARK    4  A    between atoms: C_7  and  O_6 
REMARK    5  A    between atoms: C_9  and  C_10 
REMARK    6  A    between atoms: N_15  and  C_14 
REMARK    7  A    between atoms: N_20  and  C_19 
REMARK       I    between atoms: C_22  and  N_20 
ROOT
ATOM      1  C   LIG d   1     -25.795  85.584 114.543  0.00  0.00     0.161 C 
ATOM      2  C   LIG d   1     -24.780  86.541 114.382  0.00  0.00     0.016 C 
ATOM      3  C   LIG d   1     -23.482  86.228 113.915  0.00  0.00     0.038 C 
ATOM      4  C   LIG d   1     -23.157  84.952 113.431  0.00  0.00     0.028 C 
ATOM      5  C   LIG d   1     -23.997  83.838 114.045  0.00  0.00    -0.047 C 
ATOM      6  C   LIG d   1     -25.493  84.208 113.915  0.00  0.00     0.091 C 
ENDROOT
BRANCH   1   7
ATOM      7  O   LIG d   1     -27.041  86.103 114.036  0.00  0.00    -0.368 OA
BRANCH   7   8
ATOM      8  C   LIG d   1     -27.362  85.762 112.665  0.00  0.00     0.119 C 
BRANCH   8   9
ATOM      9  C   LIG d   1     -27.111  87.016 111.805  0.00  0.00     0.028 C 
ATOM     10  C   LIG d   1     -27.483  88.315 112.539  0.00  0.00     0.006 C 
ENDBRANCH   8   9
BRANCH   8  11
ATOM     11  C   LIG d   1     -28.853  85.452 112.504  0.00  0.00     0.028 C 
ATOM     12  C   LIG d   1     -29.110  84.107 111.805  0.00  0.00     0.006 C 
ENDBRANCH   8  11
ENDBRANCH   7   8
ENDBRANCH   1   7
BRANCH   6  13
ATOM     13  N   LIG d   1     -26.382  83.211 114.566  0.00  0.00    -0.311 N 
ATOM     14  C   LIG d   1     -26.880  82.149 113.934  0.00  0.00     0.210 C 
ATOM     15  C   LIG d   1     -27.790  81.259 114.785  0.00  0.00     0.109 C 
ATOM     16  O   LIG d   1     -26.628  81.843 112.759  0.00  0.00    -0.276 OA
ATOM     17  H   LIG d   1     -26.612  83.365 115.528  0.00  0.00     0.149 HD
ENDBRANCH   6  13
BRANCH   5  18
ATOM     18  N   LIG d   1     -23.649  82.583 113.352  0.00  0.00     0.381 N 
ATOM     19  H   LIG d   1     -22.661  82.544 113.199  0.00  0.00    -0.090 HD
ATOM     20  H   LIG d   1     -24.108  82.568 112.458  0.00  0.00    -0.090 HD
ATOM     21  H   LIG d   1     -23.940  81.801 113.897  0.00  0.00    -0.090 HD
ENDBRANCH   5  18
BRANCH   3  22
ATOM     22  C   LIG d   1     -22.483  87.188 113.967  0.00  0.00     0.382 C 
ATOM     23  O   LIG d   1     -22.655  88.237 114.633  0.00  0.00    -0.241 OA
ATOM     24  O   LIG d   1     -21.429  87.038 113.320  0.00  0.00    -0.241 OA
ENDBRANCH   3  22
TORSDOF 7
ENDMDL
MODEL 5
REMARK VINA RESULT:      -4.2     15.294     18.232
REMARK  7 active torsions:
REMARK  status: ('A' for Active; 'I' for Inactive)
REMARK    1  A    between atoms: C_2  and  C_3 
REMARK    2  A    between atoms: C_3  and  O_6 
REMARK    3  A    between atoms: C_3  and  C_4 
REMARK    4  A    between atoms: C_7  and  O_6 
REMARK    5  A    between atoms: C_9  and  C_10 
REMARK    6  A    between atoms: N_15  and  C_14 
REMARK    7  A    between atoms: N_20  and  C_19 
REMARK       I    between atoms: C_22  and  N_20 
ROOT
ATOM      1  C   LIG d   1     -17.541  65.318 116.020  0.00  0.00     0.161 C 
ATOM      2  C   LIG d   1     -16.301  65.162 116.660  0.00  0.00     0.016 C 
ATOM      3  C   LIG d   1     -15.941  65.855 117.839  0.00  0.00     0.038 C 
ATOM      4  C   LIG d   1     -16.861  66.643 118.546  0.00  0.00     0.028 C 
ATOM      5  C   LIG d   1     -17.960  67.227 117.666  0.00  0.00    -0.047 C 
ATOM      6  C   LIG d   1     -18.599  66.089 116.838  0.00  0.00     0.091 C 
ENDROOT
BRANCH   1   7
ATOM      7  O   LIG d   1     -18.053  64.029 115.626  0.00  0.00    -0.368 OA
BRANCH   7   8
ATOM      8  C   LIG d   1     -17.668  63.566 114.309  0.00  0.00     0.119 C 
BRANCH   8   9
ATOM      9  C   LIG d   1     -17.863  64.739 113.330  0.00  0.00     0.028 C 
ATOM     10  C   LIG d   1     -19.216  64.676 112.600  0.00  0.00     0.006 C 
ENDBRANCH   8   9
BRANCH   8  11
ATOM     11  C   LIG d   1     -18.605  62.462 113.811  0.00  0.00     0.028 C 
ATOM     12  C   LIG d   1     -18.052  61.051 114.064  0.00  0.00     0.006 C 
ENDBRANCH   8  11
ENDBRANCH   7   8
ENDBRANCH   1   7
BRANCH   6  13
ATOM     13  N   LIG d   1     -19.627  66.587 115.887  0.00  0.00    -0.311 N 
ATOM     14  C   LIG d   1     -20.814  66.006 115.722  0.00  0.00     0.210 C 
ATOM     15  C   LIG d   1     -21.717  66.669 114.677  0.00  0.00     0.109 C 
ATOM     16  O   LIG d   1     -21.218  65.025 116.364  0.00  0.00    -0.276 OA
ATOM     17  H   LIG d   1     -19.395  67.397 115.348  0.00  0.00     0.149 HD
ENDBRANCH   6  13
BRANCH   5  18
ATOM     18  N   LIG d   1     -18.924  67.910 118.550  0.00  0.00     0.381 N 
ATOM     19  H   LIG d   1     -19.150  67.319 119.325  0.00  0.00    -0.090 HD
ATOM     20  H   LIG d   1     -19.767  68.090 118.034  0.00  0.00    -0.090 HD
ATOM     21  H   LIG d   1     -18.537  68.767 118.878  0.00  0.00    -0.090 HD
ENDBRANCH   5  18
BRANCH   3  22
ATOM     22  C   LIG d   1     -14.634  65.794 118.300  0.00  0.00     0.382 C 
ATOM     23  O   LIG d   1     -13.983  66.851 118.480  0.00  0.00    -0.241 OA
ATOM     24  O   LIG d   1     -14.084  64.694 118.496  0.00  0.00    -0.241 OA
ENDBRANCH   3  22
TORSDOF 7
ENDMDL
MODEL 6
REMARK VINA RESULT:      -4.1     15.821     18.106
REMARK  7 active torsions:
REMARK  status: ('A' for Active; 'I' for Inactive)
REMARK    1  A    between atoms: C_2  and  C_3 
REMARK    2  A    between atoms: C_3  and  O_6 
REMARK    3  A    between atoms: C_3  and  C_4 
REMARK    4  A    between atoms: C_7  and  O_6 
REMARK    5  A    between atoms: C_9  and  C_10 
REMARK    6  A    between atoms: N_15  and  C_14 
REMARK    7  A    between atoms: N_20  and  C_19 
REMARK       I    between atoms: C_22  and  N_20 
ROOT
ATOM      1  C   LIG d   1      10.199  66.453 115.042  0.00  0.00     0.161 C 
ATOM      2  C   LIG d   1      10.425  67.823 114.830  0.00  0.00     0.016 C 
ATOM      3  C   LIG d   1      11.117  68.649 115.746  0.00  0.00     0.038 C 
ATOM      4  C   LIG d   1      11.767  68.123 116.873  0.00  0.00     0.028 C 
ATOM      5  C   LIG d   1      11.138  66.833 117.388  0.00  0.00    -0.047 C 
ATOM      6  C   LIG d   1      10.996  65.840 116.213  0.00  0.00     0.091 C 
ENDROOT
BRANCH   1   7
ATOM      7  O   LIG d   1      10.453  65.722 113.826  0.00  0.00    -0.368 OA
BRANCH   7   8
ATOM      8  C   LIG d   1       9.286  65.230 113.123  0.00  0.00     0.119 C 
BRANCH   8   9
ATOM      9  C   LIG d   1       9.680  63.905 112.442  0.00  0.00     0.028 C 
ATOM     10  C   LIG d   1      10.521  63.001 113.359  0.00  0.00     0.006 C 
ENDBRANCH   8   9
BRANCH   8  11
ATOM     11  C   LIG d   1       8.885  66.169 111.982  0.00  0.00     0.028 C 
ATOM     12  C   LIG d   1       7.922  67.278 112.433  0.00  0.00     0.006 C 
ENDBRANCH   8  11
ENDBRANCH   7   8
ENDBRANCH   1   7
BRANCH   6  13
ATOM     13  N   LIG d   1      10.312  64.582 116.612  0.00  0.00    -0.311 N 
ATOM     14  C   LIG d   1      10.962  63.488 117.006  0.00  0.00     0.210 C 
ATOM     15  C   LIG d   1      10.066  62.295 117.354  0.00  0.00     0.109 C 
ATOM     16  O   LIG d   1      12.192  63.402 117.130  0.00  0.00    -0.276 OA
ATOM     17  H   LIG d   1       9.312  64.574 116.571  0.00  0.00     0.149 HD
ENDBRANCH   6  13
BRANCH   5  18
ATOM     18  N   LIG d   1      11.994  66.323 118.476  0.00  0.00     0.381 N 
ATOM     19  H   LIG d   1      11.430  65.865 119.164  0.00  0.00    -0.090 HD
ATOM     20  H   LIG d   1      12.459  67.099 118.915  0.00  0.00    -0.090 HD
ATOM     21  H   LIG d   1      12.667  65.687 118.110  0.00  0.00    -0.090 HD
ENDBRANCH   5  18
BRANCH   3  22
ATOM     22  C   LIG d   1      11.131  70.022 115.559  0.00  0.00     0.382 C 
ATOM     23  O   LIG d   1      11.645  70.768 116.427  0.00  0.00    -0.241 OA
ATOM     24  O   LIG d   1      10.596  70.528 114.554  0.00  0.00    -0.241 OA
ENDBRANCH   3  22
TORSDOF 7
ENDMDL
MODEL 7
REMARK VINA RESULT:      -4.1      9.993     13.149
REMARK  7 active torsions:
REMARK  status: ('A' for Active; 'I' for Inactive)
REMARK    1  A    between atoms: C_2  and  C_3 
REMARK    2  A    between atoms: C_3  and  O_6 
REMARK    3  A    between atoms: C_3  and  C_4 
REMARK    4  A    between atoms: C_7  and  O_6 
REMARK    5  A    between atoms: C_9  and  C_10 
REMARK    6  A    between atoms: N_15  and  C_14 
REMARK    7  A    between atoms: N_20  and  C_19 
REMARK       I    between atoms: C_22  and  N_20 
ROOT
ATOM      1  C   LIG d   1       3.424  85.395 114.004  0.00  0.00     0.161 C 
ATOM      2  C   LIG d   1       3.959  86.682 113.821  0.00  0.00     0.016 C 
ATOM      3  C   LIG d   1       3.312  87.695 113.076  0.00  0.00     0.038 C 
ATOM      4  C   LIG d   1       2.006  87.537 112.588  0.00  0.00     0.028 C 
ATOM      5  C   LIG d   1       1.633  86.083 112.317  0.00  0.00    -0.047 C 
ATOM      6  C   LIG d   1       1.951  85.240 113.573  0.00  0.00     0.091 C 
ENDROOT
BRANCH   1   7
ATOM      7  O   LIG d   1       3.590  84.988 115.376  0.00  0.00    -0.368 OA
BRANCH   7   8
ATOM      8  C   LIG d   1       4.698  84.094 115.647  0.00  0.00     0.119 C 
BRANCH   8   9
ATOM      9  C   LIG d   1       4.104  82.720 116.014  0.00  0.00     0.028 C 
ATOM     10  C   LIG d   1       2.742  82.839 116.718  0.00  0.00     0.006 C 
ENDBRANCH   8   9
BRANCH   8  11
ATOM     11  C   LIG d   1       5.485  84.540 116.883  0.00  0.00     0.028 C 
ATOM     12  C   LIG d   1       5.134  85.968 117.330  0.00  0.00     0.006 C 
ENDBRANCH   8  11
ENDBRANCH   7   8
ENDBRANCH   1   7
BRANCH   6  13
ATOM     13  N   LIG d   1       1.694  83.791 113.363  0.00  0.00    -0.311 N 
ATOM     14  C   LIG d   1       2.481  83.006 112.630  0.00  0.00     0.210 C 
ATOM     15  C   LIG d   1       2.023  81.548 112.526  0.00  0.00     0.109 C 
ATOM     16  O   LIG d   1       3.532  83.371 112.081  0.00  0.00    -0.276 OA
ATOM     17  H   LIG d   1       0.879  83.405 113.798  0.00  0.00     0.149 HD
ENDBRANCH   6  13
BRANCH   5  18
ATOM     18  N   LIG d   1       0.206  86.052 111.945  0.00  0.00     0.381 N 
ATOM     19  H   LIG d   1      -0.187  86.968 112.032  0.00  0.00    -0.090 HD
ATOM     20  H   LIG d   1      -0.281  85.439 112.576  0.00  0.00    -0.090 HD
ATOM     21  H   LIG d   1       0.104  85.726 111.009  0.00  0.00    -0.090 HD
ENDBRANCH   5  18
BRANCH   3  22
ATOM     22  C   LIG d   1       3.988  88.868 112.780  0.00  0.00     0.382 C 
ATOM     23  O   LIG d   1       3.365  89.956 112.730  0.00  0.00    -0.241 OA
ATOM     24  O   LIG d   1       5.206  88.847 112.518  0.00  0.00    -0.241 OA
ENDBRANCH   3  22
TORSDOF 7
ENDMDL
MODEL 8
REMARK VINA RESULT:      -4.1     14.202     16.139
REMARK  7 active torsions:
REMARK  status: ('A' for Active; 'I' for Inactive)
REMARK    1  A    between atoms: C_2  and  C_3 
REMARK    2  A    between atoms: C_3  and  O_6 
REMARK    3  A    between atoms: C_3  and  C_4 
REMARK    4  A    between atoms: C_7  and  O_6 
REMARK    5  A    between atoms: C_9  and  C_10 
REMARK    6  A    between atoms: N_15  and  C_14 
REMARK    7  A    between atoms: N_20  and  C_19 
REMARK       I    between atoms: C_22  and  N_20 
ROOT
ATOM      1  C   LIG d   1       3.893  89.377 116.353  0.00  0.00     0.161 C 
ATOM      2  C   LIG d   1       3.322  89.822 115.150  0.00  0.00     0.016 C 
ATOM      3  C   LIG d   1       2.977  88.958 114.085  0.00  0.00     0.038 C 
ATOM      4  C   LIG d   1       3.041  87.562 114.213  0.00  0.00     0.028 C 
ATOM      5  C   LIG d   1       4.084  87.094 115.222  0.00  0.00    -0.047 C 
ATOM      6  C   LIG d   1       3.868  87.847 116.554  0.00  0.00     0.091 C 
ENDROOT
BRANCH   1   7
ATOM      7  O   LIG d   1       3.263  90.039 117.468  0.00  0.00    -0.368 OA
BRANCH   7   8
ATOM      8  C   LIG d   1       2.551  91.263 117.162  0.00  0.00     0.119 C 
BRANCH   8   9
ATOM      9  C   LIG d   1       3.373  92.433 117.735  0.00  0.00     0.028 C 
ATOM     10  C   LIG d   1       2.486  93.522 118.363  0.00  0.00     0.006 C 
ENDBRANCH   8   9
BRANCH   8  11
ATOM     11  C   LIG d   1       1.204  91.320 117.888  0.00  0.00     0.028 C 
ATOM     12  C   LIG d   1       0.109  90.507 117.179  0.00  0.00     0.006 C 
ENDBRANCH   8  11
ENDBRANCH   7   8
ENDBRANCH   1   7
BRANCH   6  13
ATOM     13  N   LIG d   1       4.899  87.510 117.570  0.00  0.00    -0.311 N 
ATOM     14  C   LIG d   1       6.202  87.717 117.389  0.00  0.00     0.210 C 
ATOM     15  C   LIG d   1       7.094  87.278 118.555  0.00  0.00     0.109 C 
ATOM     16  O   LIG d   1       6.701  88.251 116.387  0.00  0.00    -0.276 OA
ATOM     17  H   LIG d   1       4.578  87.101 118.426  0.00  0.00     0.149 HD
ENDBRANCH   6  13
BRANCH   5  18
ATOM     18  N   LIG d   1       3.949  85.631 115.356  0.00  0.00     0.381 N 
ATOM     19  H   LIG d   1       4.852  85.202 115.318  0.00  0.00    -0.090 HD
ATOM     20  H   LIG d   1       3.402  85.283 114.589  0.00  0.00    -0.090 HD
ATOM     21  H   LIG d   1       3.503  85.408 116.219  0.00  0.00    -0.090 HD
ENDBRANCH   5  18
BRANCH   3  22
ATOM     22  C   LIG d   1       2.600  89.491 112.862  0.00  0.00     0.382 C 
ATOM     23  O   LIG d   1       2.541  88.753 111.848  0.00  0.00    -0.241 OA
ATOM     24  O   LIG d   1       2.360  90.708 112.750  0.00  0.00    -0.241 OA
ENDBRANCH   3  22
TORSDOF 7
ENDMDL
MODEL 9
REMARK VINA RESULT:      -4.0     22.646     25.379
REMARK  7 active torsions:
REMARK  status: ('A' for Active; 'I' for Inactive)
REMARK    1  A    between atoms: C_2  and  C_3 
REMARK    2  A    between atoms: C_3  and  O_6 
REMARK    3  A    between atoms: C_3  and  C_4 
REMARK    4  A    between atoms: C_7  and  O_6 
REMARK    5  A    between atoms: C_9  and  C_10 
REMARK    6  A    between atoms: N_15  and  C_14 
REMARK    7  A    between atoms: N_20  and  C_19 
REMARK       I    between atoms: C_22  and  N_20 
ROOT
ATOM      1  C   LIG d   1     -24.881  88.334 115.327  0.00  0.00     0.161 C 
ATOM      2  C   LIG d   1     -23.864  87.799 114.519  0.00  0.00     0.016 C 
ATOM      3  C   LIG d   1     -23.633  86.411 114.375  0.00  0.00     0.038 C 
ATOM      4  C   LIG d   1     -24.507  85.455 114.914  0.00  0.00     0.028 C 
ATOM      5  C   LIG d   1     -25.252  85.944 116.151  0.00  0.00    -0.047 C 
ATOM      6  C   LIG d   1     -25.913  87.305 115.834  0.00  0.00     0.091 C 
ENDROOT
BRANCH   1   7
ATOM      7  O   LIG d   1     -25.544  89.407 114.630  0.00  0.00    -0.368 OA
BRANCH   7   8
ATOM      8  C   LIG d   1     -26.842  89.095 114.065  0.00  0.00     0.119 C 
BRANCH   8   9
ATOM      9  C   LIG d   1     -26.662  88.956 112.541  0.00  0.00     0.028 C 
ATOM     10  C   LIG d   1     -26.743  87.494 112.071  0.00  0.00     0.006 C 
ENDBRANCH   8   9
BRANCH   8  11
ATOM     11  C   LIG d   1     -27.825  90.253 114.254  0.00  0.00     0.028 C 
ATOM     12  C   LIG d   1     -29.244  89.779 114.607  0.00  0.00     0.006 C 
ENDBRANCH   8  11
ENDBRANCH   7   8
ENDBRANCH   1   7
BRANCH   6  13
ATOM     13  N   LIG d   1     -26.593  87.895 117.016  0.00  0.00    -0.311 N 
ATOM     14  C   LIG d   1     -27.879  87.695 117.298  0.00  0.00     0.210 C 
ATOM     15  C   LIG d   1     -28.385  88.412 118.554  0.00  0.00     0.109 C 
ATOM     16  O   LIG d   1     -28.641  86.967 116.644  0.00  0.00    -0.276 OA
ATOM     17  H   LIG d   1     -26.040  88.474 117.618  0.00  0.00     0.149 HD
ENDBRANCH   6  13
BRANCH   5  18
ATOM     18  N   LIG d   1     -26.226  84.902 116.526  0.00  0.00     0.381 N 
ATOM     19  H   LIG d   1     -26.716  84.588 115.712  0.00  0.00    -0.090 HD
ATOM     20  H   LIG d   1     -26.895  85.296 117.164  0.00  0.00    -0.090 HD
ATOM     21  H   LIG d   1     -25.757  84.135 116.956  0.00  0.00    -0.090 HD
ENDBRANCH   5  18
BRANCH   3  22
ATOM     22  C   LIG d   1     -22.495  85.968 113.718  0.00  0.00     0.382 C 
ATOM     23  O   LIG d   1     -21.628  86.793 113.341  0.00  0.00    -0.241 OA
ATOM     24  O   LIG d   1     -22.346  84.759 113.459  0.00  0.00    -0.241 OA
ENDBRANCH   3  22
TORSDOF 7
ENDMDL
