MODEL 1
REMARK VINA RESULT:      -5.4      0.000      0.000
REMARK  7 active torsions:
REMARK  status: ('A' for Active; 'I' for Inactive)
REMARK    1  A    between atoms: C_2  and  C_3 
REMARK    2  A    between atoms: C_3  and  O_6 
REMARK    3  A    between atoms: C_3  and  C_4 
REMARK    4  A    between atoms: C_7  and  O_6 
REMARK    5  A    between atoms: C_9  and  C_10 
REMARK    6  A    between atoms: N_15  and  C_14 
REMARK    7  A    between atoms: N_20  and  C_19 
REMARK       I    between atoms: C_22  and  N_20 
ROOT
ATOM      1  C   LIG d   1      -3.138  75.422 115.298  0.00  0.00     0.161 C 
ATOM      2  C   LIG d   1      -3.463  76.534 114.504  0.00  0.00     0.016 C 
ATOM      3  C   LIG d   1      -2.523  77.215 113.696  0.00  0.00     0.038 C 
ATOM      4  C   LIG d   1      -1.219  76.734 113.511  0.00  0.00     0.028 C 
ATOM      5  C   LIG d   1      -0.705  75.908 114.686  0.00  0.00    -0.047 C 
ATOM      6  C   LIG d   1      -1.746  74.816 115.023  0.00  0.00     0.091 C 
ENDROOT
BRANCH   1   7
ATOM      7  O   LIG d   1      -4.159  74.412 115.168  0.00  0.00    -0.368 OA
BRANCH   7   8
ATOM      8  C   LIG d   1      -5.270  74.507 116.092  0.00  0.00     0.119 C 
BRANCH   8   9
ATOM      9  C   LIG d   1      -5.918  73.112 116.181  0.00  0.00     0.028 C 
ATOM     10  C   LIG d   1      -6.936  73.009 117.329  0.00  0.00     0.006 C 
ENDBRANCH   8   9
BRANCH   8  11
ATOM     11  C   LIG d   1      -6.367  75.429 115.552  0.00  0.00     0.028 C 
ATOM     12  C   LIG d   1      -6.604  76.659 116.443  0.00  0.00     0.006 C 
ENDBRANCH   8  11
ENDBRANCH   7   8
ENDBRANCH   1   7
BRANCH   6  13
ATOM     13  N   LIG d   1      -1.361  74.015 116.215  0.00  0.00    -0.311 N 
ATOM     14  C   LIG d   1      -1.002  74.557 117.378  0.00  0.00     0.210 C 
ATOM     15  C   LIG d   1      -0.624  73.552 118.470  0.00  0.00     0.109 C 
ATOM     16  O   LIG d   1      -0.992  75.774 117.618  0.00  0.00    -0.276 OA
ATOM     17  H   LIG d   1      -1.371  73.019 116.118  0.00  0.00     0.149 HD
ENDBRANCH   6  13
BRANCH   5  18
ATOM     18  N   LIG d   1       0.608  75.356 114.302  0.00  0.00     0.381 N 
ATOM     19  H   LIG d   1       1.036  75.946 113.617  0.00  0.00    -0.090 HD
ATOM     20  H   LIG d   1       0.473  74.447 113.896  0.00  0.00    -0.090 HD
ATOM     21  H   LIG d   1       1.195  75.286 115.104  0.00  0.00    -0.090 HD
ENDBRANCH   5  18
BRANCH   3  22
ATOM     22  C   LIG d   1      -2.875  78.414 113.095  0.00  0.00     0.382 C 
ATOM     23  O   LIG d   1      -3.351  78.417 111.934  0.00  0.00    -0.241 OA
ATOM     24  O   LIG d   1      -2.681  79.495 113.681  0.00  0.00    -0.241 OA
ENDBRANCH   3  22
TORSDOF 7
ENDMDL
MODEL 2
REMARK VINA RESULT:      -5.4      2.286      5.878
REMARK  7 active torsions:
REMARK  status: ('A' for Active; 'I' for Inactive)
REMARK    1  A    between atoms: C_2  and  C_3 
REMARK    2  A    between atoms: C_3  and  O_6 
REMARK    3  A    between atoms: C_3  and  C_4 
REMARK    4  A    between atoms: C_7  and  O_6 
REMARK    5  A    between atoms: C_9  and  C_10 
REMARK    6  A    between atoms: N_15  and  C_14 
REMARK    7  A    between atoms: N_20  and  C_19 
REMARK       I    between atoms: C_22  and  N_20 
ROOT
ATOM      1  C   LIG d   1      -3.562  75.404 116.121  0.00  0.00     0.161 C 
ATOM      2  C   LIG d   1      -4.335  74.385 116.703  0.00  0.00     0.016 C 
ATOM      3  C   LIG d   1      -5.574  73.952 116.179  0.00  0.00     0.038 C 
ATOM      4  C   LIG d   1      -6.056  74.407 114.942  0.00  0.00     0.028 C 
ATOM      5  C   LIG d   1      -5.556  75.800 114.573  0.00  0.00    -0.047 C 
ATOM      6  C   LIG d   1      -4.017  75.834 114.711  0.00  0.00     0.091 C 
ENDROOT
BRANCH   1   7
ATOM      7  O   LIG d   1      -2.175  75.014 116.103  0.00  0.00    -0.368 OA
BRANCH   7   8
ATOM      8  C   LIG d   1      -1.252  75.910 116.770  0.00  0.00     0.119 C 
BRANCH   8   9
ATOM      9  C   LIG d   1      -0.152  76.280 115.757  0.00  0.00     0.028 C 
ATOM     10  C   LIG d   1      -0.143  75.347 114.534  0.00  0.00     0.006 C 
ENDBRANCH   8   9
BRANCH   8  11
ATOM     11  C   LIG d   1      -0.526  75.207 117.920  0.00  0.00     0.028 C 
ATOM     12  C   LIG d   1      -0.809  73.698 117.969  0.00  0.00     0.006 C 
ENDBRANCH   8  11
ENDBRANCH   7   8
ENDBRANCH   1   7
BRANCH   6  13
ATOM     13  N   LIG d   1      -3.455  77.185 114.449  0.00  0.00    -0.311 N 
ATOM     14  C   LIG d   1      -2.781  77.497 113.343  0.00  0.00     0.210 C 
ATOM     15  C   LIG d   1      -2.270  78.940 113.283  0.00  0.00     0.109 C 
ATOM     16  O   LIG d   1      -2.586  76.725 112.392  0.00  0.00    -0.276 OA
ATOM     17  H   LIG d   1      -3.594  77.881 115.155  0.00  0.00     0.149 HD
ENDBRANCH   6  13
BRANCH   5  18
ATOM     18  N   LIG d   1      -6.021  76.091 113.204  0.00  0.00     0.381 N 
ATOM     19  H   LIG d   1      -6.933  75.703 113.065  0.00  0.00    -0.090 HD
ATOM     20  H   LIG d   1      -5.393  75.661 112.548  0.00  0.00    -0.090 HD
ATOM     21  H   LIG d   1      -6.045  77.076 113.054  0.00  0.00    -0.090 HD
ENDBRANCH   5  18
BRANCH   3  22
ATOM     22  C   LIG d   1      -6.366  73.082 116.914  0.00  0.00     0.382 C 
ATOM     23  O   LIG d   1      -6.568  71.916 116.498  0.00  0.00    -0.241 OA
ATOM     24  O   LIG d   1      -6.916  73.464 117.964  0.00  0.00    -0.241 OA
ENDBRANCH   3  22
TORSDOF 7
ENDMDL
MODEL 3
REMARK VINA RESULT:      -5.3      2.279      5.084
REMARK  7 active torsions:
REMARK  status: ('A' for Active; 'I' for Inactive)
REMARK    1  A    between atoms: C_2  and  C_3 
REMARK    2  A    between atoms: C_3  and  O_6 
REMARK    3  A    between atoms: C_3  and  C_4 
REMARK    4  A    between atoms: C_7  and  O_6 
REMARK    5  A    between atoms: C_9  and  C_10 
REMARK    6  A    between atoms: N_15  and  C_14 
REMARK    7  A    between atoms: N_20  and  C_19 
REMARK       I    between atoms: C_22  and  N_20 
ROOT
ATOM      1  C   LIG d   1      -1.407  76.451 113.959  0.00  0.00     0.161 C 
ATOM      2  C   LIG d   1      -2.719  76.604 114.438  0.00  0.00     0.016 C 
ATOM      3  C   LIG d   1      -3.249  75.849 115.509  0.00  0.00     0.038 C 
ATOM      4  C   LIG d   1      -2.450  74.989 116.277  0.00  0.00     0.028 C 
ATOM      5  C   LIG d   1      -1.255  74.429 115.513  0.00  0.00    -0.047 C 
ATOM      6  C   LIG d   1      -0.487  75.598 114.856  0.00  0.00     0.091 C 
ENDROOT
BRANCH   1   7
ATOM      7  O   LIG d   1      -0.819  77.746 113.724  0.00  0.00    -0.368 OA
BRANCH   7   8
ATOM      8  C   LIG d   1      -1.358  78.842 114.504  0.00  0.00     0.119 C 
BRANCH   8   9
ATOM      9  C   LIG d   1      -1.480  80.060 113.568  0.00  0.00     0.028 C 
ATOM     10  C   LIG d   1      -2.614  79.901 112.542  0.00  0.00     0.006 C 
ENDBRANCH   8   9
BRANCH   8  11
ATOM     11  C   LIG d   1      -0.386  79.273 115.606  0.00  0.00     0.028 C 
ATOM     12  C   LIG d   1      -0.703  78.630 116.966  0.00  0.00     0.006 C 
ENDBRANCH   8  11
ENDBRANCH   7   8
ENDBRANCH   1   7
BRANCH   6  13
ATOM     13  N   LIG d   1       0.649  75.131 114.020  0.00  0.00    -0.311 N 
ATOM     14  C   LIG d   1       0.668  73.951 113.402  0.00  0.00     0.210 C 
ATOM     15  C   LIG d   1       1.944  73.657 112.607  0.00  0.00     0.109 C 
ATOM     16  O   LIG d   1      -0.264  73.133 113.411  0.00  0.00    -0.276 OA
ATOM     17  H   LIG d   1       1.435  75.745 113.933  0.00  0.00     0.149 HD
ENDBRANCH   6  13
BRANCH   5  18
ATOM     18  N   LIG d   1      -0.435  73.662 116.470  0.00  0.00     0.381 N 
ATOM     19  H   LIG d   1      -0.947  73.519 117.317  0.00  0.00    -0.090 HD
ATOM     20  H   LIG d   1       0.392  74.192 116.686  0.00  0.00    -0.090 HD
ATOM     21  H   LIG d   1      -0.181  72.784 116.074  0.00  0.00    -0.090 HD
ENDBRANCH   5  18
BRANCH   3  22
ATOM     22  C   LIG d   1      -4.604  75.920 115.795  0.00  0.00     0.382 C 
ATOM     23  O   LIG d   1      -5.131  75.067 116.549  0.00  0.00    -0.241 OA
ATOM     24  O   LIG d   1      -5.315  76.800 115.273  0.00  0.00    -0.241 OA
ENDBRANCH   3  22
TORSDOF 7
ENDMDL
MODEL 4
REMARK VINA RESULT:      -4.8      2.426      5.058
REMARK  7 active torsions:
REMARK  status: ('A' for Active; 'I' for Inactive)
REMARK    1  A    between atoms: C_2  and  C_3 
REMARK    2  A    between atoms: C_3  and  O_6 
REMARK    3  A    between atoms: C_3  and  C_4 
REMARK    4  A    between atoms: C_7  and  O_6 
REMARK    5  A    between atoms: C_9  and  C_10 
REMARK    6  A    between atoms: N_15  and  C_14 
REMARK    7  A    between atoms: N_20  and  C_19 
REMARK       I    between atoms: C_22  and  N_20 
ROOT
ATOM      1  C   LIG d   1      -1.503  77.069 115.040  0.00  0.00     0.161 C 
ATOM      2  C   LIG d   1      -2.778  76.741 114.551  0.00  0.00     0.016 C 
ATOM      3  C   LIG d   1      -3.511  75.612 114.984  0.00  0.00     0.038 C 
ATOM      4  C   LIG d   1      -3.079  74.813 116.053  0.00  0.00     0.028 C 
ATOM      5  C   LIG d   1      -1.565  74.810 116.234  0.00  0.00    -0.047 C 
ATOM      6  C   LIG d   1      -1.063  76.272 116.286  0.00  0.00     0.091 C 
ENDROOT
BRANCH   1   7
ATOM      7  O   LIG d   1      -1.428  78.485 115.299  0.00  0.00    -0.368 OA
BRANCH   7   8
ATOM      8  C   LIG d   1      -0.812  79.290 114.264  0.00  0.00     0.119 C 
BRANCH   8   9
ATOM      9  C   LIG d   1       0.164  80.263 114.954  0.00  0.00     0.028 C 
ATOM     10  C   LIG d   1      -0.040  80.317 116.477  0.00  0.00     0.006 C 
ENDBRANCH   8   9
BRANCH   8  11
ATOM     11  C   LIG d   1      -1.843  80.179 113.562  0.00  0.00     0.028 C 
ATOM     12  C   LIG d   1      -2.291  79.615 112.205  0.00  0.00     0.006 C 
ENDBRANCH   8  11
ENDBRANCH   7   8
ENDBRANCH   1   7
BRANCH   6  13
ATOM     13  N   LIG d   1       0.417  76.360 116.377  0.00  0.00    -0.311 N 
ATOM     14  C   LIG d   1       1.057  76.913 117.406  0.00  0.00     0.210 C 
ATOM     15  C   LIG d   1       2.584  76.918 117.291  0.00  0.00     0.109 C 
ATOM     16  O   LIG d   1       0.505  77.371 118.418  0.00  0.00    -0.276 OA
ATOM     17  H   LIG d   1       0.945  75.984 115.613  0.00  0.00     0.149 HD
ENDBRANCH   6  13
BRANCH   5  18
ATOM     18  N   LIG d   1      -1.264  74.052 117.463  0.00  0.00     0.381 N 
ATOM     19  H   LIG d   1      -1.612  74.546 118.260  0.00  0.00    -0.090 HD
ATOM     20  H   LIG d   1      -0.268  73.965 117.556  0.00  0.00    -0.090 HD
ATOM     21  H   LIG d   1      -1.681  73.148 117.416  0.00  0.00    -0.090 HD
ENDBRANCH   5  18
BRANCH   3  22
ATOM     22  C   LIG d   1      -4.672  75.250 114.318  0.00  0.00     0.382 C 
ATOM     23  O   LIG d   1      -5.289  76.096 113.626  0.00  0.00    -0.241 OA
ATOM     24  O   LIG d   1      -5.135  74.099 114.435  0.00  0.00    -0.241 OA
ENDBRANCH   3  22
TORSDOF 7
ENDMDL
MODEL 5
REMARK VINA RESULT:      -4.7     21.861     23.003
REMARK  7 active torsions:
REMARK  status: ('A' for Active; 'I' for Inactive)
REMARK    1  A    between atoms: C_2  and  C_3 
REMARK    2  A    between atoms: C_3  and  O_6 
REMARK    3  A    between atoms: C_3  and  C_4 
REMARK    4  A    between atoms: C_7  and  O_6 
REMARK    5  A    between atoms: C_9  and  C_10 
REMARK    6  A    between atoms: N_15  and  C_14 
REMARK    7  A    between atoms: N_20  and  C_19 
REMARK       I    between atoms: C_22  and  N_20 
ROOT
ATOM      1  C   LIG d   1     -23.414  83.033 115.462  0.00  0.00     0.161 C 
ATOM      2  C   LIG d   1     -22.937  84.354 115.451  0.00  0.00     0.016 C 
ATOM      3  C   LIG d   1     -23.116  85.236 114.361  0.00  0.00     0.038 C 
ATOM      4  C   LIG d   1     -23.921  84.902 113.261  0.00  0.00     0.028 C 
ATOM      5  C   LIG d   1     -24.002  83.402 113.004  0.00  0.00    -0.047 C 
ATOM      6  C   LIG d   1     -24.389  82.687 114.318  0.00  0.00     0.091 C 
ENDROOT
BRANCH   1   7
ATOM      7  O   LIG d   1     -24.015  82.741 116.739  0.00  0.00    -0.368 OA
BRANCH   7   8
ATOM      8  C   LIG d   1     -25.374  83.209 116.925  0.00  0.00     0.119 C 
BRANCH   8   9
ATOM      9  C   LIG d   1     -25.373  84.168 118.131  0.00  0.00     0.028 C 
ATOM     10  C   LIG d   1     -25.616  85.629 117.719  0.00  0.00     0.006 C 
ENDBRANCH   8   9
BRANCH   8  11
ATOM     11  C   LIG d   1     -26.309  82.062 117.320  0.00  0.00     0.028 C 
ATOM     12  C   LIG d   1     -25.551  80.780 117.700  0.00  0.00     0.006 C 
ENDBRANCH   8  11
ENDBRANCH   7   8
ENDBRANCH   1   7
BRANCH   6  13
ATOM     13  N   LIG d   1     -24.409  81.208 114.175  0.00  0.00    -0.311 N 
ATOM     14  C   LIG d   1     -25.518  80.508 113.947  0.00  0.00     0.210 C 
ATOM     15  C   LIG d   1     -25.319  78.992 113.853  0.00  0.00     0.109 C 
ATOM     16  O   LIG d   1     -26.644  81.001 113.782  0.00  0.00    -0.276 OA
ATOM     17  H   LIG d   1     -23.533  80.730 114.264  0.00  0.00     0.149 HD
ENDBRANCH   6  13
BRANCH   5  18
ATOM     18  N   LIG d   1     -24.980  83.188 111.920  0.00  0.00     0.381 N 
ATOM     19  H   LIG d   1     -24.500  83.069 111.050  0.00  0.00    -0.090 HD
ATOM     20  H   LIG d   1     -25.568  83.999 111.848  0.00  0.00    -0.090 HD
ATOM     21  H   LIG d   1     -25.534  82.383 112.114  0.00  0.00    -0.090 HD
ENDBRANCH   5  18
BRANCH   3  22
ATOM     22  C   LIG d   1     -22.453  86.454 114.346  0.00  0.00     0.382 C 
ATOM     23  O   LIG d   1     -22.914  87.427 114.990  0.00  0.00    -0.241 OA
ATOM     24  O   LIG d   1     -21.424  86.605 113.661  0.00  0.00    -0.241 OA
ENDBRANCH   3  22
TORSDOF 7
ENDMDL
MODEL 6
REMARK VINA RESULT:      -4.4     13.448     16.198
REMARK  7 active torsions:
REMARK  status: ('A' for Active; 'I' for Inactive)
REMARK    1  A    between atoms: C_2  and  C_3 
REMARK    2  A    between atoms: C_3  and  O_6 
REMARK    3  A    between atoms: C_3  and  C_4 
REMARK    4  A    between atoms: C_7  and  O_6 
REMARK    5  A    between atoms: C_9  and  C_10 
REMARK    6  A    between atoms: N_15  and  C_14 
REMARK    7  A    between atoms: N_20  and  C_19 
REMARK       I    between atoms: C_22  and  N_20 
ROOT
ATOM      1  C   LIG d   1      12.052  77.910 114.455  0.00  0.00     0.161 C 
ATOM      2  C   LIG d   1      10.773  78.423 114.726  0.00  0.00     0.016 C 
ATOM      3  C   LIG d   1       9.720  77.647 115.262  0.00  0.00     0.038 C 
ATOM      4  C   LIG d   1       9.921  76.332 115.708  0.00  0.00     0.028 C 
ATOM      5  C   LIG d   1      11.060  75.616 114.989  0.00  0.00    -0.047 C 
ATOM      6  C   LIG d   1      12.323  76.507 115.038  0.00  0.00     0.091 C 
ENDROOT
BRANCH   1   7
ATOM      7  O   LIG d   1      13.057  78.841 114.903  0.00  0.00    -0.368 OA
BRANCH   7   8
ATOM      8  C   LIG d   1      13.701  79.629 113.872  0.00  0.00     0.119 C 
BRANCH   8   9
ATOM      9  C   LIG d   1      13.420  78.941 112.521  0.00  0.00     0.028 C 
ATOM     10  C   LIG d   1      14.686  78.325 111.902  0.00  0.00     0.006 C 
ENDBRANCH   8   9
BRANCH   8  11
ATOM     11  C   LIG d   1      15.224  79.611 114.027  0.00  0.00     0.028 C 
ATOM     12  C   LIG d   1      15.678  79.842 115.477  0.00  0.00     0.006 C 
ENDBRANCH   8  11
ENDBRANCH   7   8
ENDBRANCH   1   7
BRANCH   6  13
ATOM     13  N   LIG d   1      13.461  75.919 114.286  0.00  0.00    -0.311 N 
ATOM     14  C   LIG d   1      14.710  75.894 114.747  0.00  0.00     0.210 C 
ATOM     15  C   LIG d   1      15.736  75.259 113.803  0.00  0.00     0.109 C 
ATOM     16  O   LIG d   1      15.061  76.309 115.862  0.00  0.00    -0.276 OA
ATOM     17  H   LIG d   1      13.261  75.532 113.384  0.00  0.00     0.149 HD
ENDBRANCH   6  13
BRANCH   5  18
ATOM     18  N   LIG d   1      11.249  74.309 115.645  0.00  0.00     0.381 N 
ATOM     19  H   LIG d   1      10.819  74.318 116.548  0.00  0.00    -0.090 HD
ATOM     20  H   LIG d   1      12.233  74.145 115.766  0.00  0.00    -0.090 HD
ATOM     21  H   LIG d   1      10.851  73.586 115.087  0.00  0.00    -0.090 HD
ENDBRANCH   5  18
BRANCH   3  22
ATOM     22  C   LIG d   1       8.438  78.173 115.319  0.00  0.00     0.382 C 
ATOM     23  O   LIG d   1       7.461  77.487 114.933  0.00  0.00    -0.241 OA
ATOM     24  O   LIG d   1       8.251  79.340 115.711  0.00  0.00    -0.241 OA
ENDBRANCH   3  22
TORSDOF 7
ENDMDL
MODEL 7
REMARK VINA RESULT:      -4.3     12.994     15.699
REMARK  7 active torsions:
REMARK  status: ('A' for Active; 'I' for Inactive)
REMARK    1  A    between atoms: C_2  and  C_3 
REMARK    2  A    between atoms: C_3  and  O_6 
REMARK    3  A    between atoms: C_3  and  C_4 
REMARK    4  A    between atoms: C_7  and  O_6 
REMARK    5  A    between atoms: C_9  and  C_10 
REMARK    6  A    between atoms: N_15  and  C_14 
REMARK    7  A    between atoms: N_20  and  C_19 
REMARK       I    between atoms: C_22  and  N_20 
ROOT
ATOM      1  C   LIG d   1      11.481  78.844 114.334  0.00  0.00     0.161 C 
ATOM      2  C   LIG d   1      10.186  79.090 114.819  0.00  0.00     0.016 C 
ATOM      3  C   LIG d   1       9.356  78.084 115.365  0.00  0.00     0.038 C 
ATOM      4  C   LIG d   1       9.825  76.784 115.604  0.00  0.00     0.028 C 
ATOM      5  C   LIG d   1      10.954  76.366 114.667  0.00  0.00    -0.047 C 
ATOM      6  C   LIG d   1      12.052  77.455 114.688  0.00  0.00     0.091 C 
ENDROOT
BRANCH   1   7
ATOM      7  O   LIG d   1      12.376  79.882 114.782  0.00  0.00    -0.368 OA
BRANCH   7   8
ATOM      8  C   LIG d   1      13.063  79.634 116.033  0.00  0.00     0.119 C 
BRANCH   8   9
ATOM      9  C   LIG d   1      12.531  80.649 117.063  0.00  0.00     0.028 C 
ATOM     10  C   LIG d   1      11.645  79.989 118.134  0.00  0.00     0.006 C 
ENDBRANCH   8   9
BRANCH   8  11
ATOM     11  C   LIG d   1      14.562  79.927 115.913  0.00  0.00     0.028 C 
ATOM     12  C   LIG d   1      15.006  80.177 114.463  0.00  0.00     0.006 C 
ENDBRANCH   8  11
ENDBRANCH   7   8
ENDBRANCH   1   7
BRANCH   6  13
ATOM     13  N   LIG d   1      13.155  77.166 113.734  0.00  0.00    -0.311 N 
ATOM     14  C   LIG d   1      14.300  76.589 114.092  0.00  0.00     0.210 C 
ATOM     15  C   LIG d   1      15.312  76.400 112.957  0.00  0.00     0.109 C 
ATOM     16  O   LIG d   1      14.563  76.186 115.236  0.00  0.00    -0.276 OA
ATOM     17  H   LIG d   1      13.013  77.431 112.779  0.00  0.00     0.149 HD
ENDBRANCH   6  13
BRANCH   5  18
ATOM     18  N   LIG d   1      11.440  75.047 115.115  0.00  0.00     0.381 N 
ATOM     19  H   LIG d   1      11.841  74.554 114.342  0.00  0.00    -0.090 HD
ATOM     20  H   LIG d   1      10.661  74.514 115.459  0.00  0.00    -0.090 HD
ATOM     21  H   LIG d   1      12.118  75.160 115.835  0.00  0.00    -0.090 HD
ENDBRANCH   5  18
BRANCH   3  22
ATOM     22  C   LIG d   1       8.027  78.366 115.643  0.00  0.00     0.382 C 
ATOM     23  O   LIG d   1       7.732  79.108 116.610  0.00  0.00    -0.241 OA
ATOM     24  O   LIG d   1       7.117  77.851 114.965  0.00  0.00    -0.241 OA
ENDBRANCH   3  22
TORSDOF 7
ENDMDL
MODEL 8
REMARK VINA RESULT:      -4.3     12.477     14.914
REMARK  7 active torsions:
REMARK  status: ('A' for Active; 'I' for Inactive)
REMARK    1  A    between atoms: C_2  and  C_3 
REMARK    2  A    between atoms: C_3  and  O_6 
REMARK    3  A    between atoms: C_3  and  C_4 
REMARK    4  A    between atoms: C_7  and  O_6 
REMARK    5  A    between atoms: C_9  and  C_10 
REMARK    6  A    between atoms: N_15  and  C_14 
REMARK    7  A    between atoms: N_20  and  C_19 
REMARK       I    between atoms: C_22  and  N_20 
ROOT
ATOM      1  C   LIG d   1      11.039  75.818 115.405  0.00  0.00     0.161 C 
ATOM      2  C   LIG d   1       9.751  76.366 115.523  0.00  0.00     0.016 C 
ATOM      3  C   LIG d   1       9.452  77.718 115.239  0.00  0.00     0.038 C 
ATOM      4  C   LIG d   1      10.398  78.583 114.669  0.00  0.00     0.028 C 
ATOM      5  C   LIG d   1      11.838  78.212 115.005  0.00  0.00    -0.047 C 
ATOM      6  C   LIG d   1      12.061  76.718 114.679  0.00  0.00     0.091 C 
ENDROOT
BRANCH   1   7
ATOM      7  O   LIG d   1      10.965  74.528 114.767  0.00  0.00    -0.368 OA
BRANCH   7   8
ATOM      8  C   LIG d   1      11.401  73.398 115.562  0.00  0.00     0.119 C 
BRANCH   8   9
ATOM      9  C   LIG d   1      12.176  72.447 114.628  0.00  0.00     0.028 C 
ATOM     10  C   LIG d   1      13.695  72.506 114.860  0.00  0.00     0.006 C 
ENDBRANCH   8   9
BRANCH   8  11
ATOM     11  C   LIG d   1      10.209  72.582 116.072  0.00  0.00     0.028 C 
ATOM     12  C   LIG d   1      10.546  71.755 117.323  0.00  0.00     0.006 C 
ENDBRANCH   8  11
ENDBRANCH   7   8
ENDBRANCH   1   7
BRANCH   6  13
ATOM     13  N   LIG d   1      13.420  76.251 115.057  0.00  0.00    -0.311 N 
ATOM     14  C   LIG d   1      14.452  76.240 114.215  0.00  0.00     0.210 C 
ATOM     15  C   LIG d   1      15.760  75.701 114.802  0.00  0.00     0.109 C 
ATOM     16  O   LIG d   1      14.416  76.654 113.046  0.00  0.00    -0.276 OA
ATOM     17  H   LIG d   1      13.546  75.927 115.996  0.00  0.00     0.149 HD
ENDBRANCH   6  13
BRANCH   5  18
ATOM     18  N   LIG d   1      12.721  79.110 114.237  0.00  0.00     0.381 N 
ATOM     19  H   LIG d   1      13.675  78.838 114.365  0.00  0.00    -0.090 HD
ATOM     20  H   LIG d   1      12.611  80.047 114.582  0.00  0.00    -0.090 HD
ATOM     21  H   LIG d   1      12.484  79.075 113.270  0.00  0.00    -0.090 HD
ENDBRANCH   5  18
BRANCH   3  22
ATOM     22  C   LIG d   1       8.204  78.228 115.563  0.00  0.00     0.382 C 
ATOM     23  O   LIG d   1       7.178  77.789 114.989  0.00  0.00    -0.241 OA
ATOM     24  O   LIG d   1       8.095  79.153 116.391  0.00  0.00    -0.241 OA
ENDBRANCH   3  22
TORSDOF 7
ENDMDL
MODEL 9
REMARK VINA RESULT:      -4.2     22.047     24.642
REMARK  7 active torsions:
REMARK  status: ('A' for Active; 'I' for Inactive)
REMARK    1  A    between atoms: C_2  and  C_3 
REMARK    2  A    between atoms: C_3  and  O_6 
REMARK    3  A    between atoms: C_3  and  C_4 
REMARK    4  A    between atoms: C_7  and  O_6 
REMARK    5  A    between atoms: C_9  and  C_10 
REMARK    6  A    between atoms: N_15  and  C_14 
REMARK    7  A    between atoms: N_20  and  C_19 
REMARK       I    between atoms: C_22  and  N_20 
ROOT
ATOM      1  C   LIG d   1     -25.677  85.009 114.535  0.00  0.00     0.161 C 
ATOM      2  C   LIG d   1     -24.690  86.009 114.547  0.00  0.00     0.016 C 
ATOM      3  C   LIG d   1     -23.368  85.803 114.089  0.00  0.00     0.038 C 
ATOM      4  C   LIG d   1     -22.983  84.619 113.443  0.00  0.00     0.028 C 
ATOM      5  C   LIG d   1     -23.805  83.405 113.864  0.00  0.00    -0.047 C 
ATOM      6  C   LIG d   1     -25.307  83.745 113.731  0.00  0.00     0.091 C 
ENDROOT
BRANCH   1   7
ATOM      7  O   LIG d   1     -26.922  85.558 114.059  0.00  0.00    -0.368 OA
BRANCH   7   8
ATOM      8  C   LIG d   1     -27.049  87.000 114.123  0.00  0.00     0.119 C 
BRANCH   8   9
ATOM      9  C   LIG d   1     -28.055  87.327 115.243  0.00  0.00     0.028 C 
ATOM     10  C   LIG d   1     -27.418  88.133 116.388  0.00  0.00     0.006 C 
ENDBRANCH   8   9
BRANCH   8  11
ATOM     11  C   LIG d   1     -27.671  87.562 112.842  0.00  0.00     0.028 C 
ATOM     12  C   LIG d   1     -26.863  88.726 112.247  0.00  0.00     0.006 C 
ENDBRANCH   8  11
ENDBRANCH   7   8
ENDBRANCH   1   7
BRANCH   6  13
ATOM     13  N   LIG d   1     -26.182  82.640 114.203  0.00  0.00    -0.311 N 
ATOM     14  C   LIG d   1     -26.942  81.909 113.390  0.00  0.00     0.210 C 
ATOM     15  C   LIG d   1     -27.783  80.833 114.085  0.00  0.00     0.109 C 
ATOM     16  O   LIG d   1     -26.975  82.027 112.156  0.00  0.00    -0.276 OA
ATOM     17  H   LIG d   1     -26.192  82.455 115.187  0.00  0.00     0.149 HD
ENDBRANCH   6  13
BRANCH   5  18
ATOM     18  N   LIG d   1     -23.391  82.271 113.015  0.00  0.00     0.381 N 
ATOM     19  H   LIG d   1     -24.051  82.145 112.274  0.00  0.00    -0.090 HD
ATOM     20  H   LIG d   1     -23.380  81.435 113.573  0.00  0.00    -0.090 HD
ATOM     21  H   LIG d   1     -22.485  82.440 112.638  0.00  0.00    -0.090 HD
ENDBRANCH   5  18
BRANCH   3  22
ATOM     22  C   LIG d   1     -22.404  86.775 114.312  0.00  0.00     0.382 C 
ATOM     23  O   LIG d   1     -21.305  86.717 113.711  0.00  0.00    -0.241 OA
ATOM     24  O   LIG d   1     -22.604  87.685 115.139  0.00  0.00    -0.241 OA
ENDBRANCH   3  22
TORSDOF 7
ENDMDL
