MODEL 1
REMARK VINA RESULT:      -5.5      0.000      0.000
REMARK  7 active torsions:
REMARK  status: ('A' for Active; 'I' for Inactive)
REMARK    1  A    between atoms: C_2  and  C_3 
REMARK    2  A    between atoms: C_3  and  O_6 
REMARK    3  A    between atoms: C_3  and  C_4 
REMARK    4  A    between atoms: C_7  and  O_6 
REMARK    5  A    between atoms: C_9  and  C_10 
REMARK    6  A    between atoms: N_15  and  C_14 
REMARK    7  A    between atoms: N_20  and  C_19 
REMARK       I    between atoms: C_22  and  N_20 
ROOT
ATOM      1  C   LIG d   1      -3.095  77.018 116.021  0.00  0.00     0.161 C 
ATOM      2  C   LIG d   1      -3.314  78.002 115.042  0.00  0.00     0.016 C 
ATOM      3  C   LIG d   1      -2.403  78.274 113.995  0.00  0.00     0.038 C 
ATOM      4  C   LIG d   1      -1.274  77.473 113.768  0.00  0.00     0.028 C 
ATOM      5  C   LIG d   1      -0.752  76.791 115.028  0.00  0.00    -0.047 C 
ATOM      6  C   LIG d   1      -1.923  76.060 115.725  0.00  0.00     0.091 C 
ENDROOT
BRANCH   1   7
ATOM      7  O   LIG d   1      -4.308  76.272 116.244  0.00  0.00    -0.368 OA
BRANCH   7   8
ATOM      8  C   LIG d   1      -5.504  76.798 115.617  0.00  0.00     0.119 C 
BRANCH   8   9
ATOM      9  C   LIG d   1      -6.518  77.103 116.738  0.00  0.00     0.028 C 
ATOM     10  C   LIG d   1      -7.617  76.033 116.841  0.00  0.00     0.006 C 
ENDBRANCH   8   9
BRANCH   8  11
ATOM     11  C   LIG d   1      -6.180  75.745 114.735  0.00  0.00     0.028 C 
ATOM     12  C   LIG d   1      -5.335  74.471 114.574  0.00  0.00     0.006 C 
ENDBRANCH   8  11
ENDBRANCH   7   8
ENDBRANCH   1   7
BRANCH   6  13
ATOM     13  N   LIG d   1      -1.516  75.436 117.010  0.00  0.00    -0.311 N 
ATOM     14  C   LIG d   1      -1.226  74.142 117.137  0.00  0.00     0.210 C 
ATOM     15  C   LIG d   1      -0.849  73.700 118.555  0.00  0.00     0.109 C 
ATOM     16  O   LIG d   1      -1.213  73.325 116.204  0.00  0.00    -0.276 OA
ATOM     17  H   LIG d   1      -1.470  76.032 117.813  0.00  0.00     0.149 HD
ENDBRANCH   6  13
BRANCH   5  18
ATOM     18  N   LIG d   1       0.337  75.882 114.623  0.00  0.00     0.381 N 
ATOM     19  H   LIG d   1       1.217  76.351 114.706  0.00  0.00    -0.090 HD
ATOM     20  H   LIG d   1       0.206  75.625 113.661  0.00  0.00    -0.090 HD
ATOM     21  H   LIG d   1       0.332  75.067 115.196  0.00  0.00    -0.090 HD
ENDBRANCH   5  18
BRANCH   3  22
ATOM     22  C   LIG d   1      -2.598  79.384 113.187  0.00  0.00     0.382 C 
ATOM     23  O   LIG d   1      -3.151  80.409 113.652  0.00  0.00    -0.241 OA
ATOM     24  O   LIG d   1      -2.266  79.356 111.986  0.00  0.00    -0.241 OA
ENDBRANCH   3  22
TORSDOF 7
ENDMDL
MODEL 2
REMARK VINA RESULT:      -5.3     15.193     17.590
REMARK  7 active torsions:
REMARK  status: ('A' for Active; 'I' for Inactive)
REMARK    1  A    between atoms: C_2  and  C_3 
REMARK    2  A    between atoms: C_3  and  O_6 
REMARK    3  A    between atoms: C_3  and  C_4 
REMARK    4  A    between atoms: C_7  and  O_6 
REMARK    5  A    between atoms: C_9  and  C_10 
REMARK    6  A    between atoms: N_15  and  C_14 
REMARK    7  A    between atoms: N_20  and  C_19 
REMARK       I    between atoms: C_22  and  N_20 
ROOT
ATOM      1  C   LIG d   1     -16.537  65.199 114.415  0.00  0.00     0.161 C 
ATOM      2  C   LIG d   1     -16.147  66.192 113.501  0.00  0.00     0.016 C 
ATOM      3  C   LIG d   1     -15.160  67.164 113.782  0.00  0.00     0.038 C 
ATOM      4  C   LIG d   1     -14.382  67.116 114.948  0.00  0.00     0.028 C 
ATOM      5  C   LIG d   1     -15.086  66.435 116.117  0.00  0.00    -0.047 C 
ATOM      6  C   LIG d   1     -15.622  65.062 115.650  0.00  0.00     0.091 C 
ENDROOT
BRANCH   1   7
ATOM      7  O   LIG d   1     -16.658  63.933 113.738  0.00  0.00    -0.368 OA
BRANCH   7   8
ATOM      8  C   LIG d   1     -18.005  63.422 113.579  0.00  0.00     0.119 C 
BRANCH   8   9
ATOM      9  C   LIG d   1     -18.969  64.462 114.180  0.00  0.00     0.028 C 
ATOM     10  C   LIG d   1     -19.877  63.862 115.267  0.00  0.00     0.006 C 
ENDBRANCH   8   9
BRANCH   8  11
ATOM     11  C   LIG d   1     -18.218  62.148 114.401  0.00  0.00     0.028 C 
ATOM     12  C   LIG d   1     -16.899  61.470 114.804  0.00  0.00     0.006 C 
ENDBRANCH   8  11
ENDBRANCH   7   8
ENDBRANCH   1   7
BRANCH   6  13
ATOM     13  N   LIG d   1     -16.398  64.366 116.709  0.00  0.00    -0.311 N 
ATOM     14  C   LIG d   1     -15.861  63.485 117.552  0.00  0.00     0.210 C 
ATOM     15  C   LIG d   1     -16.842  62.869 118.554  0.00  0.00     0.109 C 
ATOM     16  O   LIG d   1     -14.659  63.180 117.586  0.00  0.00    -0.276 OA
ATOM     17  H   LIG d   1     -17.374  64.578 116.773  0.00  0.00     0.149 HD
ENDBRANCH   6  13
BRANCH   5  18
ATOM     18  N   LIG d   1     -14.115  66.330 117.223  0.00  0.00     0.381 N 
ATOM     19  H   LIG d   1     -14.272  65.484 117.732  0.00  0.00    -0.090 HD
ATOM     20  H   LIG d   1     -14.251  67.105 117.849  0.00  0.00    -0.090 HD
ATOM     21  H   LIG d   1     -13.186  66.343 116.863  0.00  0.00    -0.090 HD
ENDBRANCH   5  18
BRANCH   3  22
ATOM     22  C   LIG d   1     -14.969  68.223 112.907  0.00  0.00     0.382 C 
ATOM     23  O   LIG d   1     -14.240  69.188 113.240  0.00  0.00    -0.241 OA
ATOM     24  O   LIG d   1     -15.553  68.247 111.807  0.00  0.00    -0.241 OA
ENDBRANCH   3  22
TORSDOF 7
ENDMDL
MODEL 3
REMARK VINA RESULT:      -5.2      2.512      3.390
REMARK  7 active torsions:
REMARK  status: ('A' for Active; 'I' for Inactive)
REMARK    1  A    between atoms: C_2  and  C_3 
REMARK    2  A    between atoms: C_3  and  O_6 
REMARK    3  A    between atoms: C_3  and  C_4 
REMARK    4  A    between atoms: C_7  and  O_6 
REMARK    5  A    between atoms: C_9  and  C_10 
REMARK    6  A    between atoms: N_15  and  C_14 
REMARK    7  A    between atoms: N_20  and  C_19 
REMARK       I    between atoms: C_22  and  N_20 
ROOT
ATOM      1  C   LIG d   1      -4.627  77.005 117.194  0.00  0.00     0.161 C 
ATOM      2  C   LIG d   1      -5.477  78.096 117.445  0.00  0.00     0.016 C 
ATOM      3  C   LIG d   1      -5.157  79.428 117.096  0.00  0.00     0.038 C 
ATOM      4  C   LIG d   1      -4.024  79.742 116.330  0.00  0.00     0.028 C 
ATOM      5  C   LIG d   1      -2.886  78.740 116.492  0.00  0.00    -0.047 C 
ATOM      6  C   LIG d   1      -3.438  77.314 116.260  0.00  0.00     0.091 C 
ENDROOT
BRANCH   1   7
ATOM      7  O   LIG d   1      -5.393  75.898 116.680  0.00  0.00    -0.368 OA
BRANCH   7   8
ATOM      8  C   LIG d   1      -6.544  76.240 115.870  0.00  0.00     0.119 C 
BRANCH   8   9
ATOM      9  C   LIG d   1      -7.731  75.395 116.372  0.00  0.00     0.028 C 
ATOM     10  C   LIG d   1      -8.741  76.225 117.182  0.00  0.00     0.006 C 
ENDBRANCH   8   9
BRANCH   8  11
ATOM     11  C   LIG d   1      -6.341  75.826 114.409  0.00  0.00     0.028 C 
ATOM     12  C   LIG d   1      -5.265  74.742 114.241  0.00  0.00     0.006 C 
ENDBRANCH   8  11
ENDBRANCH   7   8
ENDBRANCH   1   7
BRANCH   6  13
ATOM     13  N   LIG d   1      -2.408  76.265 116.482  0.00  0.00    -0.311 N 
ATOM     14  C   LIG d   1      -1.685  75.729 115.501  0.00  0.00     0.210 C 
ATOM     15  C   LIG d   1      -0.693  74.649 115.945  0.00  0.00     0.109 C 
ATOM     16  O   LIG d   1      -1.747  76.068 114.310  0.00  0.00    -0.276 OA
ATOM     17  H   LIG d   1      -2.270  75.954 117.424  0.00  0.00     0.149 HD
ENDBRANCH   6  13
BRANCH   5  18
ATOM     18  N   LIG d   1      -1.826  79.111 115.537  0.00  0.00     0.381 N 
ATOM     19  H   LIG d   1      -1.367  79.944 115.848  0.00  0.00    -0.090 HD
ATOM     20  H   LIG d   1      -2.244  79.297 114.642  0.00  0.00    -0.090 HD
ATOM     21  H   LIG d   1      -1.165  78.370 115.456  0.00  0.00    -0.090 HD
ENDBRANCH   5  18
BRANCH   3  22
ATOM     22  C   LIG d   1      -5.955  80.467 117.548  0.00  0.00     0.382 C 
ATOM     23  O   LIG d   1      -5.609  81.131 118.555  0.00  0.00    -0.241 OA
ATOM     24  O   LIG d   1      -7.039  80.721 116.989  0.00  0.00    -0.241 OA
ENDBRANCH   3  22
TORSDOF 7
ENDMDL
MODEL 4
REMARK VINA RESULT:      -5.0      2.792      5.040
REMARK  7 active torsions:
REMARK  status: ('A' for Active; 'I' for Inactive)
REMARK    1  A    between atoms: C_2  and  C_3 
REMARK    2  A    between atoms: C_3  and  O_6 
REMARK    3  A    between atoms: C_3  and  C_4 
REMARK    4  A    between atoms: C_7  and  O_6 
REMARK    5  A    between atoms: C_9  and  C_10 
REMARK    6  A    between atoms: N_15  and  C_14 
REMARK    7  A    between atoms: N_20  and  C_19 
REMARK       I    between atoms: C_22  and  N_20 
ROOT
ATOM      1  C   LIG d   1      -1.652  77.085 114.610  0.00  0.00     0.161 C 
ATOM      2  C   LIG d   1      -0.489  77.779 114.983  0.00  0.00     0.016 C 
ATOM      3  C   LIG d   1      -0.391  78.558 116.159  0.00  0.00     0.038 C 
ATOM      4  C   LIG d   1      -1.408  78.572 117.125  0.00  0.00     0.028 C 
ATOM      5  C   LIG d   1      -2.793  78.292 116.551  0.00  0.00    -0.047 C 
ATOM      6  C   LIG d   1      -2.733  76.999 115.707  0.00  0.00     0.091 C 
ENDROOT
BRANCH   1   7
ATOM      7  O   LIG d   1      -1.305  75.766 114.144  0.00  0.00    -0.368 OA
BRANCH   7   8
ATOM      8  C   LIG d   1      -0.137  75.161 114.753  0.00  0.00     0.119 C 
BRANCH   8   9
ATOM      9  C   LIG d   1       0.604  74.376 113.654  0.00  0.00     0.028 C 
ATOM     10  C   LIG d   1       0.145  72.910 113.569  0.00  0.00     0.006 C 
ENDBRANCH   8   9
BRANCH   8  11
ATOM     11  C   LIG d   1      -0.534  74.117 115.800  0.00  0.00     0.028 C 
ATOM     12  C   LIG d   1      -0.316  74.605 117.241  0.00  0.00     0.006 C 
ENDBRANCH   8  11
ENDBRANCH   7   8
ENDBRANCH   1   7
BRANCH   6  13
ATOM     13  N   LIG d   1      -4.027  76.698 115.040  0.00  0.00    -0.311 N 
ATOM     14  C   LIG d   1      -4.597  75.494 115.055  0.00  0.00     0.210 C 
ATOM     15  C   LIG d   1      -5.920  75.395 114.289  0.00  0.00     0.109 C 
ATOM     16  O   LIG d   1      -4.150  74.507 115.658  0.00  0.00    -0.276 OA
ATOM     17  H   LIG d   1      -4.475  77.449 114.553  0.00  0.00     0.149 HD
ENDBRANCH   6  13
BRANCH   5  18
ATOM     18  N   LIG d   1      -3.734  78.201 117.683  0.00  0.00     0.381 N 
ATOM     19  H   LIG d   1      -3.675  77.294 118.101  0.00  0.00    -0.090 HD
ATOM     20  H   LIG d   1      -4.670  78.329 117.339  0.00  0.00    -0.090 HD
ATOM     21  H   LIG d   1      -3.523  78.901 118.360  0.00  0.00    -0.090 HD
ENDBRANCH   5  18
BRANCH   3  22
ATOM     22  C   LIG d   1       0.719  79.365 116.359  0.00  0.00     0.382 C 
ATOM     23  O   LIG d   1       0.985  80.279 115.541  0.00  0.00    -0.241 OA
ATOM     24  O   LIG d   1       1.482  79.162 117.322  0.00  0.00    -0.241 OA
ENDBRANCH   3  22
TORSDOF 7
ENDMDL
MODEL 5
REMARK VINA RESULT:      -4.9      9.202     11.208
REMARK  7 active torsions:
REMARK  status: ('A' for Active; 'I' for Inactive)
REMARK    1  A    between atoms: C_2  and  C_3 
REMARK    2  A    between atoms: C_3  and  O_6 
REMARK    3  A    between atoms: C_3  and  C_4 
REMARK    4  A    between atoms: C_7  and  O_6 
REMARK    5  A    between atoms: C_9  and  C_10 
REMARK    6  A    between atoms: N_15  and  C_14 
REMARK    7  A    between atoms: N_20  and  C_19 
REMARK       I    between atoms: C_22  and  N_20 
ROOT
ATOM      1  C   LIG d   1       2.423  85.571 114.891  0.00  0.00     0.161 C 
ATOM      2  C   LIG d   1       2.523  86.788 114.196  0.00  0.00     0.016 C 
ATOM      3  C   LIG d   1       3.669  87.615 114.235  0.00  0.00     0.038 C 
ATOM      4  C   LIG d   1       4.859  87.205 114.855  0.00  0.00     0.028 C 
ATOM      5  C   LIG d   1       4.638  86.213 115.992  0.00  0.00    -0.047 C 
ATOM      6  C   LIG d   1       3.751  85.054 115.482  0.00  0.00     0.091 C 
ENDROOT
BRANCH   1   7
ATOM      7  O   LIG d   1       1.830  84.571 114.040  0.00  0.00    -0.368 OA
BRANCH   7   8
ATOM      8  C   LIG d   1       1.772  84.887 112.627  0.00  0.00     0.119 C 
BRANCH   8   9
ATOM      9  C   LIG d   1       0.325  84.643 112.157  0.00  0.00     0.028 C 
ATOM     10  C   LIG d   1      -0.515  85.931 112.150  0.00  0.00     0.006 C 
ENDBRANCH   8   9
BRANCH   8  11
ATOM     11  C   LIG d   1       2.634  83.925 111.805  0.00  0.00     0.028 C 
ATOM     12  C   LIG d   1       4.138  84.211 111.936  0.00  0.00     0.006 C 
ENDBRANCH   8  11
ENDBRANCH   7   8
ENDBRANCH   1   7
BRANCH   6  13
ATOM     13  N   LIG d   1       3.417  84.081 116.555  0.00  0.00    -0.311 N 
ATOM     14  C   LIG d   1       3.672  82.777 116.467  0.00  0.00     0.210 C 
ATOM     15  C   LIG d   1       3.228  81.949 117.677  0.00  0.00     0.109 C 
ATOM     16  O   LIG d   1       4.251  82.232 115.516  0.00  0.00    -0.276 OA
ATOM     17  H   LIG d   1       2.973  84.443 117.376  0.00  0.00     0.149 HD
ENDBRANCH   6  13
BRANCH   5  18
ATOM     18  N   LIG d   1       5.965  85.765 116.456  0.00  0.00     0.381 N 
ATOM     19  H   LIG d   1       5.864  85.205 117.279  0.00  0.00    -0.090 HD
ATOM     20  H   LIG d   1       6.517  86.571 116.688  0.00  0.00    -0.090 HD
ATOM     21  H   LIG d   1       6.416  85.238 115.741  0.00  0.00    -0.090 HD
ENDBRANCH   5  18
BRANCH   3  22
ATOM     22  C   LIG d   1       3.619  88.886 113.683  0.00  0.00     0.382 C 
ATOM     23  O   LIG d   1       3.208  89.043 112.508  0.00  0.00    -0.241 OA
ATOM     24  O   LIG d   1       4.020  89.872 114.330  0.00  0.00    -0.241 OA
ENDBRANCH   3  22
TORSDOF 7
ENDMDL
MODEL 6
REMARK VINA RESULT:      -4.6     12.553     14.611
REMARK  7 active torsions:
REMARK  status: ('A' for Active; 'I' for Inactive)
REMARK    1  A    between atoms: C_2  and  C_3 
REMARK    2  A    between atoms: C_3  and  O_6 
REMARK    3  A    between atoms: C_3  and  C_4 
REMARK    4  A    between atoms: C_7  and  O_6 
REMARK    5  A    between atoms: C_9  and  C_10 
REMARK    6  A    between atoms: N_15  and  C_14 
REMARK    7  A    between atoms: N_20  and  C_19 
REMARK       I    between atoms: C_22  and  N_20 
ROOT
ATOM      1  C   LIG d   1       4.463  87.447 115.968  0.00  0.00     0.161 C 
ATOM      2  C   LIG d   1       3.429  88.398 115.965  0.00  0.00     0.016 C 
ATOM      3  C   LIG d   1       3.585  89.719 116.446  0.00  0.00     0.038 C 
ATOM      4  C   LIG d   1       4.836  90.226 116.826  0.00  0.00     0.028 C 
ATOM      5  C   LIG d   1       5.801  89.153 117.319  0.00  0.00    -0.047 C 
ATOM      6  C   LIG d   1       5.864  88.016 116.275  0.00  0.00     0.091 C 
ENDROOT
BRANCH   1   7
ATOM      7  O   LIG d   1       4.474  86.735 114.714  0.00  0.00    -0.368 OA
BRANCH   7   8
ATOM      8  C   LIG d   1       3.856  87.411 113.592  0.00  0.00     0.119 C 
BRANCH   8   9
ATOM      9  C   LIG d   1       3.075  86.353 112.788  0.00  0.00     0.028 C 
ATOM     10  C   LIG d   1       3.997  85.458 111.943  0.00  0.00     0.006 C 
ENDBRANCH   8   9
BRANCH   8  11
ATOM     11  C   LIG d   1       4.908  87.960 112.624  0.00  0.00     0.028 C 
ATOM     12  C   LIG d   1       5.342  89.394 112.966  0.00  0.00     0.006 C 
ENDBRANCH   8  11
ENDBRANCH   7   8
ENDBRANCH   1   7
BRANCH   6  13
ATOM     13  N   LIG d   1       6.721  86.886 116.718  0.00  0.00    -0.311 N 
ATOM     14  C   LIG d   1       8.024  86.807 116.455  0.00  0.00     0.210 C 
ATOM     15  C   LIG d   1       8.716  85.548 116.987  0.00  0.00     0.109 C 
ATOM     16  O   LIG d   1       8.680  87.676 115.860  0.00  0.00    -0.276 OA
ATOM     17  H   LIG d   1       6.277  86.152 117.234  0.00  0.00     0.149 HD
ENDBRANCH   6  13
BRANCH   5  18
ATOM     18  N   LIG d   1       7.107  89.800 117.550  0.00  0.00     0.381 N 
ATOM     19  H   LIG d   1       7.027  90.786 117.402  0.00  0.00    -0.090 HD
ATOM     20  H   LIG d   1       7.771  89.435 116.890  0.00  0.00    -0.090 HD
ATOM     21  H   LIG d   1       7.417  89.620 118.479  0.00  0.00    -0.090 HD
ENDBRANCH   5  18
BRANCH   3  22
ATOM     22  C   LIG d   1       2.472  90.534 116.589  0.00  0.00     0.382 C 
ATOM     23  O   LIG d   1       2.593  91.676 117.094  0.00  0.00    -0.241 OA
ATOM     24  O   LIG d   1       1.343  90.125 116.260  0.00  0.00    -0.241 OA
ENDBRANCH   3  22
TORSDOF 7
ENDMDL
MODEL 7
REMARK VINA RESULT:      -4.5      2.203      4.854
REMARK  7 active torsions:
REMARK  status: ('A' for Active; 'I' for Inactive)
REMARK    1  A    between atoms: C_2  and  C_3 
REMARK    2  A    between atoms: C_3  and  O_6 
REMARK    3  A    between atoms: C_3  and  C_4 
REMARK    4  A    between atoms: C_7  and  O_6 
REMARK    5  A    between atoms: C_9  and  C_10 
REMARK    6  A    between atoms: N_15  and  C_14 
REMARK    7  A    between atoms: N_20  and  C_19 
REMARK       I    between atoms: C_22  and  N_20 
ROOT
ATOM      1  C   LIG d   1      -1.427  76.734 114.153  0.00  0.00     0.161 C 
ATOM      2  C   LIG d   1      -2.788  76.925 114.444  0.00  0.00     0.016 C 
ATOM      3  C   LIG d   1      -3.523  76.085 115.312  0.00  0.00     0.038 C 
ATOM      4  C   LIG d   1      -2.906  75.079 116.070  0.00  0.00     0.028 C 
ATOM      5  C   LIG d   1      -1.637  74.529 115.427  0.00  0.00    -0.047 C 
ATOM      6  C   LIG d   1      -0.710  75.709 115.057  0.00  0.00     0.091 C 
ENDROOT
BRANCH   1   7
ATOM      7  O   LIG d   1      -0.738  78.000 114.187  0.00  0.00    -0.368 OA
BRANCH   7   8
ATOM      8  C   LIG d   1      -1.470  79.109 114.764  0.00  0.00     0.119 C 
BRANCH   8   9
ATOM      9  C   LIG d   1      -1.369  80.291 113.780  0.00  0.00     0.028 C 
ATOM     10  C   LIG d   1      -1.604  79.863 112.322  0.00  0.00     0.006 C 
ENDBRANCH   8   9
BRANCH   8  11
ATOM     11  C   LIG d   1      -0.811  79.599 116.056  0.00  0.00     0.028 C 
ATOM     12  C   LIG d   1       0.724  79.610 115.976  0.00  0.00     0.006 C 
ENDBRANCH   8  11
ENDBRANCH   7   8
ENDBRANCH   1   7
BRANCH   6  13
ATOM     13  N   LIG d   1       0.517  75.265 114.346  0.00  0.00    -0.311 N 
ATOM     14  C   LIG d   1       0.549  74.219 113.521  0.00  0.00     0.210 C 
ATOM     15  C   LIG d   1       1.921  73.920 112.909  0.00  0.00     0.109 C 
ATOM     16  O   LIG d   1      -0.436  73.531 113.214  0.00  0.00    -0.276 OA
ATOM     17  H   LIG d   1       1.356  75.786 114.514  0.00  0.00     0.149 HD
ENDBRANCH   6  13
BRANCH   5  18
ATOM     18  N   LIG d   1      -1.023  73.590 116.385  0.00  0.00     0.381 N 
ATOM     19  H   LIG d   1      -0.308  74.057 116.905  0.00  0.00    -0.090 HD
ATOM     20  H   LIG d   1      -0.600  72.835 115.874  0.00  0.00    -0.090 HD
ATOM     21  H   LIG d   1      -1.717  73.234 117.005  0.00  0.00    -0.090 HD
ENDBRANCH   5  18
BRANCH   3  22
ATOM     22  C   LIG d   1      -4.901  76.222 115.397  0.00  0.00     0.382 C 
ATOM     23  O   LIG d   1      -5.451  76.342 116.518  0.00  0.00    -0.241 OA
ATOM     24  O   LIG d   1      -5.604  76.183 114.369  0.00  0.00    -0.241 OA
ENDBRANCH   3  22
TORSDOF 7
ENDMDL
MODEL 8
REMARK VINA RESULT:      -4.5      2.548      4.897
REMARK  7 active torsions:
REMARK  status: ('A' for Active; 'I' for Inactive)
REMARK    1  A    between atoms: C_2  and  C_3 
REMARK    2  A    between atoms: C_3  and  O_6 
REMARK    3  A    between atoms: C_3  and  C_4 
REMARK    4  A    between atoms: C_7  and  O_6 
REMARK    5  A    between atoms: C_9  and  C_10 
REMARK    6  A    between atoms: N_15  and  C_14 
REMARK    7  A    between atoms: N_20  and  C_19 
REMARK       I    between atoms: C_22  and  N_20 
ROOT
ATOM      1  C   LIG d   1      -2.280  77.286 116.319  0.00  0.00     0.161 C 
ATOM      2  C   LIG d   1      -3.217  78.253 116.720  0.00  0.00     0.016 C 
ATOM      3  C   LIG d   1      -4.614  78.043 116.686  0.00  0.00     0.038 C 
ATOM      4  C   LIG d   1      -5.169  76.789 116.390  0.00  0.00     0.028 C 
ATOM      5  C   LIG d   1      -4.282  75.932 115.492  0.00  0.00    -0.047 C 
ATOM      6  C   LIG d   1      -2.862  75.874 116.098  0.00  0.00     0.091 C 
ENDROOT
BRANCH   1   7
ATOM      7  O   LIG d   1      -1.193  77.238 117.265  0.00  0.00    -0.368 OA
BRANCH   7   8
ATOM      8  C   LIG d   1       0.128  77.506 116.732  0.00  0.00     0.119 C 
BRANCH   8   9
ATOM      9  C   LIG d   1       1.153  76.897 117.708  0.00  0.00     0.028 C 
ATOM     10  C   LIG d   1       0.628  75.625 118.394  0.00  0.00     0.006 C 
ENDBRANCH   8   9
BRANCH   8  11
ATOM     11  C   LIG d   1       0.427  79.008 116.713  0.00  0.00     0.028 C 
ATOM     12  C   LIG d   1       0.369  79.609 115.300  0.00  0.00     0.006 C 
ENDBRANCH   8  11
ENDBRANCH   7   8
ENDBRANCH   1   7
BRANCH   6  13
ATOM     13  N   LIG d   1      -1.909  75.124 115.239  0.00  0.00    -0.311 N 
ATOM     14  C   LIG d   1      -1.310  73.997 115.619  0.00  0.00     0.210 C 
ATOM     15  C   LIG d   1      -0.349  73.396 114.588  0.00  0.00     0.109 C 
ATOM     16  O   LIG d   1      -1.507  73.421 116.699  0.00  0.00    -0.276 OA
ATOM     17  H   LIG d   1      -1.715  75.505 114.333  0.00  0.00     0.149 HD
ENDBRANCH   6  13
BRANCH   5  18
ATOM     18  N   LIG d   1      -4.916  74.605 115.377  0.00  0.00     0.381 N 
ATOM     19  H   LIG d   1      -4.564  73.998 116.091  0.00  0.00    -0.090 HD
ATOM     20  H   LIG d   1      -4.682  74.209 114.483  0.00  0.00    -0.090 HD
ATOM     21  H   LIG d   1      -5.905  74.691 115.462  0.00  0.00    -0.090 HD
ENDBRANCH   5  18
BRANCH   3  22
ATOM     22  C   LIG d   1      -5.475  79.107 116.912  0.00  0.00     0.382 C 
ATOM     23  O   LIG d   1      -6.689  78.893 117.145  0.00  0.00    -0.241 OA
ATOM     24  O   LIG d   1      -5.061  80.280 116.844  0.00  0.00    -0.241 OA
ENDBRANCH   3  22
TORSDOF 7
ENDMDL
MODEL 9
REMARK VINA RESULT:      -4.4     11.253     13.586
REMARK  7 active torsions:
REMARK  status: ('A' for Active; 'I' for Inactive)
REMARK    1  A    between atoms: C_2  and  C_3 
REMARK    2  A    between atoms: C_3  and  O_6 
REMARK    3  A    between atoms: C_3  and  C_4 
REMARK    4  A    between atoms: C_7  and  O_6 
REMARK    5  A    between atoms: C_9  and  C_10 
REMARK    6  A    between atoms: N_15  and  C_14 
REMARK    7  A    between atoms: N_20  and  C_19 
REMARK       I    between atoms: C_22  and  N_20 
ROOT
ATOM      1  C   LIG d   1       2.666  87.788 115.800  0.00  0.00     0.161 C 
ATOM      2  C   LIG d   1       2.606  89.186 115.926  0.00  0.00     0.016 C 
ATOM      3  C   LIG d   1       3.455  89.927 116.780  0.00  0.00     0.038 C 
ATOM      4  C   LIG d   1       4.529  89.332 117.457  0.00  0.00     0.028 C 
ATOM      5  C   LIG d   1       4.312  87.852 117.754  0.00  0.00    -0.047 C 
ATOM      6  C   LIG d   1       3.904  87.133 116.447  0.00  0.00     0.091 C 
ENDROOT
BRANCH   1   7
ATOM      7  O   LIG d   1       2.572  87.418 114.411  0.00  0.00    -0.368 OA
BRANCH   7   8
ATOM      8  C   LIG d   1       3.828  87.226 113.715  0.00  0.00     0.119 C 
BRANCH   8   9
ATOM      9  C   LIG d   1       4.009  88.414 112.750  0.00  0.00     0.028 C 
ATOM     10  C   LIG d   1       5.086  89.401 113.228  0.00  0.00     0.006 C 
ENDBRANCH   8   9
BRANCH   8  11
ATOM     11  C   LIG d   1       3.788  85.981 112.824  0.00  0.00     0.028 C 
ATOM     12  C   LIG d   1       2.674  85.000 113.220  0.00  0.00     0.006 C 
ENDBRANCH   8  11
ENDBRANCH   7   8
ENDBRANCH   1   7
BRANCH   6  13
ATOM     13  N   LIG d   1       3.591  85.696 116.665  0.00  0.00    -0.311 N 
ATOM     14  C   LIG d   1       4.472  84.716 116.471  0.00  0.00     0.210 C 
ATOM     15  C   LIG d   1       3.938  83.305 116.734  0.00  0.00     0.109 C 
ATOM     16  O   LIG d   1       5.655  84.885 116.138  0.00  0.00    -0.276 OA
ATOM     17  H   LIG d   1       2.663  85.472 116.966  0.00  0.00     0.149 HD
ENDBRANCH   6  13
BRANCH   5  18
ATOM     18  N   LIG d   1       5.561  87.326 118.337  0.00  0.00     0.381 N 
ATOM     19  H   LIG d   1       6.103  86.874 117.627  0.00  0.00    -0.090 HD
ATOM     20  H   LIG d   1       5.331  86.645 119.039  0.00  0.00    -0.090 HD
ATOM     21  H   LIG d   1       6.086  88.069 118.743  0.00  0.00    -0.090 HD
ENDBRANCH   5  18
BRANCH   3  22
ATOM     22  C   LIG d   1       3.207  91.275 116.993  0.00  0.00     0.382 C 
ATOM     23  O   LIG d   1       4.152  92.100 116.954  0.00  0.00    -0.241 OA
ATOM     24  O   LIG d   1       2.059  91.670 117.268  0.00  0.00    -0.241 OA
ENDBRANCH   3  22
TORSDOF 7
ENDMDL
