MODEL 1
REMARK VINA RESULT:      -4.8      0.000      0.000
REMARK  7 active torsions:
REMARK  status: ('A' for Active; 'I' for Inactive)
REMARK    1  A    between atoms: C_2  and  C_3 
REMARK    2  A    between atoms: C_3  and  O_6 
REMARK    3  A    between atoms: C_3  and  C_4 
REMARK    4  A    between atoms: C_7  and  O_6 
REMARK    5  A    between atoms: C_9  and  C_10 
REMARK    6  A    between atoms: N_15  and  C_14 
REMARK    7  A    between atoms: N_20  and  C_19 
REMARK       I    between atoms: C_22  and  N_20 
ROOT
ATOM      1  C   LIG d   1      -4.705  76.163 117.650  0.00  0.00     0.161 C 
ATOM      2  C   LIG d   1      -5.853  76.971 117.684  0.00  0.00     0.016 C 
ATOM      3  C   LIG d   1      -5.882  78.303 117.210  0.00  0.00     0.038 C 
ATOM      4  C   LIG d   1      -4.797  78.869 116.525  0.00  0.00     0.028 C 
ATOM      5  C   LIG d   1      -3.452  78.265 116.916  0.00  0.00    -0.047 C 
ATOM      6  C   LIG d   1      -3.543  76.726 116.806  0.00  0.00     0.091 C 
ENDROOT
BRANCH   1   7
ATOM      7  O   LIG d   1      -5.053  74.838 117.202  0.00  0.00    -0.368 OA
BRANCH   7   8
ATOM      8  C   LIG d   1      -6.160  74.750 116.271  0.00  0.00     0.119 C 
BRANCH   8   9
ATOM      9  C   LIG d   1      -6.827  73.376 116.473  0.00  0.00     0.028 C 
ATOM     10  C   LIG d   1      -7.853  73.384 117.619  0.00  0.00     0.006 C 
ENDBRANCH   8   9
BRANCH   8  11
ATOM     11  C   LIG d   1      -5.669  74.754 114.820  0.00  0.00     0.028 C 
ATOM     12  C   LIG d   1      -5.943  76.084 114.101  0.00  0.00     0.006 C 
ENDBRANCH   8  11
ENDBRANCH   7   8
ENDBRANCH   1   7
BRANCH   6  13
ATOM     13  N   LIG d   1      -2.295  76.052 117.251  0.00  0.00    -0.311 N 
ATOM     14  C   LIG d   1      -1.700  75.081 116.560  0.00  0.00     0.210 C 
ATOM     15  C   LIG d   1      -0.435  74.508 117.208  0.00  0.00     0.109 C 
ATOM     16  O   LIG d   1      -2.081  74.662 115.457  0.00  0.00    -0.276 OA
ATOM     17  H   LIG d   1      -1.900  76.351 118.121  0.00  0.00     0.149 HD
ENDBRANCH   6  13
BRANCH   5  18
ATOM     18  N   LIG d   1      -2.427  78.849 116.030  0.00  0.00     0.381 N 
ATOM     19  H   LIG d   1      -1.544  78.866 116.499  0.00  0.00    -0.090 HD
ATOM     20  H   LIG d   1      -2.687  79.795 115.811  0.00  0.00    -0.090 HD
ATOM     21  H   LIG d   1      -2.356  78.314 115.192  0.00  0.00    -0.090 HD
ENDBRANCH   5  18
BRANCH   3  22
ATOM     22  C   LIG d   1      -6.993  79.095 117.454  0.00  0.00     0.382 C 
ATOM     23  O   LIG d   1      -8.058  78.573 117.863  0.00  0.00    -0.241 OA
ATOM     24  O   LIG d   1      -6.958  80.320 117.228  0.00  0.00    -0.241 OA
ENDBRANCH   3  22
TORSDOF 7
ENDMDL
MODEL 2
REMARK VINA RESULT:      -4.7     20.270     22.882
REMARK  7 active torsions:
REMARK  status: ('A' for Active; 'I' for Inactive)
REMARK    1  A    between atoms: C_2  and  C_3 
REMARK    2  A    between atoms: C_3  and  O_6 
REMARK    3  A    between atoms: C_3  and  C_4 
REMARK    4  A    between atoms: C_7  and  O_6 
REMARK    5  A    between atoms: C_9  and  C_10 
REMARK    6  A    between atoms: N_15  and  C_14 
REMARK    7  A    between atoms: N_20  and  C_19 
REMARK       I    between atoms: C_22  and  N_20 
ROOT
ATOM      1  C   LIG d   1     -25.614  85.203 114.283  0.00  0.00     0.161 C 
ATOM      2  C   LIG d   1     -24.613  86.189 114.274  0.00  0.00     0.016 C 
ATOM      3  C   LIG d   1     -23.288  85.949 113.843  0.00  0.00     0.038 C 
ATOM      4  C   LIG d   1     -22.911  84.737 113.245  0.00  0.00     0.028 C 
ATOM      5  C   LIG d   1     -23.755  83.551 113.697  0.00  0.00    -0.047 C 
ATOM      6  C   LIG d   1     -25.250  83.906 113.530  0.00  0.00     0.091 C 
ENDROOT
BRANCH   1   7
ATOM      7  O   LIG d   1     -26.844  85.751 113.770  0.00  0.00    -0.368 OA
BRANCH   7   8
ATOM      8  C   LIG d   1     -26.944  85.856 112.328  0.00  0.00     0.119 C 
BRANCH   8   9
ATOM      9  C   LIG d   1     -27.127  87.347 111.984  0.00  0.00     0.028 C 
ATOM     10  C   LIG d   1     -27.654  88.164 113.175  0.00  0.00     0.006 C 
ENDBRANCH   8   9
BRANCH   8  11
ATOM     11  C   LIG d   1     -28.205  85.161 111.805  0.00  0.00     0.028 C 
ATOM     12  C   LIG d   1     -29.135  84.687 112.933  0.00  0.00     0.006 C 
ENDBRANCH   8  11
ENDBRANCH   7   8
ENDBRANCH   1   7
BRANCH   6  13
ATOM     13  N   LIG d   1     -26.147  82.831 114.028  0.00  0.00    -0.311 N 
ATOM     14  C   LIG d   1     -26.695  81.909 113.238  0.00  0.00     0.210 C 
ATOM     15  C   LIG d   1     -27.605  80.904 113.952  0.00  0.00     0.109 C 
ATOM     16  O   LIG d   1     -26.489  81.809 112.019  0.00  0.00    -0.276 OA
ATOM     17  H   LIG d   1     -26.344  82.819 115.010  0.00  0.00     0.149 HD
ENDBRANCH   6  13
BRANCH   5  18
ATOM     18  N   LIG d   1     -23.346  82.382 112.895  0.00  0.00     0.381 N 
ATOM     19  H   LIG d   1     -22.437  82.077 113.180  0.00  0.00    -0.090 HD
ATOM     20  H   LIG d   1     -23.300  82.651 111.928  0.00  0.00    -0.090 HD
ATOM     21  H   LIG d   1     -24.003  81.642 113.010  0.00  0.00    -0.090 HD
ENDBRANCH   5  18
BRANCH   3  22
ATOM     22  C   LIG d   1     -22.314  86.915 114.045  0.00  0.00     0.382 C 
ATOM     23  O   LIG d   1     -22.612  87.998 114.604  0.00  0.00    -0.241 OA
ATOM     24  O   LIG d   1     -21.151  86.735 113.637  0.00  0.00    -0.241 OA
ENDBRANCH   3  22
TORSDOF 7
ENDMDL
MODEL 3
REMARK VINA RESULT:      -4.6      2.627      4.919
REMARK  7 active torsions:
REMARK  status: ('A' for Active; 'I' for Inactive)
REMARK    1  A    between atoms: C_2  and  C_3 
REMARK    2  A    between atoms: C_3  and  O_6 
REMARK    3  A    between atoms: C_3  and  C_4 
REMARK    4  A    between atoms: C_7  and  O_6 
REMARK    5  A    between atoms: C_9  and  C_10 
REMARK    6  A    between atoms: N_15  and  C_14 
REMARK    7  A    between atoms: N_20  and  C_19 
REMARK       I    between atoms: C_22  and  N_20 
ROOT
ATOM      1  C   LIG d   1      -3.057  75.278 115.526  0.00  0.00     0.161 C 
ATOM      2  C   LIG d   1      -2.625  74.457 116.581  0.00  0.00     0.016 C 
ATOM      3  C   LIG d   1      -1.403  74.648 117.265  0.00  0.00     0.038 C 
ATOM      4  C   LIG d   1      -0.594  75.772 117.039  0.00  0.00     0.028 C 
ATOM      5  C   LIG d   1      -0.741  76.351 115.636  0.00  0.00    -0.047 C 
ATOM      6  C   LIG d   1      -2.241  76.575 115.339  0.00  0.00     0.091 C 
ENDROOT
BRANCH   1   7
ATOM      7  O   LIG d   1      -4.456  75.586 115.687  0.00  0.00    -0.368 OA
BRANCH   7   8
ATOM      8  C   LIG d   1      -5.252  74.591 116.378  0.00  0.00     0.119 C 
BRANCH   8   9
ATOM      9  C   LIG d   1      -6.017  73.786 115.309  0.00  0.00     0.028 C 
ATOM     10  C   LIG d   1      -6.849  72.646 115.918  0.00  0.00     0.006 C 
ENDBRANCH   8   9
BRANCH   8  11
ATOM     11  C   LIG d   1      -6.333  75.245 117.243  0.00  0.00     0.028 C 
ATOM     12  C   LIG d   1      -6.890  76.537 116.626  0.00  0.00     0.006 C 
ENDBRANCH   8  11
ENDBRANCH   7   8
ENDBRANCH   1   7
BRANCH   6  13
ATOM     13  N   LIG d   1      -2.480  77.061 113.955  0.00  0.00    -0.311 N 
ATOM     14  C   LIG d   1      -2.580  78.350 113.638  0.00  0.00     0.210 C 
ATOM     15  C   LIG d   1      -2.846  78.633 112.157  0.00  0.00     0.109 C 
ATOM     16  O   LIG d   1      -2.441  79.288 114.438  0.00  0.00    -0.276 OA
ATOM     17  H   LIG d   1      -2.574  76.368 113.238  0.00  0.00     0.149 HD
ENDBRANCH   6  13
BRANCH   5  18
ATOM     18  N   LIG d   1       0.051  77.595 115.582  0.00  0.00     0.381 N 
ATOM     19  H   LIG d   1       0.430  77.715 114.664  0.00  0.00    -0.090 HD
ATOM     20  H   LIG d   1       0.814  77.522 116.231  0.00  0.00    -0.090 HD
ATOM     21  H   LIG d   1      -0.523  78.374 115.817  0.00  0.00    -0.090 HD
ENDBRANCH   5  18
BRANCH   3  22
ATOM     22  C   LIG d   1      -0.959  73.686 118.160  0.00  0.00     0.382 C 
ATOM     23  O   LIG d   1       0.232  73.700 118.555  0.00  0.00    -0.241 OA
ATOM     24  O   LIG d   1      -1.722  72.779 118.542  0.00  0.00    -0.241 OA
ENDBRANCH   3  22
TORSDOF 7
ENDMDL
MODEL 4
REMARK VINA RESULT:      -4.5     12.610     14.598
REMARK  7 active torsions:
REMARK  status: ('A' for Active; 'I' for Inactive)
REMARK    1  A    between atoms: C_2  and  C_3 
REMARK    2  A    between atoms: C_3  and  O_6 
REMARK    3  A    between atoms: C_3  and  C_4 
REMARK    4  A    between atoms: C_7  and  O_6 
REMARK    5  A    between atoms: C_9  and  C_10 
REMARK    6  A    between atoms: N_15  and  C_14 
REMARK    7  A    between atoms: N_20  and  C_19 
REMARK       I    between atoms: C_22  and  N_20 
ROOT
ATOM      1  C   LIG d   1       3.119  88.119 115.565  0.00  0.00     0.161 C 
ATOM      2  C   LIG d   1       3.174  89.328 116.279  0.00  0.00     0.016 C 
ATOM      3  C   LIG d   1       4.184  90.299 116.088  0.00  0.00     0.038 C 
ATOM      4  C   LIG d   1       5.129  90.193 115.058  0.00  0.00     0.028 C 
ATOM      5  C   LIG d   1       5.417  88.754 114.645  0.00  0.00    -0.047 C 
ATOM      6  C   LIG d   1       4.078  88.036 114.359  0.00  0.00     0.091 C 
ENDROOT
BRANCH   1   7
ATOM      7  O   LIG d   1       1.765  87.859 115.147  0.00  0.00    -0.368 OA
BRANCH   7   8
ATOM      8  C   LIG d   1       1.156  86.653 115.672  0.00  0.00     0.119 C 
BRANCH   8   9
ATOM      9  C   LIG d   1       2.040  86.155 116.831  0.00  0.00     0.028 C 
ATOM     10  C   LIG d   1       1.258  86.019 118.149  0.00  0.00     0.006 C 
ENDBRANCH   8   9
BRANCH   8  11
ATOM     11  C   LIG d   1       1.172  85.525 114.636  0.00  0.00     0.028 C 
ATOM     12  C   LIG d   1       0.598  85.956 113.277  0.00  0.00     0.006 C 
ENDBRANCH   8  11
ENDBRANCH   7   8
ENDBRANCH   1   7
BRANCH   6  13
ATOM     13  N   LIG d   1       4.264  86.599 114.030  0.00  0.00    -0.311 N 
ATOM     14  C   LIG d   1       4.518  86.155 112.800  0.00  0.00     0.210 C 
ATOM     15  C   LIG d   1       4.655  84.634 112.677  0.00  0.00     0.109 C 
ATOM     16  O   LIG d   1       4.676  86.879 111.806  0.00  0.00    -0.276 OA
ATOM     17  H   LIG d   1       4.184  85.945 114.784  0.00  0.00     0.149 HD
ENDBRANCH   6  13
BRANCH   5  18
ATOM     18  N   LIG d   1       6.312  88.796 113.473  0.00  0.00     0.381 N 
ATOM     19  H   LIG d   1       6.830  89.652 113.474  0.00  0.00    -0.090 HD
ATOM     20  H   LIG d   1       5.755  88.766 112.637  0.00  0.00    -0.090 HD
ATOM     21  H   LIG d   1       6.937  88.021 113.493  0.00  0.00    -0.090 HD
ENDBRANCH   5  18
BRANCH   3  22
ATOM     22  C   LIG d   1       4.278  91.372 116.962  0.00  0.00     0.382 C 
ATOM     23  O   LIG d   1       3.480  92.335 116.861  0.00  0.00    -0.241 OA
ATOM     24  O   LIG d   1       5.180  91.410 117.820  0.00  0.00    -0.241 OA
ENDBRANCH   3  22
TORSDOF 7
ENDMDL
MODEL 5
REMARK VINA RESULT:      -4.5     10.650     12.881
REMARK  7 active torsions:
REMARK  status: ('A' for Active; 'I' for Inactive)
REMARK    1  A    between atoms: C_2  and  C_3 
REMARK    2  A    between atoms: C_3  and  O_6 
REMARK    3  A    between atoms: C_3  and  C_4 
REMARK    4  A    between atoms: C_7  and  O_6 
REMARK    5  A    between atoms: C_9  and  C_10 
REMARK    6  A    between atoms: N_15  and  C_14 
REMARK    7  A    between atoms: N_20  and  C_19 
REMARK       I    between atoms: C_22  and  N_20 
ROOT
ATOM      1  C   LIG d   1       4.255  84.624 113.005  0.00  0.00     0.161 C 
ATOM      2  C   LIG d   1       4.651  85.959 113.193  0.00  0.00     0.016 C 
ATOM      3  C   LIG d   1       3.763  87.055 113.097  0.00  0.00     0.038 C 
ATOM      4  C   LIG d   1       2.379  86.877 112.955  0.00  0.00     0.028 C 
ATOM      5  C   LIG d   1       2.004  85.574 112.257  0.00  0.00    -0.047 C 
ATOM      6  C   LIG d   1       2.729  84.403 112.959  0.00  0.00     0.091 C 
ENDROOT
BRANCH   1   7
ATOM      7  O   LIG d   1       4.852  83.790 114.017  0.00  0.00    -0.368 OA
BRANCH   7   8
ATOM      8  C   LIG d   1       4.236  83.839 115.328  0.00  0.00     0.119 C 
BRANCH   8   9
ATOM      9  C   LIG d   1       5.338  84.194 116.344  0.00  0.00     0.028 C 
ATOM     10  C   LIG d   1       5.335  85.686 116.717  0.00  0.00     0.006 C 
ENDBRANCH   8   9
BRANCH   8  11
ATOM     11  C   LIG d   1       3.721  82.461 115.754  0.00  0.00     0.028 C 
ATOM     12  C   LIG d   1       4.452  81.906 116.986  0.00  0.00     0.006 C 
ENDBRANCH   8  11
ENDBRANCH   7   8
ENDBRANCH   1   7
BRANCH   6  13
ATOM     13  N   LIG d   1       2.483  83.100 112.287  0.00  0.00    -0.311 N 
ATOM     14  C   LIG d   1       1.523  82.254 112.656  0.00  0.00     0.210 C 
ATOM     15  C   LIG d   1       1.455  80.958 111.842  0.00  0.00     0.109 C 
ATOM     16  O   LIG d   1       0.701  82.468 113.560  0.00  0.00    -0.276 OA
ATOM     17  H   LIG d   1       3.084  82.861 111.522  0.00  0.00     0.149 HD
ENDBRANCH   6  13
BRANCH   5  18
ATOM     18  N   LIG d   1       0.534  85.453 112.299  0.00  0.00     0.381 N 
ATOM     19  H   LIG d   1       0.161  86.092 112.972  0.00  0.00    -0.090 HD
ATOM     20  H   LIG d   1       0.293  84.520 112.583  0.00  0.00    -0.090 HD
ATOM     21  H   LIG d   1       0.151  85.644 111.400  0.00  0.00    -0.090 HD
ENDBRANCH   5  18
BRANCH   3  22
ATOM     22  C   LIG d   1       4.264  88.348 113.104  0.00  0.00     0.382 C 
ATOM     23  O   LIG d   1       5.491  88.545 112.929  0.00  0.00    -0.241 OA
ATOM     24  O   LIG d   1       3.512  89.315 113.327  0.00  0.00    -0.241 OA
ENDBRANCH   3  22
TORSDOF 7
ENDMDL
MODEL 6
REMARK VINA RESULT:      -4.4     20.320     22.842
REMARK  7 active torsions:
REMARK  status: ('A' for Active; 'I' for Inactive)
REMARK    1  A    between atoms: C_2  and  C_3 
REMARK    2  A    between atoms: C_3  and  O_6 
REMARK    3  A    between atoms: C_3  and  C_4 
REMARK    4  A    between atoms: C_7  and  O_6 
REMARK    5  A    between atoms: C_9  and  C_10 
REMARK    6  A    between atoms: N_15  and  C_14 
REMARK    7  A    between atoms: N_20  and  C_19 
REMARK       I    between atoms: C_22  and  N_20 
ROOT
ATOM      1  C   LIG d   1     -25.516  85.066 114.776  0.00  0.00     0.161 C 
ATOM      2  C   LIG d   1     -24.555  86.083 114.650  0.00  0.00     0.016 C 
ATOM      3  C   LIG d   1     -23.316  85.906 113.992  0.00  0.00     0.038 C 
ATOM      4  C   LIG d   1     -23.016  84.736 113.279  0.00  0.00     0.028 C 
ATOM      5  C   LIG d   1     -23.743  83.503 113.804  0.00  0.00    -0.047 C 
ATOM      6  C   LIG d   1     -25.253  83.817 113.908  0.00  0.00     0.091 C 
ENDROOT
BRANCH   1   7
ATOM      7  O   LIG d   1     -26.828  85.597 114.505  0.00  0.00    -0.368 OA
BRANCH   7   8
ATOM      8  C   LIG d   1     -26.957  87.039 114.563  0.00  0.00     0.119 C 
BRANCH   8   9
ATOM      9  C   LIG d   1     -27.892  87.374 115.741  0.00  0.00     0.028 C 
ATOM     10  C   LIG d   1     -27.794  88.848 116.167  0.00  0.00     0.006 C 
ENDBRANCH   8   9
BRANCH   8  11
ATOM     11  C   LIG d   1     -27.661  87.586 113.318  0.00  0.00     0.028 C 
ATOM     12  C   LIG d   1     -26.695  88.276 112.341  0.00  0.00     0.006 C 
ENDBRANCH   8  11
ENDBRANCH   7   8
ENDBRANCH   1   7
BRANCH   6  13
ATOM     13  N   LIG d   1     -26.027  82.692 114.494  0.00  0.00    -0.311 N 
ATOM     14  C   LIG d   1     -26.581  81.725 113.764  0.00  0.00     0.210 C 
ATOM     15  C   LIG d   1     -27.353  80.672 114.565  0.00  0.00     0.109 C 
ATOM     16  O   LIG d   1     -26.480  81.622 112.532  0.00  0.00    -0.276 OA
ATOM     17  H   LIG d   1     -26.133  82.680 115.489  0.00  0.00     0.149 HD
ENDBRANCH   6  13
BRANCH   5  18
ATOM     18  N   LIG d   1     -23.447  82.386 112.887  0.00  0.00     0.381 N 
ATOM     19  H   LIG d   1     -22.609  82.581 112.376  0.00  0.00    -0.090 HD
ATOM     20  H   LIG d   1     -24.202  82.295 112.231  0.00  0.00    -0.090 HD
ATOM     21  H   LIG d   1     -23.341  81.541 113.403  0.00  0.00    -0.090 HD
ENDBRANCH   5  18
BRANCH   3  22
ATOM     22  C   LIG d   1     -22.346  86.893 114.077  0.00  0.00     0.382 C 
ATOM     23  O   LIG d   1     -22.624  88.003 114.592  0.00  0.00    -0.241 OA
ATOM     24  O   LIG d   1     -21.208  86.703 113.607  0.00  0.00    -0.241 OA
ENDBRANCH   3  22
TORSDOF 7
ENDMDL
MODEL 7
REMARK VINA RESULT:      -4.3     11.258     13.446
REMARK  7 active torsions:
REMARK  status: ('A' for Active; 'I' for Inactive)
REMARK    1  A    between atoms: C_2  and  C_3 
REMARK    2  A    between atoms: C_3  and  O_6 
REMARK    3  A    between atoms: C_3  and  C_4 
REMARK    4  A    between atoms: C_7  and  O_6 
REMARK    5  A    between atoms: C_9  and  C_10 
REMARK    6  A    between atoms: N_15  and  C_14 
REMARK    7  A    between atoms: N_20  and  C_19 
REMARK       I    between atoms: C_22  and  N_20 
ROOT
ATOM      1  C   LIG d   1       1.790  86.871 114.940  0.00  0.00     0.161 C 
ATOM      2  C   LIG d   1       0.670  86.254 114.357  0.00  0.00     0.016 C 
ATOM      3  C   LIG d   1       0.654  85.763 113.031  0.00  0.00     0.038 C 
ATOM      4  C   LIG d   1       1.814  85.720 112.243  0.00  0.00     0.028 C 
ATOM      5  C   LIG d   1       2.837  86.790 112.610  0.00  0.00    -0.047 C 
ATOM      6  C   LIG d   1       3.098  86.732 114.133  0.00  0.00     0.091 C 
ENDROOT
BRANCH   1   7
ATOM      7  O   LIG d   1       1.975  86.380 116.282  0.00  0.00    -0.368 OA
BRANCH   7   8
ATOM      8  C   LIG d   1       1.795  87.347 117.345  0.00  0.00     0.119 C 
BRANCH   8   9
ATOM      9  C   LIG d   1       0.640  86.847 118.235  0.00  0.00     0.028 C 
ATOM     10  C   LIG d   1      -0.568  87.799 118.217  0.00  0.00     0.006 C 
ENDBRANCH   8   9
BRANCH   8  11
ATOM     11  C   LIG d   1       1.328  88.698 116.796  0.00  0.00     0.028 C 
ATOM     12  C   LIG d   1       2.259  89.856 117.192  0.00  0.00     0.006 C 
ENDBRANCH   8  11
ENDBRANCH   7   8
ENDBRANCH   1   7
BRANCH   6  13
ATOM     13  N   LIG d   1       4.024  87.802 114.589  0.00  0.00    -0.311 N 
ATOM     14  C   LIG d   1       4.004  89.043 114.108  0.00  0.00     0.210 C 
ATOM     15  C   LIG d   1       5.058  89.984 114.702  0.00  0.00     0.109 C 
ATOM     16  O   LIG d   1       3.194  89.464 113.269  0.00  0.00    -0.276 OA
ATOM     17  H   LIG d   1       4.694  87.555 115.291  0.00  0.00     0.149 HD
ENDBRANCH   6  13
BRANCH   5  18
ATOM     18  N   LIG d   1       4.048  86.543 111.806  0.00  0.00     0.381 N 
ATOM     19  H   LIG d   1       3.804  86.472 110.838  0.00  0.00    -0.090 HD
ATOM     20  H   LIG d   1       4.457  85.670 112.093  0.00  0.00    -0.090 HD
ATOM     21  H   LIG d   1       4.702  87.283 111.937  0.00  0.00    -0.090 HD
ENDBRANCH   5  18
BRANCH   3  22
ATOM     22  C   LIG d   1      -0.542  85.345 112.468  0.00  0.00     0.382 C 
ATOM     23  O   LIG d   1      -1.344  86.190 112.001  0.00  0.00    -0.241 OA
ATOM     24  O   LIG d   1      -0.848  84.138 112.460  0.00  0.00    -0.241 OA
ENDBRANCH   3  22
TORSDOF 7
ENDMDL
MODEL 8
REMARK VINA RESULT:      -4.2     11.850     13.505
REMARK  7 active torsions:
REMARK  status: ('A' for Active; 'I' for Inactive)
REMARK    1  A    between atoms: C_2  and  C_3 
REMARK    2  A    between atoms: C_3  and  O_6 
REMARK    3  A    between atoms: C_3  and  C_4 
REMARK    4  A    between atoms: C_7  and  O_6 
REMARK    5  A    between atoms: C_9  and  C_10 
REMARK    6  A    between atoms: N_15  and  C_14 
REMARK    7  A    between atoms: N_20  and  C_19 
REMARK       I    between atoms: C_22  and  N_20 
ROOT
ATOM      1  C   LIG d   1       2.159  87.121 115.064  0.00  0.00     0.161 C 
ATOM      2  C   LIG d   1       1.057  87.046 115.932  0.00  0.00     0.016 C 
ATOM      3  C   LIG d   1       0.929  87.837 117.098  0.00  0.00     0.038 C 
ATOM      4  C   LIG d   1       1.829  88.871 117.394  0.00  0.00     0.028 C 
ATOM      5  C   LIG d   1       3.223  88.645 116.818  0.00  0.00    -0.047 C 
ATOM      6  C   LIG d   1       3.097  88.322 115.312  0.00  0.00     0.091 C 
ENDROOT
BRANCH   1   7
ATOM      7  O   LIG d   1       1.705  87.114 113.696  0.00  0.00    -0.368 OA
BRANCH   7   8
ATOM      8  C   LIG d   1       2.247  86.071 112.850  0.00  0.00     0.119 C 
BRANCH   8   9
ATOM      9  C   LIG d   1       1.061  85.379 112.151  0.00  0.00     0.028 C 
ATOM     10  C   LIG d   1      -0.298  85.909 112.639  0.00  0.00     0.006 C 
ENDBRANCH   8   9
BRANCH   8  11
ATOM     11  C   LIG d   1       2.924  84.976 113.680  0.00  0.00     0.028 C 
ATOM     12  C   LIG d   1       4.301  84.575 113.126  0.00  0.00     0.006 C 
ENDBRANCH   8  11
ENDBRANCH   7   8
ENDBRANCH   1   7
BRANCH   6  13
ATOM     13  N   LIG d   1       4.408  88.004 114.689  0.00  0.00    -0.311 N 
ATOM     14  C   LIG d   1       4.928  88.701 113.680  0.00  0.00     0.210 C 
ATOM     15  C   LIG d   1       6.281  88.192 113.173  0.00  0.00     0.109 C 
ATOM     16  O   LIG d   1       4.413  89.711 113.179  0.00  0.00    -0.276 OA
ATOM     17  H   LIG d   1       4.908  87.218 115.055  0.00  0.00     0.149 HD
ENDBRANCH   6  13
BRANCH   5  18
ATOM     18  N   LIG d   1       4.017  89.859 117.084  0.00  0.00     0.381 N 
ATOM     19  H   LIG d   1       4.016  90.449 116.276  0.00  0.00    -0.090 HD
ATOM     20  H   LIG d   1       4.966  89.590 117.277  0.00  0.00    -0.090 HD
ATOM     21  H   LIG d   1       3.639  90.350 117.864  0.00  0.00    -0.090 HD
ENDBRANCH   5  18
BRANCH   3  22
ATOM     22  C   LIG d   1      -0.088  87.569 118.001  0.00  0.00     0.382 C 
ATOM     23  O   LIG d   1      -0.156  86.445 118.554  0.00  0.00    -0.241 OA
ATOM     24  O   LIG d   1      -0.964  88.423 118.238  0.00  0.00    -0.241 OA
ENDBRANCH   3  22
TORSDOF 7
ENDMDL
MODEL 9
REMARK VINA RESULT:      -4.2     20.474     22.929
REMARK  7 active torsions:
REMARK  status: ('A' for Active; 'I' for Inactive)
REMARK    1  A    between atoms: C_2  and  C_3 
REMARK    2  A    between atoms: C_3  and  O_6 
REMARK    3  A    between atoms: C_3  and  C_4 
REMARK    4  A    between atoms: C_7  and  O_6 
REMARK    5  A    between atoms: C_9  and  C_10 
REMARK    6  A    between atoms: N_15  and  C_14 
REMARK    7  A    between atoms: N_20  and  C_19 
REMARK       I    between atoms: C_22  and  N_20 
ROOT
ATOM      1  C   LIG d   1     -25.484  85.652 113.867  0.00  0.00     0.161 C 
ATOM      2  C   LIG d   1     -24.085  85.635 113.737  0.00  0.00     0.016 C 
ATOM      3  C   LIG d   1     -23.252  86.702 114.147  0.00  0.00     0.038 C 
ATOM      4  C   LIG d   1     -23.753  87.802 114.859  0.00  0.00     0.028 C 
ATOM      5  C   LIG d   1     -25.221  88.095 114.566  0.00  0.00    -0.047 C 
ATOM      6  C   LIG d   1     -26.038  86.795 114.743  0.00  0.00     0.091 C 
ENDROOT
BRANCH   1   7
ATOM      7  O   LIG d   1     -25.944  84.377 114.358  0.00  0.00    -0.368 OA
BRANCH   7   8
ATOM      8  C   LIG d   1     -24.920  83.472 114.840  0.00  0.00     0.119 C 
BRANCH   8   9
ATOM      9  C   LIG d   1     -25.176  82.097 114.195  0.00  0.00     0.028 C 
ATOM     10  C   LIG d   1     -24.241  81.007 114.745  0.00  0.00     0.006 C 
ENDBRANCH   8   9
BRANCH   8  11
ATOM     11  C   LIG d   1     -25.046  83.242 116.349  0.00  0.00     0.028 C 
ATOM     12  C   LIG d   1     -24.080  84.113 117.168  0.00  0.00     0.006 C 
ENDBRANCH   8  11
ENDBRANCH   7   8
ENDBRANCH   1   7
BRANCH   6  13
ATOM     13  N   LIG d   1     -27.471  86.975 114.393  0.00  0.00    -0.311 N 
ATOM     14  C   LIG d   1     -28.411  87.282 115.286  0.00  0.00     0.210 C 
ATOM     15  C   LIG d   1     -29.828  87.401 114.718  0.00  0.00     0.109 C 
ATOM     16  O   LIG d   1     -28.199  87.500 116.489  0.00  0.00    -0.276 OA
ATOM     17  H   LIG d   1     -27.726  86.847 113.433  0.00  0.00     0.149 HD
ENDBRANCH   6  13
BRANCH   5  18
ATOM     18  N   LIG d   1     -25.649  89.175 115.475  0.00  0.00     0.381 N 
ATOM     19  H   LIG d   1     -26.264  89.800 114.992  0.00  0.00    -0.090 HD
ATOM     20  H   LIG d   1     -24.840  89.694 115.768  0.00  0.00    -0.090 HD
ATOM     21  H   LIG d   1     -26.111  88.790 116.269  0.00  0.00    -0.090 HD
ENDBRANCH   5  18
BRANCH   3  22
ATOM     22  C   LIG d   1     -21.907  86.692 113.810  0.00  0.00     0.382 C 
ATOM     23  O   LIG d   1     -21.194  87.696 114.051  0.00  0.00    -0.241 OA
ATOM     24  O   LIG d   1     -21.409  85.710 113.228  0.00  0.00    -0.241 OA
ENDBRANCH   3  22
TORSDOF 7
ENDMDL
