MODEL 1
REMARK VINA RESULT:      -5.1      0.000      0.000
REMARK  7 active torsions:
REMARK  status: ('A' for Active; 'I' for Inactive)
REMARK    1  A    between atoms: C_2  and  C_3 
REMARK    2  A    between atoms: C_3  and  O_6 
REMARK    3  A    between atoms: C_3  and  C_4 
REMARK    4  A    between atoms: C_7  and  O_6 
REMARK    5  A    between atoms: C_9  and  C_10 
REMARK    6  A    between atoms: N_15  and  C_14 
REMARK    7  A    between atoms: N_20  and  C_19 
REMARK       I    between atoms: C_22  and  N_20 
ROOT
ATOM      1  C   LIG d   1       1.590  87.483 115.199  0.00  0.00     0.161 C 
ATOM      2  C   LIG d   1       0.380  87.225 115.865  0.00  0.00     0.016 C 
ATOM      3  C   LIG d   1      -0.268  88.168 116.695  0.00  0.00     0.038 C 
ATOM      4  C   LIG d   1       0.175  89.496 116.795  0.00  0.00     0.028 C 
ATOM      5  C   LIG d   1       1.670  89.656 116.541  0.00  0.00    -0.047 C 
ATOM      6  C   LIG d   1       2.030  88.962 115.207  0.00  0.00     0.091 C 
ENDROOT
BRANCH   1   7
ATOM      7  O   LIG d   1       1.518  86.989 113.847  0.00  0.00    -0.368 OA
BRANCH   7   8
ATOM      8  C   LIG d   1       1.952  85.622 113.644  0.00  0.00     0.119 C 
BRANCH   8   9
ATOM      9  C   LIG d   1       3.332  85.670 112.959  0.00  0.00     0.028 C 
ATOM     10  C   LIG d   1       3.383  86.696 111.814  0.00  0.00     0.006 C 
ENDBRANCH   8   9
BRANCH   8  11
ATOM     11  C   LIG d   1       1.037  84.887 112.660  0.00  0.00     0.028 C 
ATOM     12  C   LIG d   1      -0.265  85.652 112.373  0.00  0.00     0.006 C 
ENDBRANCH   8  11
ENDBRANCH   7   8
ENDBRANCH   1   7
BRANCH   6  13
ATOM     13  N   LIG d   1       3.488  88.999 114.925  0.00  0.00    -0.311 N 
ATOM     14  C   LIG d   1       4.016  89.622 113.872  0.00  0.00     0.210 C 
ATOM     15  C   LIG d   1       5.540  89.520 113.757  0.00  0.00     0.109 C 
ATOM     16  O   LIG d   1       3.369  90.276 113.040  0.00  0.00    -0.276 OA
ATOM     17  H   LIG d   1       4.090  88.520 115.566  0.00  0.00     0.149 HD
ENDBRANCH   6  13
BRANCH   5  18
ATOM     18  N   LIG d   1       1.969  91.101 116.540  0.00  0.00     0.381 N 
ATOM     19  H   LIG d   1       2.940  91.245 116.732  0.00  0.00    -0.090 HD
ATOM     20  H   LIG d   1       1.434  91.544 117.266  0.00  0.00    -0.090 HD
ATOM     21  H   LIG d   1       1.736  91.497 115.656  0.00  0.00    -0.090 HD
ENDBRANCH   5  18
BRANCH   3  22
ATOM     22  C   LIG d   1      -1.351  87.775 117.467  0.00  0.00     0.382 C 
ATOM     23  O   LIG d   1      -2.439  88.395 117.383  0.00  0.00    -0.241 OA
ATOM     24  O   LIG d   1      -1.240  86.837 118.279  0.00  0.00    -0.241 OA
ENDBRANCH   3  22
TORSDOF 7
ENDMDL
MODEL 2
REMARK VINA RESULT:      -4.6     24.636     27.266
REMARK  7 active torsions:
REMARK  status: ('A' for Active; 'I' for Inactive)
REMARK    1  A    between atoms: C_2  and  C_3 
REMARK    2  A    between atoms: C_3  and  O_6 
REMARK    3  A    between atoms: C_3  and  C_4 
REMARK    4  A    between atoms: C_7  and  O_6 
REMARK    5  A    between atoms: C_9  and  C_10 
REMARK    6  A    between atoms: N_15  and  C_14 
REMARK    7  A    between atoms: N_20  and  C_19 
REMARK       I    between atoms: C_22  and  N_20 
ROOT
ATOM      1  C   LIG d   1     -25.263  85.159 114.473  0.00  0.00     0.161 C 
ATOM      2  C   LIG d   1     -24.402  86.269 114.493  0.00  0.00     0.016 C 
ATOM      3  C   LIG d   1     -23.133  86.280 113.870  0.00  0.00     0.038 C 
ATOM      4  C   LIG d   1     -22.700  85.227 113.051  0.00  0.00     0.028 C 
ATOM      5  C   LIG d   1     -23.320  83.882 113.415  0.00  0.00    -0.047 C 
ATOM      6  C   LIG d   1     -24.855  84.042 113.491  0.00  0.00     0.091 C 
ENDROOT
BRANCH   1   7
ATOM      7  O   LIG d   1     -26.612  85.592 114.207  0.00  0.00    -0.368 OA
BRANCH   7   8
ATOM      8  C   LIG d   1     -26.963  85.762 112.812  0.00  0.00     0.119 C 
BRANCH   8   9
ATOM      9  C   LIG d   1     -27.333  87.244 112.605  0.00  0.00     0.028 C 
ATOM     10  C   LIG d   1     -26.265  88.009 111.805  0.00  0.00     0.006 C 
ENDBRANCH   8   9
BRANCH   8  11
ATOM     11  C   LIG d   1     -28.228  84.975 112.456  0.00  0.00     0.028 C 
ATOM     12  C   LIG d   1     -28.887  84.321 113.681  0.00  0.00     0.006 C 
ENDBRANCH   8  11
ENDBRANCH   7   8
ENDBRANCH   1   7
BRANCH   6  13
ATOM     13  N   LIG d   1     -25.534  82.792 113.924  0.00  0.00    -0.311 N 
ATOM     14  C   LIG d   1     -26.074  81.919 113.075  0.00  0.00     0.210 C 
ATOM     15  C   LIG d   1     -26.743  80.708 113.731  0.00  0.00     0.109 C 
ATOM     16  O   LIG d   1     -26.034  82.017 111.839  0.00  0.00    -0.276 OA
ATOM     17  H   LIG d   1     -25.584  82.618 114.908  0.00  0.00     0.149 HD
ENDBRANCH   6  13
BRANCH   5  18
ATOM     18  N   LIG d   1     -22.889  82.904 112.398  0.00  0.00     0.381 N 
ATOM     19  H   LIG d   1     -21.891  82.842 112.389  0.00  0.00    -0.090 HD
ATOM     20  H   LIG d   1     -23.195  83.218 111.494  0.00  0.00    -0.090 HD
ATOM     21  H   LIG d   1     -23.283  82.010 112.597  0.00  0.00    -0.090 HD
ENDBRANCH   5  18
BRANCH   3  22
ATOM     22  C   LIG d   1     -22.265  87.338 114.098  0.00  0.00     0.382 C 
ATOM     23  O   LIG d   1     -22.645  88.327 114.770  0.00  0.00    -0.241 OA
ATOM     24  O   LIG d   1     -21.123  87.335 113.602  0.00  0.00    -0.241 OA
ENDBRANCH   3  22
TORSDOF 7
ENDMDL
MODEL 3
REMARK VINA RESULT:      -4.6      2.482      4.509
REMARK  7 active torsions:
REMARK  status: ('A' for Active; 'I' for Inactive)
REMARK    1  A    between atoms: C_2  and  C_3 
REMARK    2  A    between atoms: C_3  and  O_6 
REMARK    3  A    between atoms: C_3  and  C_4 
REMARK    4  A    between atoms: C_7  and  O_6 
REMARK    5  A    between atoms: C_9  and  C_10 
REMARK    6  A    between atoms: N_15  and  C_14 
REMARK    7  A    between atoms: N_20  and  C_19 
REMARK       I    between atoms: C_22  and  N_20 
ROOT
ATOM      1  C   LIG d   1       2.938  89.197 115.307  0.00  0.00     0.161 C 
ATOM      2  C   LIG d   1       3.025  90.507 115.806  0.00  0.00     0.016 C 
ATOM      3  C   LIG d   1       2.009  91.114 116.579  0.00  0.00     0.038 C 
ATOM      4  C   LIG d   1       0.894  90.395 117.035  0.00  0.00     0.028 C 
ATOM      5  C   LIG d   1       0.521  89.221 116.135  0.00  0.00    -0.047 C 
ATOM      6  C   LIG d   1       1.779  88.359 115.887  0.00  0.00     0.091 C 
ENDROOT
BRANCH   1   7
ATOM      7  O   LIG d   1       4.194  88.516 115.500  0.00  0.00    -0.368 OA
BRANCH   7   8
ATOM      8  C   LIG d   1       4.956  88.233 114.300  0.00  0.00     0.119 C 
BRANCH   8   9
ATOM      9  C   LIG d   1       6.069  89.294 114.198  0.00  0.00     0.028 C 
ATOM     10  C   LIG d   1       6.696  89.620 115.564  0.00  0.00     0.006 C 
ENDBRANCH   8   9
BRANCH   8  11
ATOM     11  C   LIG d   1       4.103  88.417 113.042  0.00  0.00     0.028 C 
ATOM     12  C   LIG d   1       4.020  87.143 112.187  0.00  0.00     0.006 C 
ENDBRANCH   8  11
ENDBRANCH   7   8
ENDBRANCH   1   7
BRANCH   6  13
ATOM     13  N   LIG d   1       1.522  87.236 114.948  0.00  0.00    -0.311 N 
ATOM     14  C   LIG d   1       1.865  85.975 115.202  0.00  0.00     0.210 C 
ATOM     15  C   LIG d   1       1.525  84.976 114.091  0.00  0.00     0.109 C 
ATOM     16  O   LIG d   1       2.389  85.583 116.255  0.00  0.00    -0.276 OA
ATOM     17  H   LIG d   1       1.072  87.460 114.082  0.00  0.00     0.149 HD
ENDBRANCH   6  13
BRANCH   5  18
ATOM     18  N   LIG d   1      -0.567  88.479 116.799  0.00  0.00     0.381 N 
ATOM     19  H   LIG d   1      -1.406  88.551 116.258  0.00  0.00    -0.090 HD
ATOM     20  H   LIG d   1      -0.738  88.889 117.700  0.00  0.00    -0.090 HD
ATOM     21  H   LIG d   1      -0.313  87.522 116.904  0.00  0.00    -0.090 HD
ENDBRANCH   5  18
BRANCH   3  22
ATOM     22  C   LIG d   1       2.082  92.468 116.869  0.00  0.00     0.382 C 
ATOM     23  O   LIG d   1       1.046  93.098 117.190  0.00  0.00    -0.241 OA
ATOM     24  O   LIG d   1       3.165  93.077 116.772  0.00  0.00    -0.241 OA
ENDBRANCH   3  22
TORSDOF 7
ENDMDL
MODEL 4
REMARK VINA RESULT:      -4.4     24.228     26.657
REMARK  7 active torsions:
REMARK  status: ('A' for Active; 'I' for Inactive)
REMARK    1  A    between atoms: C_2  and  C_3 
REMARK    2  A    between atoms: C_3  and  O_6 
REMARK    3  A    between atoms: C_3  and  C_4 
REMARK    4  A    between atoms: C_7  and  O_6 
REMARK    5  A    between atoms: C_9  and  C_10 
REMARK    6  A    between atoms: N_15  and  C_14 
REMARK    7  A    between atoms: N_20  and  C_19 
REMARK       I    between atoms: C_22  and  N_20 
ROOT
ATOM      1  C   LIG d   1     -23.595  83.809 113.575  0.00  0.00     0.161 C 
ATOM      2  C   LIG d   1     -22.754  84.893 113.878  0.00  0.00     0.016 C 
ATOM      3  C   LIG d   1     -23.137  86.244 113.715  0.00  0.00     0.038 C 
ATOM      4  C   LIG d   1     -24.449  86.607 113.378  0.00  0.00     0.028 C 
ATOM      5  C   LIG d   1     -25.186  85.540 112.575  0.00  0.00    -0.047 C 
ATOM      6  C   LIG d   1     -25.067  84.187 113.312  0.00  0.00     0.091 C 
ENDROOT
BRANCH   1   7
ATOM      7  O   LIG d   1     -23.510  82.819 114.619  0.00  0.00    -0.368 OA
BRANCH   7   8
ATOM      8  C   LIG d   1     -24.431  82.979 115.726  0.00  0.00     0.119 C 
BRANCH   8   9
ATOM      9  C   LIG d   1     -23.599  83.338 116.972  0.00  0.00     0.028 C 
ATOM     10  C   LIG d   1     -22.186  82.732 116.928  0.00  0.00     0.006 C 
ENDBRANCH   8   9
BRANCH   8  11
ATOM     11  C   LIG d   1     -25.126  81.658 116.068  0.00  0.00     0.028 C 
ATOM     12  C   LIG d   1     -24.856  80.556 115.032  0.00  0.00     0.006 C 
ENDBRANCH   8  11
ENDBRANCH   7   8
ENDBRANCH   1   7
BRANCH   6  13
ATOM     13  N   LIG d   1     -25.689  83.071 112.552  0.00  0.00    -0.311 N 
ATOM     14  C   LIG d   1     -26.929  82.638 112.768  0.00  0.00     0.210 C 
ATOM     15  C   LIG d   1     -27.367  81.463 111.888  0.00  0.00     0.109 C 
ATOM     16  O   LIG d   1     -27.720  83.135 113.584  0.00  0.00    -0.276 OA
ATOM     17  H   LIG d   1     -25.128  82.631 111.848  0.00  0.00     0.149 HD
ENDBRANCH   6  13
BRANCH   5  18
ATOM     18  N   LIG d   1     -26.581  85.990 112.411  0.00  0.00     0.381 N 
ATOM     19  H   LIG d   1     -27.194  85.381 112.915  0.00  0.00    -0.090 HD
ATOM     20  H   LIG d   1     -26.824  85.946 111.437  0.00  0.00    -0.090 HD
ATOM     21  H   LIG d   1     -26.680  86.923 112.744  0.00  0.00    -0.090 HD
ENDBRANCH   5  18
BRANCH   3  22
ATOM     22  C   LIG d   1     -22.190  87.248 113.851  0.00  0.00     0.382 C 
ATOM     23  O   LIG d   1     -22.478  88.301 114.470  0.00  0.00    -0.241 OA
ATOM     24  O   LIG d   1     -21.067  87.133 113.325  0.00  0.00    -0.241 OA
ENDBRANCH   3  22
TORSDOF 7
ENDMDL
MODEL 5
REMARK VINA RESULT:      -4.4      2.928      4.750
REMARK  7 active torsions:
REMARK  status: ('A' for Active; 'I' for Inactive)
REMARK    1  A    between atoms: C_2  and  C_3 
REMARK    2  A    between atoms: C_3  and  O_6 
REMARK    3  A    between atoms: C_3  and  C_4 
REMARK    4  A    between atoms: C_7  and  O_6 
REMARK    5  A    between atoms: C_9  and  C_10 
REMARK    6  A    between atoms: N_15  and  C_14 
REMARK    7  A    between atoms: N_20  and  C_19 
REMARK       I    between atoms: C_22  and  N_20 
ROOT
ATOM      1  C   LIG d   1       1.935  86.521 115.175  0.00  0.00     0.161 C 
ATOM      2  C   LIG d   1       2.076  87.804 114.619  0.00  0.00     0.016 C 
ATOM      3  C   LIG d   1       3.290  88.528 114.634  0.00  0.00     0.038 C 
ATOM      4  C   LIG d   1       4.491  87.954 115.074  0.00  0.00     0.028 C 
ATOM      5  C   LIG d   1       4.292  86.848 116.106  0.00  0.00    -0.047 C 
ATOM      6  C   LIG d   1       3.261  85.834 115.561  0.00  0.00     0.091 C 
ENDROOT
BRANCH   1   7
ATOM      7  O   LIG d   1       1.177  85.682 114.281  0.00  0.00    -0.368 OA
BRANCH   7   8
ATOM      8  C   LIG d   1       1.948  84.843 113.387  0.00  0.00     0.119 C 
BRANCH   8   9
ATOM      9  C   LIG d   1       2.147  85.626 112.075  0.00  0.00     0.028 C 
ATOM     10  C   LIG d   1       3.625  85.955 111.806  0.00  0.00     0.006 C 
ENDBRANCH   8   9
BRANCH   8  11
ATOM     11  C   LIG d   1       1.169  83.584 112.994  0.00  0.00     0.028 C 
ATOM     12  C   LIG d   1       0.013  83.877 112.025  0.00  0.00     0.006 C 
ENDBRANCH   8  11
ENDBRANCH   7   8
ENDBRANCH   1   7
BRANCH   6  13
ATOM     13  N   LIG d   1       2.945  84.764 116.543  0.00  0.00    -0.311 N 
ATOM     14  C   LIG d   1       3.528  83.567 116.536  0.00  0.00     0.210 C 
ATOM     15  C   LIG d   1       3.041  82.605 117.625  0.00  0.00     0.109 C 
ATOM     16  O   LIG d   1       4.425  83.221 115.753  0.00  0.00    -0.276 OA
ATOM     17  H   LIG d   1       2.250  84.970 117.234  0.00  0.00     0.149 HD
ENDBRANCH   6  13
BRANCH   5  18
ATOM     18  N   LIG d   1       5.611  86.245 116.373  0.00  0.00     0.381 N 
ATOM     19  H   LIG d   1       6.269  86.549 115.683  0.00  0.00    -0.090 HD
ATOM     20  H   LIG d   1       5.530  85.246 116.313  0.00  0.00    -0.090 HD
ATOM     21  H   LIG d   1       5.927  86.506 117.282  0.00  0.00    -0.090 HD
ENDBRANCH   5  18
BRANCH   3  22
ATOM     22  C   LIG d   1       3.301  89.858 114.240  0.00  0.00     0.382 C 
ATOM     23  O   LIG d   1       3.411  90.152 113.026  0.00  0.00    -0.241 OA
ATOM     24  O   LIG d   1       3.247  90.768 115.089  0.00  0.00    -0.241 OA
ENDBRANCH   3  22
TORSDOF 7
ENDMDL
MODEL 6
REMARK VINA RESULT:      -4.4     27.614     29.932
REMARK  7 active torsions:
REMARK  status: ('A' for Active; 'I' for Inactive)
REMARK    1  A    between atoms: C_2  and  C_3 
REMARK    2  A    between atoms: C_3  and  O_6 
REMARK    3  A    between atoms: C_3  and  C_4 
REMARK    4  A    between atoms: C_7  and  O_6 
REMARK    5  A    between atoms: C_9  and  C_10 
REMARK    6  A    between atoms: N_15  and  C_14 
REMARK    7  A    between atoms: N_20  and  C_19 
REMARK       I    between atoms: C_22  and  N_20 
ROOT
ATOM      1  C   LIG d   1     -17.575  65.646 115.285  0.00  0.00     0.161 C 
ATOM      2  C   LIG d   1     -16.300  65.959 115.784  0.00  0.00     0.016 C 
ATOM      3  C   LIG d   1     -16.064  66.980 116.733  0.00  0.00     0.038 C 
ATOM      4  C   LIG d   1     -17.115  67.661 117.365  0.00  0.00     0.028 C 
ATOM      5  C   LIG d   1     -18.386  67.728 116.525  0.00  0.00    -0.047 C 
ATOM      6  C   LIG d   1     -18.746  66.303 116.046  0.00  0.00     0.091 C 
ENDROOT
BRANCH   1   7
ATOM      7  O   LIG d   1     -17.746  64.215 115.243  0.00  0.00    -0.368 OA
BRANCH   7   8
ATOM      8  C   LIG d   1     -17.661  63.602 113.933  0.00  0.00     0.119 C 
BRANCH   8   9
ATOM      9  C   LIG d   1     -17.859  64.715 112.887  0.00  0.00     0.028 C 
ATOM     10  C   LIG d   1     -19.142  64.524 112.061  0.00  0.00     0.006 C 
ENDBRANCH   8   9
BRANCH   8  11
ATOM     11  C   LIG d   1     -18.813  62.619 113.702  0.00  0.00     0.028 C 
ATOM     12  C   LIG d   1     -18.590  61.266 114.396  0.00  0.00     0.006 C 
ENDBRANCH   8  11
ENDBRANCH   7   8
ENDBRANCH   1   7
BRANCH   6  13
ATOM     13  N   LIG d   1     -19.930  66.290 115.148  0.00  0.00    -0.311 N 
ATOM     14  C   LIG d   1     -20.924  65.410 115.258  0.00  0.00     0.210 C 
ATOM     15  C   LIG d   1     -22.038  65.560 114.218  0.00  0.00     0.109 C 
ATOM     16  O   LIG d   1     -21.004  64.540 116.138  0.00  0.00    -0.276 OA
ATOM     17  H   LIG d   1     -19.961  66.981 114.424  0.00  0.00     0.149 HD
ENDBRANCH   6  13
BRANCH   5  18
ATOM     18  N   LIG d   1     -19.438  68.342 117.357  0.00  0.00     0.381 N 
ATOM     19  H   LIG d   1     -19.174  68.301 118.321  0.00  0.00    -0.090 HD
ATOM     20  H   LIG d   1     -20.289  67.821 117.241  0.00  0.00    -0.090 HD
ATOM     21  H   LIG d   1     -19.580  69.289 117.083  0.00  0.00    -0.090 HD
ENDBRANCH   5  18
BRANCH   3  22
ATOM     22  C   LIG d   1     -14.763  67.356 117.029  0.00  0.00     0.382 C 
ATOM     23  O   LIG d   1     -13.904  67.413 116.116  0.00  0.00    -0.241 OA
ATOM     24  O   LIG d   1     -14.426  67.596 118.204  0.00  0.00    -0.241 OA
ENDBRANCH   3  22
TORSDOF 7
ENDMDL
MODEL 7
REMARK VINA RESULT:      -4.4     24.528     27.187
REMARK  7 active torsions:
REMARK  status: ('A' for Active; 'I' for Inactive)
REMARK    1  A    between atoms: C_2  and  C_3 
REMARK    2  A    between atoms: C_3  and  O_6 
REMARK    3  A    between atoms: C_3  and  C_4 
REMARK    4  A    between atoms: C_7  and  O_6 
REMARK    5  A    between atoms: C_9  and  C_10 
REMARK    6  A    between atoms: N_15  and  C_14 
REMARK    7  A    between atoms: N_20  and  C_19 
REMARK       I    between atoms: C_22  and  N_20 
ROOT
ATOM      1  C   LIG d   1     -25.421  86.946 113.046  0.00  0.00     0.161 C 
ATOM      2  C   LIG d   1     -24.034  86.742 113.132  0.00  0.00     0.016 C 
ATOM      3  C   LIG d   1     -23.205  87.413 114.060  0.00  0.00     0.038 C 
ATOM      4  C   LIG d   1     -23.733  88.227 115.073  0.00  0.00     0.028 C 
ATOM      5  C   LIG d   1     -25.073  88.856 114.707  0.00  0.00    -0.047 C 
ATOM      6  C   LIG d   1     -26.031  87.747 114.215  0.00  0.00     0.091 C 
ENDROOT
BRANCH   1   7
ATOM      7  O   LIG d   1     -26.093  85.679 112.902  0.00  0.00    -0.368 OA
BRANCH   7   8
ATOM      8  C   LIG d   1     -25.506  84.561 113.612  0.00  0.00     0.119 C 
BRANCH   8   9
ATOM      9  C   LIG d   1     -25.409  83.383 112.623  0.00  0.00     0.028 C 
ATOM     10  C   LIG d   1     -23.974  82.850 112.484  0.00  0.00     0.006 C 
ENDBRANCH   8   9
BRANCH   8  11
ATOM     11  C   LIG d   1     -26.422  84.072 114.737  0.00  0.00     0.028 C 
ATOM     12  C   LIG d   1     -25.962  84.541 116.127  0.00  0.00     0.006 C 
ENDBRANCH   8  11
ENDBRANCH   7   8
ENDBRANCH   1   7
BRANCH   6  13
ATOM     13  N   LIG d   1     -27.337  88.287 113.757  0.00  0.00    -0.311 N 
ATOM     14  C   LIG d   1     -28.511  87.854 114.215  0.00  0.00     0.210 C 
ATOM     15  C   LIG d   1     -29.737  88.532 113.595  0.00  0.00     0.109 C 
ATOM     16  O   LIG d   1     -28.652  86.995 115.098  0.00  0.00    -0.276 OA
ATOM     17  H   LIG d   1     -27.314  89.009 113.064  0.00  0.00     0.149 HD
ENDBRANCH   6  13
BRANCH   5  18
ATOM     18  N   LIG d   1     -25.574  89.565 115.900  0.00  0.00     0.381 N 
ATOM     19  H   LIG d   1     -25.078  89.254 116.711  0.00  0.00    -0.090 HD
ATOM     20  H   LIG d   1     -26.547  89.349 116.022  0.00  0.00    -0.090 HD
ATOM     21  H   LIG d   1     -25.456  90.548 115.787  0.00  0.00    -0.090 HD
ENDBRANCH   5  18
BRANCH   3  22
ATOM     22  C   LIG d   1     -21.826  87.304 113.955  0.00  0.00     0.382 C 
ATOM     23  O   LIG d   1     -21.090  88.227 114.379  0.00  0.00    -0.241 OA
ATOM     24  O   LIG d   1     -21.312  86.313 113.402  0.00  0.00    -0.241 OA
ENDBRANCH   3  22
TORSDOF 7
ENDMDL
MODEL 8
REMARK VINA RESULT:      -4.3      2.467      4.968
REMARK  7 active torsions:
REMARK  status: ('A' for Active; 'I' for Inactive)
REMARK    1  A    between atoms: C_2  and  C_3 
REMARK    2  A    between atoms: C_3  and  O_6 
REMARK    3  A    between atoms: C_3  and  C_4 
REMARK    4  A    between atoms: C_7  and  O_6 
REMARK    5  A    between atoms: C_9  and  C_10 
REMARK    6  A    between atoms: N_15  and  C_14 
REMARK    7  A    between atoms: N_20  and  C_19 
REMARK       I    between atoms: C_22  and  N_20 
ROOT
ATOM      1  C   LIG d   1       1.669  86.923 115.036  0.00  0.00     0.161 C 
ATOM      2  C   LIG d   1       0.628  86.321 114.309  0.00  0.00     0.016 C 
ATOM      3  C   LIG d   1       0.738  85.960 112.946  0.00  0.00     0.038 C 
ATOM      4  C   LIG d   1       1.956  86.038 112.255  0.00  0.00     0.028 C 
ATOM      5  C   LIG d   1       2.896  87.107 112.802  0.00  0.00    -0.047 C 
ATOM      6  C   LIG d   1       3.041  86.914 114.329  0.00  0.00     0.091 C 
ENDROOT
BRANCH   1   7
ATOM      7  O   LIG d   1       1.772  86.312 116.337  0.00  0.00    -0.368 OA
BRANCH   7   8
ATOM      8  C   LIG d   1       1.294  87.104 117.452  0.00  0.00     0.119 C 
BRANCH   8   9
ATOM      9  C   LIG d   1      -0.072  86.532 117.875  0.00  0.00     0.028 C 
ATOM     10  C   LIG d   1      -1.222  87.528 117.646  0.00  0.00     0.006 C 
ENDBRANCH   8   9
BRANCH   8  11
ATOM     11  C   LIG d   1       1.016  88.550 117.030  0.00  0.00     0.028 C 
ATOM     12  C   LIG d   1       1.969  89.558 117.691  0.00  0.00     0.006 C 
ENDBRANCH   8  11
ENDBRANCH   7   8
ENDBRANCH   1   7
BRANCH   6  13
ATOM     13  N   LIG d   1       3.877  87.970 114.957  0.00  0.00    -0.311 N 
ATOM     14  C   LIG d   1       4.849  87.712 115.830  0.00  0.00     0.210 C 
ATOM     15  C   LIG d   1       5.576  88.947 116.372  0.00  0.00     0.109 C 
ATOM     16  O   LIG d   1       5.201  86.576 116.182  0.00  0.00    -0.276 OA
ATOM     17  H   LIG d   1       3.680  88.918 114.703  0.00  0.00     0.149 HD
ENDBRANCH   6  13
BRANCH   5  18
ATOM     18  N   LIG d   1       4.177  86.986 112.080  0.00  0.00     0.381 N 
ATOM     19  H   LIG d   1       4.053  87.253 111.124  0.00  0.00    -0.090 HD
ATOM     20  H   LIG d   1       4.475  86.027 112.104  0.00  0.00    -0.090 HD
ATOM     21  H   LIG d   1       4.865  87.566 112.508  0.00  0.00    -0.090 HD
ENDBRANCH   5  18
BRANCH   3  22
ATOM     22  C   LIG d   1      -0.389  85.551 112.250  0.00  0.00     0.382 C 
ATOM     23  O   LIG d   1      -0.580  84.331 112.027  0.00  0.00    -0.241 OA
ATOM     24  O   LIG d   1      -1.195  86.390 111.805  0.00  0.00    -0.241 OA
ENDBRANCH   3  22
TORSDOF 7
ENDMDL
MODEL 9
REMARK VINA RESULT:      -4.2     24.028     26.842
REMARK  7 active torsions:
REMARK  status: ('A' for Active; 'I' for Inactive)
REMARK    1  A    between atoms: C_2  and  C_3 
REMARK    2  A    between atoms: C_3  and  O_6 
REMARK    3  A    between atoms: C_3  and  C_4 
REMARK    4  A    between atoms: C_7  and  O_6 
REMARK    5  A    between atoms: C_9  and  C_10 
REMARK    6  A    between atoms: N_15  and  C_14 
REMARK    7  A    between atoms: N_20  and  C_19 
REMARK       I    between atoms: C_22  and  N_20 
ROOT
ATOM      1  C   LIG d   1     -23.925  84.396 115.806  0.00  0.00     0.161 C 
ATOM      2  C   LIG d   1     -23.385  85.667 115.545  0.00  0.00     0.016 C 
ATOM      3  C   LIG d   1     -22.929  86.071 114.269  0.00  0.00     0.038 C 
ATOM      4  C   LIG d   1     -23.123  85.279 113.127  0.00  0.00     0.028 C 
ATOM      5  C   LIG d   1     -23.205  83.787 113.431  0.00  0.00    -0.047 C 
ATOM      6  C   LIG d   1     -24.247  83.560 114.550  0.00  0.00     0.091 C 
ENDROOT
BRANCH   1   7
ATOM      7  O   LIG d   1     -25.097  84.525 116.636  0.00  0.00    -0.368 OA
BRANCH   7   8
ATOM      8  C   LIG d   1     -26.356  84.694 115.940  0.00  0.00     0.119 C 
BRANCH   8   9
ATOM      9  C   LIG d   1     -26.821  86.145 116.169  0.00  0.00     0.028 C 
ATOM     10  C   LIG d   1     -26.648  86.593 117.630  0.00  0.00     0.006 C 
ENDBRANCH   8   9
BRANCH   8  11
ATOM     11  C   LIG d   1     -27.452  83.816 116.550  0.00  0.00     0.028 C 
ATOM     12  C   LIG d   1     -26.895  82.727 117.481  0.00  0.00     0.006 C 
ENDBRANCH   8  11
ENDBRANCH   7   8
ENDBRANCH   1   7
BRANCH   6  13
ATOM     13  N   LIG d   1     -24.329  82.136 114.968  0.00  0.00    -0.311 N 
ATOM     14  C   LIG d   1     -25.223  81.278 114.477  0.00  0.00     0.210 C 
ATOM     15  C   LIG d   1     -25.147  79.863 115.058  0.00  0.00     0.109 C 
ATOM     16  O   LIG d   1     -26.050  81.547 113.593  0.00  0.00    -0.276 OA
ATOM     17  H   LIG d   1     -23.675  81.824 115.658  0.00  0.00     0.149 HD
ENDBRANCH   6  13
BRANCH   5  18
ATOM     18  N   LIG d   1     -23.546  83.094 112.175  0.00  0.00     0.381 N 
ATOM     19  H   LIG d   1     -24.483  83.318 111.907  0.00  0.00    -0.090 HD
ATOM     20  H   LIG d   1     -23.489  82.102 112.325  0.00  0.00    -0.090 HD
ATOM     21  H   LIG d   1     -22.913  83.364 111.454  0.00  0.00    -0.090 HD
ENDBRANCH   5  18
BRANCH   3  22
ATOM     22  C   LIG d   1     -22.235  87.263 114.133  0.00  0.00     0.382 C 
ATOM     23  O   LIG d   1     -22.709  88.322 114.611  0.00  0.00    -0.241 OA
ATOM     24  O   LIG d   1     -21.163  87.301 113.501  0.00  0.00    -0.241 OA
ENDBRANCH   3  22
TORSDOF 7
ENDMDL
