MODEL 1
REMARK VINA RESULT:      -5.4      0.000      0.000
REMARK  7 active torsions:
REMARK  status: ('A' for Active; 'I' for Inactive)
REMARK    1  A    between atoms: C_2  and  C_3 
REMARK    2  A    between atoms: C_3  and  O_6 
REMARK    3  A    between atoms: C_3  and  C_4 
REMARK    4  A    between atoms: C_7  and  O_6 
REMARK    5  A    between atoms: C_9  and  C_10 
REMARK    6  A    between atoms: N_15  and  C_14 
REMARK    7  A    between atoms: N_20  and  C_19 
REMARK       I    between atoms: C_22  and  N_20 
ROOT
ATOM      1  C   LIG d   1      -5.103  75.772 117.775  0.00  0.00     0.161 C 
ATOM      2  C   LIG d   1      -6.215  76.626 117.860  0.00  0.00     0.016 C 
ATOM      3  C   LIG d   1      -6.186  77.982 117.461  0.00  0.00     0.038 C 
ATOM      4  C   LIG d   1      -5.077  78.539 116.806  0.00  0.00     0.028 C 
ATOM      5  C   LIG d   1      -3.760  77.856 117.157  0.00  0.00    -0.047 C 
ATOM      6  C   LIG d   1      -3.918  76.331 116.960  0.00  0.00     0.091 C 
ENDROOT
BRANCH   1   7
ATOM      7  O   LIG d   1      -5.510  74.491 117.254  0.00  0.00    -0.368 OA
BRANCH   7   8
ATOM      8  C   LIG d   1      -6.569  74.512 116.266  0.00  0.00     0.119 C 
BRANCH   8   9
ATOM      9  C   LIG d   1      -7.569  73.399 116.636  0.00  0.00     0.028 C 
ATOM     10  C   LIG d   1      -7.198  72.045 116.009  0.00  0.00     0.006 C 
ENDBRANCH   8   9
BRANCH   8  11
ATOM     11  C   LIG d   1      -6.043  74.139 114.877  0.00  0.00     0.028 C 
ATOM     12  C   LIG d   1      -5.731  75.369 114.009  0.00  0.00     0.006 C 
ENDBRANCH   8  11
ENDBRANCH   7   8
ENDBRANCH   1   7
BRANCH   6  13
ATOM     13  N   LIG d   1      -2.701  75.578 117.362  0.00  0.00    -0.311 N 
ATOM     14  C   LIG d   1      -2.153  74.619 116.618  0.00  0.00     0.210 C 
ATOM     15  C   LIG d   1      -0.913  73.957 117.227  0.00  0.00     0.109 C 
ATOM     16  O   LIG d   1      -2.557  74.276 115.496  0.00  0.00    -0.276 OA
ATOM     17  H   LIG d   1      -2.289  75.814 118.244  0.00  0.00     0.149 HD
ENDBRANCH   6  13
BRANCH   5  18
ATOM     18  N   LIG d   1      -2.711  78.443 116.302  0.00  0.00     0.381 N 
ATOM     19  H   LIG d   1      -2.207  79.139 116.814  0.00  0.00    -0.090 HD
ATOM     20  H   LIG d   1      -3.147  78.887 115.512  0.00  0.00    -0.090 HD
ATOM     21  H   LIG d   1      -2.087  77.732 115.990  0.00  0.00    -0.090 HD
ENDBRANCH   5  18
BRANCH   3  22
ATOM     22  C   LIG d   1      -7.260  78.808 117.754  0.00  0.00     0.382 C 
ATOM     23  O   LIG d   1      -8.353  78.309 118.117  0.00  0.00    -0.241 OA
ATOM     24  O   LIG d   1      -7.165  80.042 117.618  0.00  0.00    -0.241 OA
ENDBRANCH   3  22
TORSDOF 7
ENDMDL
MODEL 2
REMARK VINA RESULT:      -5.3      2.775      5.138
REMARK  7 active torsions:
REMARK  status: ('A' for Active; 'I' for Inactive)
REMARK    1  A    between atoms: C_2  and  C_3 
REMARK    2  A    between atoms: C_3  and  O_6 
REMARK    3  A    between atoms: C_3  and  C_4 
REMARK    4  A    between atoms: C_7  and  O_6 
REMARK    5  A    between atoms: C_9  and  C_10 
REMARK    6  A    between atoms: N_15  and  C_14 
REMARK    7  A    between atoms: N_20  and  C_19 
REMARK       I    between atoms: C_22  and  N_20 
ROOT
ATOM      1  C   LIG d   1      -2.915  75.498 115.737  0.00  0.00     0.161 C 
ATOM      2  C   LIG d   1      -2.240  74.577 116.555  0.00  0.00     0.016 C 
ATOM      3  C   LIG d   1      -0.963  74.820 117.112  0.00  0.00     0.038 C 
ATOM      4  C   LIG d   1      -0.337  76.071 117.011  0.00  0.00     0.028 C 
ATOM      5  C   LIG d   1      -0.752  76.859 115.774  0.00  0.00    -0.047 C 
ATOM      6  C   LIG d   1      -2.295  76.911 115.707  0.00  0.00     0.091 C 
ENDROOT
BRANCH   1   7
ATOM      7  O   LIG d   1      -4.302  75.567 116.120  0.00  0.00    -0.368 OA
BRANCH   7   8
ATOM      8  C   LIG d   1      -5.093  74.379 115.869  0.00  0.00     0.119 C 
BRANCH   8   9
ATOM      9  C   LIG d   1      -5.642  74.483 114.433  0.00  0.00     0.028 C 
ATOM     10  C   LIG d   1      -5.944  75.934 114.024  0.00  0.00     0.006 C 
ENDBRANCH   8   9
BRANCH   8  11
ATOM     11  C   LIG d   1      -6.328  74.331 116.774  0.00  0.00     0.028 C 
ATOM     12  C   LIG d   1      -7.238  73.129 116.475  0.00  0.00     0.006 C 
ENDBRANCH   8  11
ENDBRANCH   7   8
ENDBRANCH   1   7
BRANCH   6  13
ATOM     13  N   LIG d   1      -2.787  77.592 114.481  0.00  0.00    -0.311 N 
ATOM     14  C   LIG d   1      -2.362  77.291 113.255  0.00  0.00     0.210 C 
ATOM     15  C   LIG d   1      -2.983  78.127 112.132  0.00  0.00     0.109 C 
ATOM     16  O   LIG d   1      -1.554  76.389 112.988  0.00  0.00    -0.276 OA
ATOM     17  H   LIG d   1      -3.468  78.316 114.603  0.00  0.00     0.149 HD
ENDBRANCH   6  13
BRANCH   5  18
ATOM     18  N   LIG d   1      -0.131  78.194 115.866  0.00  0.00     0.381 N 
ATOM     19  H   LIG d   1      -0.823  78.872 116.115  0.00  0.00    -0.090 HD
ATOM     20  H   LIG d   1       0.244  78.441 114.967  0.00  0.00    -0.090 HD
ATOM     21  H   LIG d   1       0.596  78.185 116.547  0.00  0.00    -0.090 HD
ENDBRANCH   5  18
BRANCH   3  22
ATOM     22  C   LIG d   1      -0.283  73.791 117.746  0.00  0.00     0.382 C 
ATOM     23  O   LIG d   1      -0.780  72.640 117.781  0.00  0.00    -0.241 OA
ATOM     24  O   LIG d   1       0.800  74.010 118.321  0.00  0.00    -0.241 OA
ENDBRANCH   3  22
TORSDOF 7
ENDMDL
MODEL 3
REMARK VINA RESULT:      -5.3      3.030      5.367
REMARK  7 active torsions:
REMARK  status: ('A' for Active; 'I' for Inactive)
REMARK    1  A    between atoms: C_2  and  C_3 
REMARK    2  A    between atoms: C_3  and  O_6 
REMARK    3  A    between atoms: C_3  and  C_4 
REMARK    4  A    between atoms: C_7  and  O_6 
REMARK    5  A    between atoms: C_9  and  C_10 
REMARK    6  A    between atoms: N_15  and  C_14 
REMARK    7  A    between atoms: N_20  and  C_19 
REMARK       I    between atoms: C_22  and  N_20 
ROOT
ATOM      1  C   LIG d   1      -3.645  75.346 116.015  0.00  0.00     0.161 C 
ATOM      2  C   LIG d   1      -4.449  74.305 116.508  0.00  0.00     0.016 C 
ATOM      3  C   LIG d   1      -5.672  73.917 115.914  0.00  0.00     0.038 C 
ATOM      4  C   LIG d   1      -6.102  74.449 114.689  0.00  0.00     0.028 C 
ATOM      5  C   LIG d   1      -5.576  75.855 114.420  0.00  0.00    -0.047 C 
ATOM      6  C   LIG d   1      -4.043  75.863 114.616  0.00  0.00     0.091 C 
ENDROOT
BRANCH   1   7
ATOM      7  O   LIG d   1      -2.262  74.942 116.025  0.00  0.00    -0.368 OA
BRANCH   7   8
ATOM      8  C   LIG d   1      -1.367  75.754 116.825  0.00  0.00     0.119 C 
BRANCH   8   9
ATOM      9  C   LIG d   1      -0.279  76.307 115.885  0.00  0.00     0.028 C 
ATOM     10  C   LIG d   1      -0.214  75.546 114.550  0.00  0.00     0.006 C 
ENDBRANCH   8   9
BRANCH   8  11
ATOM     11  C   LIG d   1      -0.618  74.905 117.857  0.00  0.00     0.028 C 
ATOM     12  C   LIG d   1      -0.701  73.399 117.563  0.00  0.00     0.006 C 
ENDBRANCH   8  11
ENDBRANCH   7   8
ENDBRANCH   1   7
BRANCH   6  13
ATOM     13  N   LIG d   1      -3.458  77.220 114.455  0.00  0.00    -0.311 N 
ATOM     14  C   LIG d   1      -2.908  77.651 113.322  0.00  0.00     0.210 C 
ATOM     15  C   LIG d   1      -2.346  79.075 113.376  0.00  0.00     0.109 C 
ATOM     16  O   LIG d   1      -2.860  77.001 112.267  0.00  0.00    -0.276 OA
ATOM     17  H   LIG d   1      -3.483  77.825 115.253  0.00  0.00     0.149 HD
ENDBRANCH   6  13
BRANCH   5  18
ATOM     18  N   LIG d   1      -5.987  76.231 113.054  0.00  0.00     0.381 N 
ATOM     19  H   LIG d   1      -5.326  75.875 112.392  0.00  0.00    -0.090 HD
ATOM     20  H   LIG d   1      -5.997  77.233 112.982  0.00  0.00    -0.090 HD
ATOM     21  H   LIG d   1      -6.893  75.867 112.858  0.00  0.00    -0.090 HD
ENDBRANCH   5  18
BRANCH   3  22
ATOM     22  C   LIG d   1      -6.498  73.016 116.567  0.00  0.00     0.382 C 
ATOM     23  O   LIG d   1      -6.565  73.020 117.820  0.00  0.00    -0.241 OA
ATOM     24  O   LIG d   1      -7.144  72.169 115.922  0.00  0.00    -0.241 OA
ENDBRANCH   3  22
TORSDOF 7
ENDMDL
MODEL 4
REMARK VINA RESULT:      -5.0     12.509     14.418
REMARK  7 active torsions:
REMARK  status: ('A' for Active; 'I' for Inactive)
REMARK    1  A    between atoms: C_2  and  C_3 
REMARK    2  A    between atoms: C_3  and  O_6 
REMARK    3  A    between atoms: C_3  and  C_4 
REMARK    4  A    between atoms: C_7  and  O_6 
REMARK    5  A    between atoms: C_9  and  C_10 
REMARK    6  A    between atoms: N_15  and  C_14 
REMARK    7  A    between atoms: N_20  and  C_19 
REMARK       I    between atoms: C_22  and  N_20 
ROOT
ATOM      1  C   LIG d   1       2.951  87.111 115.497  0.00  0.00     0.161 C 
ATOM      2  C   LIG d   1       2.534  88.308 114.891  0.00  0.00     0.016 C 
ATOM      3  C   LIG d   1       3.398  89.402 114.654  0.00  0.00     0.038 C 
ATOM      4  C   LIG d   1       4.781  89.315 114.870  0.00  0.00     0.028 C 
ATOM      5  C   LIG d   1       5.163  88.308 115.949  0.00  0.00    -0.047 C 
ATOM      6  C   LIG d   1       4.480  86.956 115.638  0.00  0.00     0.091 C 
ENDROOT
BRANCH   1   7
ATOM      7  O   LIG d   1       2.397  85.985 114.787  0.00  0.00    -0.368 OA
BRANCH   7   8
ATOM      8  C   LIG d   1       2.074  86.207 113.393  0.00  0.00     0.119 C 
BRANCH   8   9
ATOM      9  C   LIG d   1       0.754  85.468 113.100  0.00  0.00     0.028 C 
ATOM     10  C   LIG d   1      -0.224  85.522 114.285  0.00  0.00     0.006 C 
ENDBRANCH   8   9
BRANCH   8  11
ATOM     11  C   LIG d   1       3.114  85.563 112.471  0.00  0.00     0.028 C 
ATOM     12  C   LIG d   1       4.043  86.592 111.808  0.00  0.00     0.006 C 
ENDBRANCH   8  11
ENDBRANCH   7   8
ENDBRANCH   1   7
BRANCH   6  13
ATOM     13  N   LIG d   1       4.734  85.938 116.690  0.00  0.00    -0.311 N 
ATOM     14  C   LIG d   1       5.038  84.669 116.424  0.00  0.00     0.210 C 
ATOM     15  C   LIG d   1       5.241  83.780 117.655  0.00  0.00     0.109 C 
ATOM     16  O   LIG d   1       5.191  84.202 115.285  0.00  0.00    -0.276 OA
ATOM     17  H   LIG d   1       4.662  86.238 117.643  0.00  0.00     0.149 HD
ENDBRANCH   6  13
BRANCH   5  18
ATOM     18  N   LIG d   1       6.636  88.219 115.974  0.00  0.00     0.381 N 
ATOM     19  H   LIG d   1       6.933  87.747 116.804  0.00  0.00    -0.090 HD
ATOM     20  H   LIG d   1       7.017  89.148 115.985  0.00  0.00    -0.090 HD
ATOM     21  H   LIG d   1       6.961  87.728 115.170  0.00  0.00    -0.090 HD
ENDBRANCH   5  18
BRANCH   3  22
ATOM     22  C   LIG d   1       2.872  90.614 114.231  0.00  0.00     0.382 C 
ATOM     23  O   LIG d   1       3.082  91.014 113.061  0.00  0.00    -0.241 OA
ATOM     24  O   LIG d   1       2.227  91.331 115.019  0.00  0.00    -0.241 OA
ENDBRANCH   3  22
TORSDOF 7
ENDMDL
MODEL 5
REMARK VINA RESULT:      -4.9      2.493      5.369
REMARK  7 active torsions:
REMARK  status: ('A' for Active; 'I' for Inactive)
REMARK    1  A    between atoms: C_2  and  C_3 
REMARK    2  A    between atoms: C_3  and  O_6 
REMARK    3  A    between atoms: C_3  and  C_4 
REMARK    4  A    between atoms: C_7  and  O_6 
REMARK    5  A    between atoms: C_9  and  C_10 
REMARK    6  A    between atoms: N_15  and  C_14 
REMARK    7  A    between atoms: N_20  and  C_19 
REMARK       I    between atoms: C_22  and  N_20 
ROOT
ATOM      1  C   LIG d   1      -2.655  77.277 115.059  0.00  0.00     0.161 C 
ATOM      2  C   LIG d   1      -2.428  75.899 115.213  0.00  0.00     0.016 C 
ATOM      3  C   LIG d   1      -1.618  75.353 116.235  0.00  0.00     0.038 C 
ATOM      4  C   LIG d   1      -1.099  76.144 117.271  0.00  0.00     0.028 C 
ATOM      5  C   LIG d   1      -0.885  77.600 116.872  0.00  0.00    -0.047 C 
ATOM      6  C   LIG d   1      -2.188  78.146 116.245  0.00  0.00     0.091 C 
ENDROOT
BRANCH   1   7
ATOM      7  O   LIG d   1      -4.050  77.514 114.783  0.00  0.00    -0.368 OA
BRANCH   7   8
ATOM      8  C   LIG d   1      -4.993  76.682 115.502  0.00  0.00     0.119 C 
BRANCH   8   9
ATOM      9  C   LIG d   1      -5.928  76.037 114.462  0.00  0.00     0.028 C 
ATOM     10  C   LIG d   1      -5.737  74.514 114.365  0.00  0.00     0.006 C 
ENDBRANCH   8   9
BRANCH   8  11
ATOM     11  C   LIG d   1      -5.904  77.522 116.402  0.00  0.00     0.028 C 
ATOM     12  C   LIG d   1      -7.229  76.816 116.733  0.00  0.00     0.006 C 
ENDBRANCH   8  11
ENDBRANCH   7   8
ENDBRANCH   1   7
BRANCH   6  13
ATOM     13  N   LIG d   1      -2.039  79.539 115.750  0.00  0.00    -0.311 N 
ATOM     14  C   LIG d   1      -2.916  80.507 116.009  0.00  0.00     0.210 C 
ATOM     15  C   LIG d   1      -2.582  81.866 115.387  0.00  0.00     0.109 C 
ATOM     16  O   LIG d   1      -3.922  80.377 116.723  0.00  0.00    -0.276 OA
ATOM     17  H   LIG d   1      -1.234  79.741 115.189  0.00  0.00     0.149 HD
ENDBRANCH   6  13
BRANCH   5  18
ATOM     18  N   LIG d   1      -0.472  78.337 118.082  0.00  0.00     0.381 N 
ATOM     19  H   LIG d   1       0.442  78.722 117.949  0.00  0.00    -0.090 HD
ATOM     20  H   LIG d   1      -0.436  77.698 118.856  0.00  0.00    -0.090 HD
ATOM     21  H   LIG d   1      -1.123  79.067 118.274  0.00  0.00    -0.090 HD
ENDBRANCH   5  18
BRANCH   3  22
ATOM     22  C   LIG d   1      -1.287  74.007 116.205  0.00  0.00     0.382 C 
ATOM     23  O   LIG d   1      -1.207  73.357 117.275  0.00  0.00    -0.241 OA
ATOM     24  O   LIG d   1      -1.025  73.445 115.125  0.00  0.00    -0.241 OA
ENDBRANCH   3  22
TORSDOF 7
ENDMDL
MODEL 6
REMARK VINA RESULT:      -4.7     11.031     13.332
REMARK  7 active torsions:
REMARK  status: ('A' for Active; 'I' for Inactive)
REMARK    1  A    between atoms: C_2  and  C_3 
REMARK    2  A    between atoms: C_3  and  O_6 
REMARK    3  A    between atoms: C_3  and  C_4 
REMARK    4  A    between atoms: C_7  and  O_6 
REMARK    5  A    between atoms: C_9  and  C_10 
REMARK    6  A    between atoms: N_15  and  C_14 
REMARK    7  A    between atoms: N_20  and  C_19 
REMARK       I    between atoms: C_22  and  N_20 
ROOT
ATOM      1  C   LIG d   1       3.099  84.949 112.823  0.00  0.00     0.161 C 
ATOM      2  C   LIG d   1       3.908  86.096 112.883  0.00  0.00     0.016 C 
ATOM      3  C   LIG d   1       3.396  87.413 112.825  0.00  0.00     0.038 C 
ATOM      4  C   LIG d   1       2.019  87.675 112.855  0.00  0.00     0.028 C 
ATOM      5  C   LIG d   1       1.174  86.540 112.285  0.00  0.00    -0.047 C 
ATOM      6  C   LIG d   1       1.586  85.216 112.968  0.00  0.00     0.091 C 
ENDROOT
BRANCH   1   7
ATOM      7  O   LIG d   1       3.535  83.991 113.809  0.00  0.00    -0.368 OA
BRANCH   7   8
ATOM      8  C   LIG d   1       3.304  84.352 115.193  0.00  0.00     0.119 C 
BRANCH   8   9
ATOM      9  C   LIG d   1       4.665  84.311 115.915  0.00  0.00     0.028 C 
ATOM     10  C   LIG d   1       5.137  85.707 116.354  0.00  0.00     0.006 C 
ENDBRANCH   8   9
BRANCH   8  11
ATOM     11  C   LIG d   1       2.437  83.308 115.903  0.00  0.00     0.028 C 
ATOM     12  C   LIG d   1       2.311  81.998 115.109  0.00  0.00     0.006 C 
ENDBRANCH   8  11
ENDBRANCH   7   8
ENDBRANCH   1   7
BRANCH   6  13
ATOM     13  N   LIG d   1       0.867  84.042 112.408  0.00  0.00    -0.311 N 
ATOM     14  C   LIG d   1      -0.275  83.574 112.911  0.00  0.00     0.210 C 
ATOM     15  C   LIG d   1      -0.839  82.342 112.196  0.00  0.00     0.109 C 
ATOM     16  O   LIG d   1      -0.890  84.081 113.861  0.00  0.00    -0.276 OA
ATOM     17  H   LIG d   1       1.279  83.589 111.617  0.00  0.00     0.149 HD
ENDBRANCH   6  13
BRANCH   5  18
ATOM     18  N   LIG d   1      -0.243  86.887 112.504  0.00  0.00     0.381 N 
ATOM     19  H   LIG d   1      -0.830  86.170 112.124  0.00  0.00    -0.090 HD
ATOM     20  H   LIG d   1      -0.446  87.746 112.024  0.00  0.00    -0.090 HD
ATOM     21  H   LIG d   1      -0.422  86.991 113.478  0.00  0.00    -0.090 HD
ENDBRANCH   5  18
BRANCH   3  22
ATOM     22  C   LIG d   1       4.268  88.483 112.696  0.00  0.00     0.382 C 
ATOM     23  O   LIG d   1       5.495  88.277 112.537  0.00  0.00    -0.241 OA
ATOM     24  O   LIG d   1       3.849  89.653 112.780  0.00  0.00    -0.241 OA
ENDBRANCH   3  22
TORSDOF 7
ENDMDL
MODEL 7
REMARK VINA RESULT:      -4.5     11.805     14.243
REMARK  7 active torsions:
REMARK  status: ('A' for Active; 'I' for Inactive)
REMARK    1  A    between atoms: C_2  and  C_3 
REMARK    2  A    between atoms: C_3  and  O_6 
REMARK    3  A    between atoms: C_3  and  C_4 
REMARK    4  A    between atoms: C_7  and  O_6 
REMARK    5  A    between atoms: C_9  and  C_10 
REMARK    6  A    between atoms: N_15  and  C_14 
REMARK    7  A    between atoms: N_20  and  C_19 
REMARK       I    between atoms: C_22  and  N_20 
ROOT
ATOM      1  C   LIG d   1       1.059  87.503 114.518  0.00  0.00     0.161 C 
ATOM      2  C   LIG d   1       2.186  87.559 113.682  0.00  0.00     0.016 C 
ATOM      3  C   LIG d   1       3.231  88.498 113.845  0.00  0.00     0.038 C 
ATOM      4  C   LIG d   1       3.293  89.352 114.957  0.00  0.00     0.028 C 
ATOM      5  C   LIG d   1       1.925  89.675 115.549  0.00  0.00    -0.047 C 
ATOM      6  C   LIG d   1       1.163  88.354 115.802  0.00  0.00     0.091 C 
ENDROOT
BRANCH   1   7
ATOM      7  O   LIG d   1       0.764  86.132 114.849  0.00  0.00    -0.368 OA
BRANCH   7   8
ATOM      8  C   LIG d   1       1.815  85.171 114.582  0.00  0.00     0.119 C 
BRANCH   8   9
ATOM      9  C   LIG d   1       1.161  83.941 113.924  0.00  0.00     0.028 C 
ATOM     10  C   LIG d   1      -0.307  83.761 114.345  0.00  0.00     0.006 C 
ENDBRANCH   8   9
BRANCH   8  11
ATOM     11  C   LIG d   1       2.439  84.653 115.881  0.00  0.00     0.028 C 
ATOM     12  C   LIG d   1       3.763  85.354 116.227  0.00  0.00     0.006 C 
ENDBRANCH   8  11
ENDBRANCH   7   8
ENDBRANCH   1   7
BRANCH   6  13
ATOM     13  N   LIG d   1      -0.217  88.583 116.303  0.00  0.00    -0.311 N 
ATOM     14  C   LIG d   1      -0.532  88.609 117.597  0.00  0.00     0.210 C 
ATOM     15  C   LIG d   1      -2.017  88.840 117.896  0.00  0.00     0.109 C 
ATOM     16  O   LIG d   1       0.282  88.496 118.525  0.00  0.00    -0.276 OA
ATOM     17  H   LIG d   1      -0.935  88.716 115.618  0.00  0.00     0.149 HD
ENDBRANCH   6  13
BRANCH   5  18
ATOM     18  N   LIG d   1       2.146  90.459 116.779  0.00  0.00     0.381 N 
ATOM     19  H   LIG d   1       2.974  90.138 117.241  0.00  0.00    -0.090 HD
ATOM     20  H   LIG d   1       1.366  90.320 117.397  0.00  0.00    -0.090 HD
ATOM     21  H   LIG d   1       2.235  91.426 116.556  0.00  0.00    -0.090 HD
ENDBRANCH   5  18
BRANCH   3  22
ATOM     22  C   LIG d   1       4.208  88.615 112.869  0.00  0.00     0.382 C 
ATOM     23  O   LIG d   1       4.488  87.633 112.140  0.00  0.00    -0.241 OA
ATOM     24  O   LIG d   1       4.845  89.678 112.737  0.00  0.00    -0.241 OA
ENDBRANCH   3  22
TORSDOF 7
ENDMDL
MODEL 8
REMARK VINA RESULT:      -4.4     19.540     21.655
REMARK  7 active torsions:
REMARK  status: ('A' for Active; 'I' for Inactive)
REMARK    1  A    between atoms: C_2  and  C_3 
REMARK    2  A    between atoms: C_3  and  O_6 
REMARK    3  A    between atoms: C_3  and  C_4 
REMARK    4  A    between atoms: C_7  and  O_6 
REMARK    5  A    between atoms: C_9  and  C_10 
REMARK    6  A    between atoms: N_15  and  C_14 
REMARK    7  A    between atoms: N_20  and  C_19 
REMARK       I    between atoms: C_22  and  N_20 
ROOT
ATOM      1  C   LIG d   1     -23.830  83.744 113.438  0.00  0.00     0.161 C 
ATOM      2  C   LIG d   1     -22.794  84.641 113.751  0.00  0.00     0.016 C 
ATOM      3  C   LIG d   1     -22.976  86.040 113.839  0.00  0.00     0.038 C 
ATOM      4  C   LIG d   1     -24.248  86.628 113.769  0.00  0.00     0.028 C 
ATOM      5  C   LIG d   1     -25.247  85.814 112.954  0.00  0.00    -0.047 C 
ATOM      6  C   LIG d   1     -25.246  84.357 113.468  0.00  0.00     0.091 C 
ENDROOT
BRANCH   1   7
ATOM      7  O   LIG d   1     -23.762  82.597 114.307  0.00  0.00    -0.368 OA
BRANCH   7   8
ATOM      8  C   LIG d   1     -24.119  82.825 115.693  0.00  0.00     0.119 C 
BRANCH   8   9
ATOM      9  C   LIG d   1     -22.917  82.396 116.557  0.00  0.00     0.028 C 
ATOM     10  C   LIG d   1     -22.310  83.571 117.342  0.00  0.00     0.006 C 
ENDBRANCH   8   9
BRANCH   8  11
ATOM     11  C   LIG d   1     -25.274  81.918 116.127  0.00  0.00     0.028 C 
ATOM     12  C   LIG d   1     -25.499  80.738 115.168  0.00  0.00     0.006 C 
ENDBRANCH   8  11
ENDBRANCH   7   8
ENDBRANCH   1   7
BRANCH   6  13
ATOM     13  N   LIG d   1     -26.135  83.473 112.669  0.00  0.00    -0.311 N 
ATOM     14  C   LIG d   1     -27.382  83.172 113.027  0.00  0.00     0.210 C 
ATOM     15  C   LIG d   1     -28.118  82.227 112.071  0.00  0.00     0.109 C 
ATOM     16  O   LIG d   1     -27.959  83.622 114.027  0.00  0.00    -0.276 OA
ATOM     17  H   LIG d   1     -25.757  83.089 111.825  0.00  0.00     0.149 HD
ENDBRANCH   6  13
BRANCH   5  18
ATOM     18  N   LIG d   1     -26.563  86.470 113.078  0.00  0.00     0.381 N 
ATOM     19  H   LIG d   1     -26.479  87.293 113.641  0.00  0.00    -0.090 HD
ATOM     20  H   LIG d   1     -27.199  85.839 113.534  0.00  0.00    -0.090 HD
ATOM     21  H   LIG d   1     -26.911  86.710 112.176  0.00  0.00    -0.090 HD
ENDBRANCH   5  18
BRANCH   3  22
ATOM     22  C   LIG d   1     -21.872  86.870 113.961  0.00  0.00     0.382 C 
ATOM     23  O   LIG d   1     -20.799  86.575 113.382  0.00  0.00    -0.241 OA
ATOM     24  O   LIG d   1     -21.923  87.888 114.677  0.00  0.00    -0.241 OA
ENDBRANCH   3  22
TORSDOF 7
ENDMDL
MODEL 9
REMARK VINA RESULT:      -4.3      2.003      4.927
REMARK  7 active torsions:
REMARK  status: ('A' for Active; 'I' for Inactive)
REMARK    1  A    between atoms: C_2  and  C_3 
REMARK    2  A    between atoms: C_3  and  O_6 
REMARK    3  A    between atoms: C_3  and  C_4 
REMARK    4  A    between atoms: C_7  and  O_6 
REMARK    5  A    between atoms: C_9  and  C_10 
REMARK    6  A    between atoms: N_15  and  C_14 
REMARK    7  A    between atoms: N_20  and  C_19 
REMARK       I    between atoms: C_22  and  N_20 
ROOT
ATOM      1  C   LIG d   1      -5.555  76.632 116.696  0.00  0.00     0.161 C 
ATOM      2  C   LIG d   1      -6.520  75.611 116.701  0.00  0.00     0.016 C 
ATOM      3  C   LIG d   1      -6.209  74.246 116.499  0.00  0.00     0.038 C 
ATOM      4  C   LIG d   1      -4.884  73.790 116.429  0.00  0.00     0.028 C 
ATOM      5  C   LIG d   1      -3.908  74.842 115.915  0.00  0.00    -0.047 C 
ATOM      6  C   LIG d   1      -4.093  76.141 116.732  0.00  0.00     0.091 C 
ENDROOT
BRANCH   1   7
ATOM      7  O   LIG d   1      -5.804  77.545 117.784  0.00  0.00    -0.368 OA
BRANCH   7   8
ATOM      8  C   LIG d   1      -6.313  78.850 117.417  0.00  0.00     0.119 C 
BRANCH   8   9
ATOM      9  C   LIG d   1      -5.193  79.875 117.681  0.00  0.00     0.028 C 
ATOM     10  C   LIG d   1      -5.741  81.242 118.125  0.00  0.00     0.006 C 
ENDBRANCH   8   9
BRANCH   8  11
ATOM     11  C   LIG d   1      -7.472  79.272 118.326  0.00  0.00     0.028 C 
ATOM     12  C   LIG d   1      -8.734  78.421 118.116  0.00  0.00     0.006 C 
ENDBRANCH   8  11
ENDBRANCH   7   8
ENDBRANCH   1   7
BRANCH   6  13
ATOM     13  N   LIG d   1      -3.234  77.249 116.238  0.00  0.00    -0.311 N 
ATOM     14  C   LIG d   1      -2.032  77.526 116.742  0.00  0.00     0.210 C 
ATOM     15  C   LIG d   1      -1.322  78.722 116.101  0.00  0.00     0.109 C 
ATOM     16  O   LIG d   1      -1.473  76.874 117.636  0.00  0.00    -0.276 OA
ATOM     17  H   LIG d   1      -3.597  77.810 115.492  0.00  0.00     0.149 HD
ENDBRANCH   6  13
BRANCH   5  18
ATOM     18  N   LIG d   1      -2.548  74.280 116.023  0.00  0.00     0.381 N 
ATOM     19  H   LIG d   1      -2.501  73.410 115.531  0.00  0.00    -0.090 HD
ATOM     20  H   LIG d   1      -2.345  74.105 116.992  0.00  0.00    -0.090 HD
ATOM     21  H   LIG d   1      -1.883  74.919 115.647  0.00  0.00    -0.090 HD
ENDBRANCH   5  18
BRANCH   3  22
ATOM     22  C   LIG d   1      -7.232  73.327 116.326  0.00  0.00     0.382 C 
ATOM     23  O   LIG d   1      -7.007  72.243 115.736  0.00  0.00    -0.241 OA
ATOM     24  O   LIG d   1      -8.387  73.587 116.713  0.00  0.00    -0.241 OA
ENDBRANCH   3  22
TORSDOF 7
ENDMDL
