MODEL 1
REMARK VINA RESULT:      -4.9      0.000      0.000
REMARK  7 active torsions:
REMARK  status: ('A' for Active; 'I' for Inactive)
REMARK    1  A    between atoms: C_2  and  C_3 
REMARK    2  A    between atoms: C_3  and  O_6 
REMARK    3  A    between atoms: C_3  and  C_4 
REMARK    4  A    between atoms: C_7  and  O_6 
REMARK    5  A    between atoms: C_9  and  C_10 
REMARK    6  A    between atoms: N_15  and  C_14 
REMARK    7  A    between atoms: N_20  and  C_19 
REMARK       I    between atoms: C_22  and  N_20 
ROOT
ATOM      1  C   LIG d   1       2.799  84.897 113.507  0.00  0.00     0.161 C 
ATOM      2  C   LIG d   1       3.269  85.955 112.711  0.00  0.00     0.016 C 
ATOM      3  C   LIG d   1       4.069  87.008 113.210  0.00  0.00     0.038 C 
ATOM      4  C   LIG d   1       4.582  86.995 114.516  0.00  0.00     0.028 C 
ATOM      5  C   LIG d   1       3.721  86.208 115.497  0.00  0.00    -0.047 C 
ATOM      6  C   LIG d   1       3.441  84.807 114.907  0.00  0.00     0.091 C 
ENDROOT
BRANCH   1   7
ATOM      7  O   LIG d   1       2.955  83.649 112.803  0.00  0.00    -0.368 OA
BRANCH   7   8
ATOM      8  C   LIG d   1       1.791  83.172 112.085  0.00  0.00     0.119 C 
BRANCH   8   9
ATOM      9  C   LIG d   1       0.544  83.662 112.847  0.00  0.00     0.028 C 
ATOM     10  C   LIG d   1      -0.533  84.230 111.908  0.00  0.00     0.006 C 
ENDBRANCH   8   9
BRANCH   8  11
ATOM     11  C   LIG d   1       1.707  81.643 112.111  0.00  0.00     0.028 C 
ATOM     12  C   LIG d   1       1.182  81.098 113.448  0.00  0.00     0.006 C 
ENDBRANCH   8  11
ENDBRANCH   7   8
ENDBRANCH   1   7
BRANCH   6  13
ATOM     13  N   LIG d   1       2.535  84.001 115.767  0.00  0.00    -0.311 N 
ATOM     14  C   LIG d   1       2.862  82.807 116.260  0.00  0.00     0.210 C 
ATOM     15  C   LIG d   1       1.774  82.137 117.105  0.00  0.00     0.109 C 
ATOM     16  O   LIG d   1       3.961  82.255 116.105  0.00  0.00    -0.276 OA
ATOM     17  H   LIG d   1       1.634  84.388 115.969  0.00  0.00     0.149 HD
ENDBRANCH   6  13
BRANCH   5  18
ATOM     18  N   LIG d   1       4.442  86.160 116.783  0.00  0.00     0.381 N 
ATOM     19  H   LIG d   1       5.427  86.219 116.622  0.00  0.00    -0.090 HD
ATOM     20  H   LIG d   1       4.248  85.282 117.232  0.00  0.00    -0.090 HD
ATOM     21  H   LIG d   1       4.148  86.912 117.367  0.00  0.00    -0.090 HD
ENDBRANCH   5  18
BRANCH   3  22
ATOM     22  C   LIG d   1       4.329  88.111 112.411  0.00  0.00     0.382 C 
ATOM     23  O   LIG d   1       5.482  88.294 111.951  0.00  0.00    -0.241 OA
ATOM     24  O   LIG d   1       3.437  88.949 112.180  0.00  0.00    -0.241 OA
ENDBRANCH   3  22
TORSDOF 7
ENDMDL
MODEL 2
REMARK VINA RESULT:      -4.9     25.764     27.874
REMARK  7 active torsions:
REMARK  status: ('A' for Active; 'I' for Inactive)
REMARK    1  A    between atoms: C_2  and  C_3 
REMARK    2  A    between atoms: C_3  and  O_6 
REMARK    3  A    between atoms: C_3  and  C_4 
REMARK    4  A    between atoms: C_7  and  O_6 
REMARK    5  A    between atoms: C_9  and  C_10 
REMARK    6  A    between atoms: N_15  and  C_14 
REMARK    7  A    between atoms: N_20  and  C_19 
REMARK       I    between atoms: C_22  and  N_20 
ROOT
ATOM      1  C   LIG d   1     -23.877  83.663 113.758  0.00  0.00     0.161 C 
ATOM      2  C   LIG d   1     -23.039  84.742 114.083  0.00  0.00     0.016 C 
ATOM      3  C   LIG d   1     -23.388  86.094 113.859  0.00  0.00     0.038 C 
ATOM      4  C   LIG d   1     -24.671  86.467 113.431  0.00  0.00     0.028 C 
ATOM      5  C   LIG d   1     -25.374  85.388 112.613  0.00  0.00    -0.047 C 
ATOM      6  C   LIG d   1     -25.324  84.055 113.393  0.00  0.00     0.091 C 
ENDROOT
BRANCH   1   7
ATOM      7  O   LIG d   1     -23.874  82.701 114.831  0.00  0.00    -0.368 OA
BRANCH   7   8
ATOM      8  C   LIG d   1     -24.763  82.981 115.940  0.00  0.00     0.119 C 
BRANCH   8   9
ATOM      9  C   LIG d   1     -23.890  83.181 117.195  0.00  0.00     0.028 C 
ATOM     10  C   LIG d   1     -22.534  82.464 117.086  0.00  0.00     0.006 C 
ENDBRANCH   8   9
BRANCH   8  11
ATOM     11  C   LIG d   1     -25.656  81.778 116.256  0.00  0.00     0.028 C 
ATOM     12  C   LIG d   1     -25.310  80.541 115.412  0.00  0.00     0.006 C 
ENDBRANCH   8  11
ENDBRANCH   7   8
ENDBRANCH   1   7
BRANCH   6  13
ATOM     13  N   LIG d   1     -25.916  82.927 112.627  0.00  0.00    -0.311 N 
ATOM     14  C   LIG d   1     -27.172  82.514 112.783  0.00  0.00     0.210 C 
ATOM     15  C   LIG d   1     -27.575  81.322 111.908  0.00  0.00     0.109 C 
ATOM     16  O   LIG d   1     -28.001  83.041 113.540  0.00  0.00    -0.276 OA
ATOM     17  H   LIG d   1     -25.322  82.462 111.968  0.00  0.00     0.149 HD
ENDBRANCH   6  13
BRANCH   5  18
ATOM     18  N   LIG d   1     -26.749  85.853 112.350  0.00  0.00     0.381 N 
ATOM     19  H   LIG d   1     -27.402  85.275 112.841  0.00  0.00    -0.090 HD
ATOM     20  H   LIG d   1     -26.936  85.776 111.366  0.00  0.00    -0.090 HD
ATOM     21  H   LIG d   1     -26.850  86.801 112.642  0.00  0.00    -0.090 HD
ENDBRANCH   5  18
BRANCH   3  22
ATOM     22  C   LIG d   1     -22.435  87.087 114.026  0.00  0.00     0.382 C 
ATOM     23  O   LIG d   1     -22.677  88.070 114.766  0.00  0.00    -0.241 OA
ATOM     24  O   LIG d   1     -21.353  87.034 113.411  0.00  0.00    -0.241 OA
ENDBRANCH   3  22
TORSDOF 7
ENDMDL
MODEL 3
REMARK VINA RESULT:      -4.8     26.207     28.605
REMARK  7 active torsions:
REMARK  status: ('A' for Active; 'I' for Inactive)
REMARK    1  A    between atoms: C_2  and  C_3 
REMARK    2  A    between atoms: C_3  and  O_6 
REMARK    3  A    between atoms: C_3  and  C_4 
REMARK    4  A    between atoms: C_7  and  O_6 
REMARK    5  A    between atoms: C_9  and  C_10 
REMARK    6  A    between atoms: N_15  and  C_14 
REMARK    7  A    between atoms: N_20  and  C_19 
REMARK       I    between atoms: C_22  and  N_20 
ROOT
ATOM      1  C   LIG d   1     -25.716  85.307 114.343  0.00  0.00     0.161 C 
ATOM      2  C   LIG d   1     -24.748  86.325 114.376  0.00  0.00     0.016 C 
ATOM      3  C   LIG d   1     -23.447  86.179 113.840  0.00  0.00     0.038 C 
ATOM      4  C   LIG d   1     -23.074  85.049 113.096  0.00  0.00     0.028 C 
ATOM      5  C   LIG d   1     -23.851  83.792 113.473  0.00  0.00    -0.047 C 
ATOM      6  C   LIG d   1     -25.364  84.108 113.438  0.00  0.00     0.091 C 
ENDROOT
BRANCH   1   7
ATOM      7  O   LIG d   1     -26.993  85.860 113.969  0.00  0.00    -0.368 OA
BRANCH   7   8
ATOM      8  C   LIG d   1     -27.139  86.242 112.579  0.00  0.00     0.119 C 
BRANCH   8   9
ATOM      9  C   LIG d   1     -27.696  87.678 112.550  0.00  0.00     0.028 C 
ATOM     10  C   LIG d   1     -26.593  88.731 112.345  0.00  0.00     0.006 C 
ENDBRANCH   8   9
BRANCH   8  11
ATOM     11  C   LIG d   1     -28.194  85.384 111.873  0.00  0.00     0.028 C 
ATOM     12  C   LIG d   1     -29.625  85.899 112.093  0.00  0.00     0.006 C 
ENDBRANCH   8  11
ENDBRANCH   7   8
ENDBRANCH   1   7
BRANCH   6  13
ATOM     13  N   LIG d   1     -26.194  82.955 113.876  0.00  0.00    -0.311 N 
ATOM     14  C   LIG d   1     -26.715  82.066 113.033  0.00  0.00     0.210 C 
ATOM     15  C   LIG d   1     -27.555  80.967 113.691  0.00  0.00     0.109 C 
ATOM     16  O   LIG d   1     -26.535  82.064 111.806  0.00  0.00    -0.276 OA
ATOM     17  H   LIG d   1     -26.364  82.863 114.858  0.00  0.00     0.149 HD
ENDBRANCH   6  13
BRANCH   5  18
ATOM     18  N   LIG d   1     -23.461  82.728 112.530  0.00  0.00     0.381 N 
ATOM     19  H   LIG d   1     -22.900  82.046 113.001  0.00  0.00    -0.090 HD
ATOM     20  H   LIG d   1     -22.912  83.132 111.792  0.00  0.00    -0.090 HD
ATOM     21  H   LIG d   1     -24.273  82.294 112.150  0.00  0.00    -0.090 HD
ENDBRANCH   5  18
BRANCH   3  22
ATOM     22  C   LIG d   1     -22.492  87.154 114.081  0.00  0.00     0.382 C 
ATOM     23  O   LIG d   1     -21.385  87.107 113.491  0.00  0.00    -0.241 OA
ATOM     24  O   LIG d   1     -22.704  88.055 114.915  0.00  0.00    -0.241 OA
ENDBRANCH   3  22
TORSDOF 7
ENDMDL
MODEL 4
REMARK VINA RESULT:      -4.6      9.097     11.010
REMARK  7 active torsions:
REMARK  status: ('A' for Active; 'I' for Inactive)
REMARK    1  A    between atoms: C_2  and  C_3 
REMARK    2  A    between atoms: C_3  and  O_6 
REMARK    3  A    between atoms: C_3  and  C_4 
REMARK    4  A    between atoms: C_7  and  O_6 
REMARK    5  A    between atoms: C_9  and  C_10 
REMARK    6  A    between atoms: N_15  and  C_14 
REMARK    7  A    between atoms: N_20  and  C_19 
REMARK       I    between atoms: C_22  and  N_20 
ROOT
ATOM      1  C   LIG d   1      10.459  79.322 114.129  0.00  0.00     0.161 C 
ATOM      2  C   LIG d   1       9.176  79.429 114.691  0.00  0.00     0.016 C 
ATOM      3  C   LIG d   1       8.557  78.388 115.421  0.00  0.00     0.038 C 
ATOM      4  C   LIG d   1       9.245  77.216 115.769  0.00  0.00     0.028 C 
ATOM      5  C   LIG d   1      10.362  76.857 114.794  0.00  0.00    -0.047 C 
ATOM      6  C   LIG d   1      11.268  78.093 114.592  0.00  0.00     0.091 C 
ENDROOT
BRANCH   1   7
ATOM      7  O   LIG d   1      11.202  80.532 114.373  0.00  0.00    -0.368 OA
BRANCH   7   8
ATOM      8  C   LIG d   1      10.736  81.356 115.470  0.00  0.00     0.119 C 
BRANCH   8   9
ATOM      9  C   LIG d   1      10.243  82.688 114.872  0.00  0.00     0.028 C 
ATOM     10  C   LIG d   1       9.804  83.690 115.953  0.00  0.00     0.006 C 
ENDBRANCH   8   9
BRANCH   8  11
ATOM     11  C   LIG d   1      11.884  81.734 116.411  0.00  0.00     0.028 C 
ATOM     12  C   LIG d   1      13.264  81.360 115.847  0.00  0.00     0.006 C 
ENDBRANCH   8  11
ENDBRANCH   7   8
ENDBRANCH   1   7
BRANCH   6  13
ATOM     13  N   LIG d   1      12.337  77.853 113.588  0.00  0.00    -0.311 N 
ATOM     14  C   LIG d   1      13.636  77.874 113.882  0.00  0.00     0.210 C 
ATOM     15  C   LIG d   1      14.571  77.622 112.695  0.00  0.00     0.109 C 
ATOM     16  O   LIG d   1      14.102  78.045 115.018  0.00  0.00    -0.276 OA
ATOM     17  H   LIG d   1      12.047  77.675 112.647  0.00  0.00     0.149 HD
ENDBRANCH   6  13
BRANCH   5  18
ATOM     18  N   LIG d   1      11.082  75.696 115.350  0.00  0.00     0.381 N 
ATOM     19  H   LIG d   1      10.761  74.856 114.911  0.00  0.00    -0.090 HD
ATOM     20  H   LIG d   1      10.886  75.632 116.334  0.00  0.00    -0.090 HD
ATOM     21  H   LIG d   1      12.062  75.802 115.206  0.00  0.00    -0.090 HD
ENDBRANCH   5  18
BRANCH   3  22
ATOM     22  C   LIG d   1       7.222  78.498 115.777  0.00  0.00     0.382 C 
ATOM     23  O   LIG d   1       6.356  78.729 114.898  0.00  0.00    -0.241 OA
ATOM     24  O   LIG d   1       6.877  78.415 116.971  0.00  0.00    -0.241 OA
ENDBRANCH   3  22
TORSDOF 7
ENDMDL
MODEL 5
REMARK VINA RESULT:      -4.5      9.899     11.574
REMARK  7 active torsions:
REMARK  status: ('A' for Active; 'I' for Inactive)
REMARK    1  A    between atoms: C_2  and  C_3 
REMARK    2  A    between atoms: C_3  and  O_6 
REMARK    3  A    between atoms: C_3  and  C_4 
REMARK    4  A    between atoms: C_7  and  O_6 
REMARK    5  A    between atoms: C_9  and  C_10 
REMARK    6  A    between atoms: N_15  and  C_14 
REMARK    7  A    between atoms: N_20  and  C_19 
REMARK       I    between atoms: C_22  and  N_20 
ROOT
ATOM      1  C   LIG d   1      10.878  78.818 114.575  0.00  0.00     0.161 C 
ATOM      2  C   LIG d   1       9.531  79.119 114.835  0.00  0.00     0.016 C 
ATOM      3  C   LIG d   1       8.626  78.199 115.413  0.00  0.00     0.038 C 
ATOM      4  C   LIG d   1       9.048  76.957 115.911  0.00  0.00     0.028 C 
ATOM      5  C   LIG d   1      10.290  76.415 115.212  0.00  0.00    -0.047 C 
ATOM      6  C   LIG d   1      11.383  77.507 115.213  0.00  0.00     0.091 C 
ENDROOT
BRANCH   1   7
ATOM      7  O   LIG d   1      11.711  79.924 114.974  0.00  0.00    -0.368 OA
BRANCH   7   8
ATOM      8  C   LIG d   1      12.456  80.576 113.916  0.00  0.00     0.119 C 
BRANCH   8   9
ATOM      9  C   LIG d   1      11.941  80.017 112.576  0.00  0.00     0.028 C 
ATOM     10  C   LIG d   1      11.086  81.037 111.805  0.00  0.00     0.006 C 
ENDBRANCH   8   9
BRANCH   8  11
ATOM     11  C   LIG d   1      13.941  80.201 113.968  0.00  0.00     0.028 C 
ATOM     12  C   LIG d   1      14.582  80.115 112.574  0.00  0.00     0.006 C 
ENDBRANCH   8  11
ENDBRANCH   7   8
ENDBRANCH   1   7
BRANCH   6  13
ATOM     13  N   LIG d   1      12.603  77.089 114.475  0.00  0.00    -0.311 N 
ATOM     14  C   LIG d   1      13.691  76.605 115.072  0.00  0.00     0.210 C 
ATOM     15  C   LIG d   1      14.845  76.253 114.127  0.00  0.00     0.109 C 
ATOM     16  O   LIG d   1      13.799  76.403 116.291  0.00  0.00    -0.276 OA
ATOM     17  H   LIG d   1      12.591  77.189 113.479  0.00  0.00     0.149 HD
ENDBRANCH   6  13
BRANCH   5  18
ATOM     18  N   LIG d   1      10.699  75.187 115.921  0.00  0.00     0.381 N 
ATOM     19  H   LIG d   1      11.054  75.421 116.826  0.00  0.00    -0.090 HD
ATOM     20  H   LIG d   1      11.434  74.741 115.400  0.00  0.00    -0.090 HD
ATOM     21  H   LIG d   1       9.923  74.570 116.009  0.00  0.00    -0.090 HD
ENDBRANCH   5  18
BRANCH   3  22
ATOM     22  C   LIG d   1       7.274  78.502 115.460  0.00  0.00     0.382 C 
ATOM     23  O   LIG d   1       6.672  78.849 114.415  0.00  0.00    -0.241 OA
ATOM     24  O   LIG d   1       6.658  78.476 116.542  0.00  0.00    -0.241 OA
ENDBRANCH   3  22
TORSDOF 7
ENDMDL
MODEL 6
REMARK VINA RESULT:      -4.4      1.719      2.267
REMARK  7 active torsions:
REMARK  status: ('A' for Active; 'I' for Inactive)
REMARK    1  A    between atoms: C_2  and  C_3 
REMARK    2  A    between atoms: C_3  and  O_6 
REMARK    3  A    between atoms: C_3  and  C_4 
REMARK    4  A    between atoms: C_7  and  O_6 
REMARK    5  A    between atoms: C_9  and  C_10 
REMARK    6  A    between atoms: N_15  and  C_14 
REMARK    7  A    between atoms: N_20  and  C_19 
REMARK       I    between atoms: C_22  and  N_20 
ROOT
ATOM      1  C   LIG d   1       3.430  85.471 114.510  0.00  0.00     0.161 C 
ATOM      2  C   LIG d   1       3.228  86.482 113.555  0.00  0.00     0.016 C 
ATOM      3  C   LIG d   1       3.972  87.684 113.527  0.00  0.00     0.038 C 
ATOM      4  C   LIG d   1       5.078  87.892 114.365  0.00  0.00     0.028 C 
ATOM      5  C   LIG d   1       4.999  87.116 115.675  0.00  0.00    -0.047 C 
ATOM      6  C   LIG d   1       4.706  85.631 115.362  0.00  0.00     0.091 C 
ENDROOT
BRANCH   1   7
ATOM      7  O   LIG d   1       3.416  84.182 113.865  0.00  0.00    -0.368 OA
BRANCH   7   8
ATOM      8  C   LIG d   1       2.227  83.380 114.069  0.00  0.00     0.119 C 
BRANCH   8   9
ATOM      9  C   LIG d   1       1.314  83.586 112.845  0.00  0.00     0.028 C 
ATOM     10  C   LIG d   1      -0.143  83.179 113.124  0.00  0.00     0.006 C 
ENDBRANCH   8   9
BRANCH   8  11
ATOM     11  C   LIG d   1       1.416  83.880 115.268  0.00  0.00     0.028 C 
ATOM     12  C   LIG d   1       1.480  82.926 116.471  0.00  0.00     0.006 C 
ENDBRANCH   8  11
ENDBRANCH   7   8
ENDBRANCH   1   7
BRANCH   6  13
ATOM     13  N   LIG d   1       4.529  84.817 116.593  0.00  0.00    -0.311 N 
ATOM     14  C   LIG d   1       5.523  84.154 117.182  0.00  0.00     0.210 C 
ATOM     15  C   LIG d   1       5.121  83.360 118.429  0.00  0.00     0.109 C 
ATOM     16  O   LIG d   1       6.706  84.175 116.810  0.00  0.00    -0.276 OA
ATOM     17  H   LIG d   1       3.607  84.770 116.981  0.00  0.00     0.149 HD
ENDBRANCH   6  13
BRANCH   5  18
ATOM     18  N   LIG d   1       6.275  87.315 116.388  0.00  0.00     0.381 N 
ATOM     19  H   LIG d   1       6.803  86.465 116.383  0.00  0.00    -0.090 HD
ATOM     20  H   LIG d   1       6.079  87.559 117.343  0.00  0.00    -0.090 HD
ATOM     21  H   LIG d   1       6.799  88.043 115.954  0.00  0.00    -0.090 HD
ENDBRANCH   5  18
BRANCH   3  22
ATOM     22  C   LIG d   1       3.586  88.711 112.679  0.00  0.00     0.382 C 
ATOM     23  O   LIG d   1       2.654  88.531 111.859  0.00  0.00    -0.241 OA
ATOM     24  O   LIG d   1       4.188  89.802 112.693  0.00  0.00    -0.241 OA
ENDBRANCH   3  22
TORSDOF 7
ENDMDL
MODEL 7
REMARK VINA RESULT:      -4.4     11.077     12.793
REMARK  7 active torsions:
REMARK  status: ('A' for Active; 'I' for Inactive)
REMARK    1  A    between atoms: C_2  and  C_3 
REMARK    2  A    between atoms: C_3  and  O_6 
REMARK    3  A    between atoms: C_3  and  C_4 
REMARK    4  A    between atoms: C_7  and  O_6 
REMARK    5  A    between atoms: C_9  and  C_10 
REMARK    6  A    between atoms: N_15  and  C_14 
REMARK    7  A    between atoms: N_20  and  C_19 
REMARK       I    between atoms: C_22  and  N_20 
ROOT
ATOM      1  C   LIG d   1      12.368  77.642 114.621  0.00  0.00     0.161 C 
ATOM      2  C   LIG d   1      13.593  76.955 114.649  0.00  0.00     0.016 C 
ATOM      3  C   LIG d   1      13.732  75.632 115.130  0.00  0.00     0.038 C 
ATOM      4  C   LIG d   1      12.620  74.849 115.477  0.00  0.00     0.028 C 
ATOM      5  C   LIG d   1      11.422  75.670 115.941  0.00  0.00    -0.047 C 
ATOM      6  C   LIG d   1      11.128  76.766 114.891  0.00  0.00     0.091 C 
ENDROOT
BRANCH   1   7
ATOM      7  O   LIG d   1      12.227  78.337 113.366  0.00  0.00    -0.368 OA
BRANCH   7   8
ATOM      8  C   LIG d   1      12.418  79.773 113.407  0.00  0.00     0.119 C 
BRANCH   8   9
ATOM      9  C   LIG d   1      11.080  80.429 113.012  0.00  0.00     0.028 C 
ATOM     10  C   LIG d   1      10.366  81.073 114.212  0.00  0.00     0.006 C 
ENDBRANCH   8   9
BRANCH   8  11
ATOM     11  C   LIG d   1      13.423  80.232 112.346  0.00  0.00     0.028 C 
ATOM     12  C   LIG d   1      14.874  80.216 112.854  0.00  0.00     0.006 C 
ENDBRANCH   8  11
ENDBRANCH   7   8
ENDBRANCH   1   7
BRANCH   6  13
ATOM     13  N   LIG d   1      10.022  77.667 115.308  0.00  0.00    -0.311 N 
ATOM     14  C   LIG d   1       8.739  77.422 115.048  0.00  0.00     0.210 C 
ATOM     15  C   LIG d   1       7.762  78.491 115.549  0.00  0.00     0.109 C 
ATOM     16  O   LIG d   1       8.314  76.406 114.478  0.00  0.00    -0.276 OA
ATOM     17  H   LIG d   1      10.275  78.500 115.803  0.00  0.00     0.149 HD
ENDBRANCH   6  13
BRANCH   5  18
ATOM     18  N   LIG d   1      10.294  74.740 116.137  0.00  0.00     0.381 N 
ATOM     19  H   LIG d   1       9.777  74.650 115.286  0.00  0.00    -0.090 HD
ATOM     20  H   LIG d   1       9.682  75.115 116.840  0.00  0.00    -0.090 HD
ATOM     21  H   LIG d   1      10.633  73.848 116.424  0.00  0.00    -0.090 HD
ENDBRANCH   5  18
BRANCH   3  22
ATOM     22  C   LIG d   1      14.997  75.094 115.305  0.00  0.00     0.382 C 
ATOM     23  O   LIG d   1      15.597  75.245 116.397  0.00  0.00    -0.241 OA
ATOM     24  O   LIG d   1      15.565  74.497 114.371  0.00  0.00    -0.241 OA
ENDBRANCH   3  22
TORSDOF 7
ENDMDL
MODEL 8
REMARK VINA RESULT:      -4.3      8.521     10.533
REMARK  7 active torsions:
REMARK  status: ('A' for Active; 'I' for Inactive)
REMARK    1  A    between atoms: C_2  and  C_3 
REMARK    2  A    between atoms: C_3  and  O_6 
REMARK    3  A    between atoms: C_3  and  C_4 
REMARK    4  A    between atoms: C_7  and  O_6 
REMARK    5  A    between atoms: C_9  and  C_10 
REMARK    6  A    between atoms: N_15  and  C_14 
REMARK    7  A    between atoms: N_20  and  C_19 
REMARK       I    between atoms: C_22  and  N_20 
ROOT
ATOM      1  C   LIG d   1      11.178  79.900 115.384  0.00  0.00     0.161 C 
ATOM      2  C   LIG d   1      10.798  78.603 115.001  0.00  0.00     0.016 C 
ATOM      3  C   LIG d   1       9.575  78.005 115.384  0.00  0.00     0.038 C 
ATOM      4  C   LIG d   1       8.576  78.726 116.055  0.00  0.00     0.028 C 
ATOM      5  C   LIG d   1       9.120  79.875 116.898  0.00  0.00    -0.047 C 
ATOM      6  C   LIG d   1      10.054  80.741 116.022  0.00  0.00     0.091 C 
ENDROOT
BRANCH   1   7
ATOM      7  O   LIG d   1      11.746  80.595 114.256  0.00  0.00    -0.368 OA
BRANCH   7   8
ATOM      8  C   LIG d   1      12.155  79.769 113.138  0.00  0.00     0.119 C 
BRANCH   8   9
ATOM      9  C   LIG d   1      13.695  79.784 113.090  0.00  0.00     0.028 C 
ATOM     10  C   LIG d   1      14.302  80.809 114.063  0.00  0.00     0.006 C 
ENDBRANCH   8   9
BRANCH   8  11
ATOM     11  C   LIG d   1      11.702  80.372 111.805  0.00  0.00     0.028 C 
ATOM     12  C   LIG d   1      10.775  81.585 111.984  0.00  0.00     0.006 C 
ENDBRANCH   8  11
ENDBRANCH   7   8
ENDBRANCH   1   7
BRANCH   6  13
ATOM     13  N   LIG d   1      10.695  81.839 116.792  0.00  0.00    -0.311 N 
ATOM     14  C   LIG d   1      10.196  83.072 116.866  0.00  0.00     0.210 C 
ATOM     15  C   LIG d   1      11.025  84.057 117.695  0.00  0.00     0.109 C 
ATOM     16  O   LIG d   1       9.128  83.434 116.349  0.00  0.00    -0.276 OA
ATOM     17  H   LIG d   1      11.549  81.624 117.268  0.00  0.00     0.149 HD
ENDBRANCH   6  13
BRANCH   5  18
ATOM     18  N   LIG d   1       7.965  80.624 117.429  0.00  0.00     0.381 N 
ATOM     19  H   LIG d   1       8.275  81.492 117.817  0.00  0.00    -0.090 HD
ATOM     20  H   LIG d   1       7.538  80.085 118.162  0.00  0.00    -0.090 HD
ATOM     21  H   LIG d   1       7.305  80.792 116.702  0.00  0.00    -0.090 HD
ENDBRANCH   5  18
BRANCH   3  22
ATOM     22  C   LIG d   1       9.358  76.659 115.130  0.00  0.00     0.382 C 
ATOM     23  O   LIG d   1       8.339  76.298 114.494  0.00  0.00    -0.241 OA
ATOM     24  O   LIG d   1      10.146  75.799 115.568  0.00  0.00    -0.241 OA
ENDBRANCH   3  22
TORSDOF 7
ENDMDL
MODEL 9
REMARK VINA RESULT:      -4.3     10.784     12.641
REMARK  7 active torsions:
REMARK  status: ('A' for Active; 'I' for Inactive)
REMARK    1  A    between atoms: C_2  and  C_3 
REMARK    2  A    between atoms: C_3  and  O_6 
REMARK    3  A    between atoms: C_3  and  C_4 
REMARK    4  A    between atoms: C_7  and  O_6 
REMARK    5  A    between atoms: C_9  and  C_10 
REMARK    6  A    between atoms: N_15  and  C_14 
REMARK    7  A    between atoms: N_20  and  C_19 
REMARK       I    between atoms: C_22  and  N_20 
ROOT
ATOM      1  C   LIG d   1      12.448  77.745 114.666  0.00  0.00     0.161 C 
ATOM      2  C   LIG d   1      12.643  76.363 114.826  0.00  0.00     0.016 C 
ATOM      3  C   LIG d   1      11.790  75.542 115.600  0.00  0.00     0.038 C 
ATOM      4  C   LIG d   1      10.591  76.025 116.146  0.00  0.00     0.028 C 
ATOM      5  C   LIG d   1      10.615  77.522 116.432  0.00  0.00    -0.047 C 
ATOM      6  C   LIG d   1      11.084  78.268 115.162  0.00  0.00     0.091 C 
ENDROOT
BRANCH   1   7
ATOM      7  O   LIG d   1      12.653  78.111 113.287  0.00  0.00    -0.368 OA
BRANCH   7   8
ATOM      8  C   LIG d   1      13.854  78.869 113.000  0.00  0.00     0.119 C 
BRANCH   8   9
ATOM      9  C   LIG d   1      13.425  80.156 112.269  0.00  0.00     0.028 C 
ATOM     10  C   LIG d   1      11.959  80.107 111.806  0.00  0.00     0.006 C 
ENDBRANCH   8   9
BRANCH   8  11
ATOM     11  C   LIG d   1      14.760  78.126 112.014  0.00  0.00     0.028 C 
ATOM     12  C   LIG d   1      15.772  77.205 112.714  0.00  0.00     0.006 C 
ENDBRANCH   8  11
ENDBRANCH   7   8
ENDBRANCH   1   7
BRANCH   6  13
ATOM     13  N   LIG d   1      11.217  79.732 115.382  0.00  0.00    -0.311 N 
ATOM     14  C   LIG d   1      10.287  80.615 115.021  0.00  0.00     0.210 C 
ATOM     15  C   LIG d   1      10.631  82.077 115.321  0.00  0.00     0.109 C 
ATOM     16  O   LIG d   1       9.195  80.323 114.510  0.00  0.00    -0.276 OA
ATOM     17  H   LIG d   1      12.058  80.054 115.819  0.00  0.00     0.149 HD
ENDBRANCH   6  13
BRANCH   5  18
ATOM     18  N   LIG d   1       9.261  77.915 116.867  0.00  0.00     0.381 N 
ATOM     19  H   LIG d   1       9.030  77.444 117.719  0.00  0.00    -0.090 HD
ATOM     20  H   LIG d   1       8.601  77.636 116.163  0.00  0.00    -0.090 HD
ATOM     21  H   LIG d   1       9.219  78.901 117.001  0.00  0.00    -0.090 HD
ENDBRANCH   5  18
BRANCH   3  22
ATOM     22  C   LIG d   1      12.156  74.232 115.867  0.00  0.00     0.382 C 
ATOM     23  O   LIG d   1      13.356  73.950 116.097  0.00  0.00    -0.241 OA
ATOM     24  O   LIG d   1      11.307  73.321 115.838  0.00  0.00    -0.241 OA
ENDBRANCH   3  22
TORSDOF 7
ENDMDL
