MODEL 1
REMARK VINA RESULT:      -5.3      0.000      0.000
REMARK  7 active torsions:
REMARK  status: ('A' for Active; 'I' for Inactive)
REMARK    1  A    between atoms: C_2  and  C_3 
REMARK    2  A    between atoms: C_3  and  O_6 
REMARK    3  A    between atoms: C_3  and  C_4 
REMARK    4  A    between atoms: C_7  and  O_6 
REMARK    5  A    between atoms: C_9  and  C_10 
REMARK    6  A    between atoms: N_15  and  C_14 
REMARK    7  A    between atoms: N_20  and  C_19 
REMARK       I    between atoms: C_22  and  N_20 
ROOT
ATOM      1  C   LIG d   1      -6.048  78.773 117.483  0.00  0.00     0.161 C 
ATOM      2  C   LIG d   1      -7.430  78.590 117.655  0.00  0.00     0.016 C 
ATOM      3  C   LIG d   1      -8.333  79.652 117.894  0.00  0.00     0.038 C 
ATOM      4  C   LIG d   1      -7.932  80.994 117.827  0.00  0.00     0.028 C 
ATOM      5  C   LIG d   1      -6.458  81.203 118.158  0.00  0.00    -0.047 C 
ATOM      6  C   LIG d   1      -5.609  80.240 117.296  0.00  0.00     0.091 C 
ENDROOT
BRANCH   1   7
ATOM      7  O   LIG d   1      -5.581  77.966 116.384  0.00  0.00    -0.368 OA
BRANCH   7   8
ATOM      8  C   LIG d   1      -5.818  76.541 116.493  0.00  0.00     0.119 C 
BRANCH   8   9
ATOM      9  C   LIG d   1      -4.445  75.850 116.595  0.00  0.00     0.028 C 
ATOM     10  C   LIG d   1      -4.501  74.553 117.420  0.00  0.00     0.006 C 
ENDBRANCH   8   9
BRANCH   8  11
ATOM     11  C   LIG d   1      -6.459  75.984 115.218  0.00  0.00     0.028 C 
ATOM     12  C   LIG d   1      -5.451  75.813 114.071  0.00  0.00     0.006 C 
ENDBRANCH   8  11
ENDBRANCH   7   8
ENDBRANCH   1   7
BRANCH   6  13
ATOM     13  N   LIG d   1      -4.160  80.320 117.618  0.00  0.00    -0.311 N 
ATOM     14  C   LIG d   1      -3.218  80.544 116.703  0.00  0.00     0.210 C 
ATOM     15  C   LIG d   1      -1.785  80.569 117.244  0.00  0.00     0.109 C 
ATOM     16  O   LIG d   1      -3.435  80.758 115.501  0.00  0.00    -0.276 OA
ATOM     17  H   LIG d   1      -3.897  80.190 118.575  0.00  0.00     0.149 HD
ENDBRANCH   6  13
BRANCH   5  18
ATOM     18  N   LIG d   1      -6.144  82.624 117.916  0.00  0.00     0.381 N 
ATOM     19  H   LIG d   1      -5.644  82.999 118.698  0.00  0.00    -0.090 HD
ATOM     20  H   LIG d   1      -7.004  83.135 117.817  0.00  0.00    -0.090 HD
ATOM     21  H   LIG d   1      -5.597  82.717 117.088  0.00  0.00    -0.090 HD
ENDBRANCH   5  18
BRANCH   3  22
ATOM     22  C   LIG d   1      -9.645  79.373 118.244  0.00  0.00     0.382 C 
ATOM     23  O   LIG d   1     -10.067  78.192 118.204  0.00  0.00    -0.241 OA
ATOM     24  O   LIG d   1     -10.425  80.293 118.555  0.00  0.00    -0.241 OA
ENDBRANCH   3  22
TORSDOF 7
ENDMDL
MODEL 2
REMARK VINA RESULT:      -5.2      4.715      6.143
REMARK  7 active torsions:
REMARK  status: ('A' for Active; 'I' for Inactive)
REMARK    1  A    between atoms: C_2  and  C_3 
REMARK    2  A    between atoms: C_3  and  O_6 
REMARK    3  A    between atoms: C_3  and  C_4 
REMARK    4  A    between atoms: C_7  and  O_6 
REMARK    5  A    between atoms: C_9  and  C_10 
REMARK    6  A    between atoms: N_15  and  C_14 
REMARK    7  A    between atoms: N_20  and  C_19 
REMARK       I    between atoms: C_22  and  N_20 
ROOT
ATOM      1  C   LIG d   1      -2.448  78.287 114.851  0.00  0.00     0.161 C 
ATOM      2  C   LIG d   1      -2.845  79.265 113.924  0.00  0.00     0.016 C 
ATOM      3  C   LIG d   1      -2.001  80.312 113.489  0.00  0.00     0.038 C 
ATOM      4  C   LIG d   1      -0.644  80.365 113.840  0.00  0.00     0.028 C 
ATOM      5  C   LIG d   1      -0.335  79.688 115.171  0.00  0.00    -0.047 C 
ATOM      6  C   LIG d   1      -0.937  78.264 115.160  0.00  0.00     0.091 C 
ENDROOT
BRANCH   1   7
ATOM      7  O   LIG d   1      -2.890  76.988 114.410  0.00  0.00    -0.368 OA
BRANCH   7   8
ATOM      8  C   LIG d   1      -3.967  76.388 115.171  0.00  0.00     0.119 C 
BRANCH   8   9
ATOM      9  C   LIG d   1      -3.411  75.115 115.837  0.00  0.00     0.028 C 
ATOM     10  C   LIG d   1      -4.051  74.843 117.209  0.00  0.00     0.006 C 
ENDBRANCH   8   9
BRANCH   8  11
ATOM     11  C   LIG d   1      -5.095  75.906 114.254  0.00  0.00     0.028 C 
ATOM     12  C   LIG d   1      -6.491  76.144 114.851  0.00  0.00     0.006 C 
ENDBRANCH   8  11
ENDBRANCH   7   8
ENDBRANCH   1   7
BRANCH   6  13
ATOM     13  N   LIG d   1      -0.754  77.561 116.457  0.00  0.00    -0.311 N 
ATOM     14  C   LIG d   1      -0.272  76.324 116.559  0.00  0.00     0.210 C 
ATOM     15  C   LIG d   1      -0.183  75.780 117.989  0.00  0.00     0.109 C 
ATOM     16  O   LIG d   1       0.121  75.637 115.604  0.00  0.00    -0.276 OA
ATOM     17  H   LIG d   1      -1.018  78.057 117.286  0.00  0.00     0.149 HD
ENDBRANCH   6  13
BRANCH   5  18
ATOM     18  N   LIG d   1       1.129  79.695 115.347  0.00  0.00     0.381 N 
ATOM     19  H   LIG d   1       1.552  80.263 114.640  0.00  0.00    -0.090 HD
ATOM     20  H   LIG d   1       1.474  78.757 115.245  0.00  0.00    -0.090 HD
ATOM     21  H   LIG d   1       1.363  80.047 116.249  0.00  0.00    -0.090 HD
ENDBRANCH   5  18
BRANCH   3  22
ATOM     22  C   LIG d   1      -2.524  81.344 112.725  0.00  0.00     0.382 C 
ATOM     23  O   LIG d   1      -3.761  81.415 112.531  0.00  0.00    -0.241 OA
ATOM     24  O   LIG d   1      -1.770  82.179 112.189  0.00  0.00    -0.241 OA
ENDBRANCH   3  22
TORSDOF 7
ENDMDL
MODEL 3
REMARK VINA RESULT:      -5.1      6.803      9.750
REMARK  7 active torsions:
REMARK  status: ('A' for Active; 'I' for Inactive)
REMARK    1  A    between atoms: C_2  and  C_3 
REMARK    2  A    between atoms: C_3  and  O_6 
REMARK    3  A    between atoms: C_3  and  C_4 
REMARK    4  A    between atoms: C_7  and  O_6 
REMARK    5  A    between atoms: C_9  and  C_10 
REMARK    6  A    between atoms: N_15  and  C_14 
REMARK    7  A    between atoms: N_20  and  C_19 
REMARK       I    between atoms: C_22  and  N_20 
ROOT
ATOM      1  C   LIG d   1       0.130  83.714 113.498  0.00  0.00     0.161 C 
ATOM      2  C   LIG d   1      -1.118  83.094 113.678  0.00  0.00     0.016 C 
ATOM      3  C   LIG d   1      -1.393  81.767 113.275  0.00  0.00     0.038 C 
ATOM      4  C   LIG d   1      -0.387  80.913 112.798  0.00  0.00     0.028 C 
ATOM      5  C   LIG d   1       0.768  81.652 112.130  0.00  0.00    -0.047 C 
ATOM      6  C   LIG d   1       1.271  82.762 113.082  0.00  0.00     0.091 C 
ENDROOT
BRANCH   1   7
ATOM      7  O   LIG d   1       0.492  84.438 114.691  0.00  0.00    -0.368 OA
BRANCH   7   8
ATOM      8  C   LIG d   1       0.279  85.870 114.656  0.00  0.00     0.119 C 
BRANCH   8   9
ATOM      9  C   LIG d   1       1.635  86.547 114.937  0.00  0.00     0.028 C 
ATOM     10  C   LIG d   1       2.275  86.058 116.247  0.00  0.00     0.006 C 
ENDBRANCH   8   9
BRANCH   8  11
ATOM     11  C   LIG d   1      -0.643  86.325 115.791  0.00  0.00     0.028 C 
ATOM     12  C   LIG d   1      -2.122  86.008 115.520  0.00  0.00     0.006 C 
ENDBRANCH   8  11
ENDBRANCH   7   8
ENDBRANCH   1   7
BRANCH   6  13
ATOM     13  N   LIG d   1       2.345  83.588 112.471  0.00  0.00    -0.311 N 
ATOM     14  C   LIG d   1       3.472  83.910 113.105  0.00  0.00     0.210 C 
ATOM     15  C   LIG d   1       4.438  84.786 112.302  0.00  0.00     0.109 C 
ATOM     16  O   LIG d   1       3.777  83.527 114.244  0.00  0.00    -0.276 OA
ATOM     17  H   LIG d   1       2.194  83.915 111.537  0.00  0.00     0.149 HD
ENDBRANCH   6  13
BRANCH   5  18
ATOM     18  N   LIG d   1       1.806  80.656 111.805  0.00  0.00     0.381 N 
ATOM     19  H   LIG d   1       2.655  81.121 111.553  0.00  0.00    -0.090 HD
ATOM     20  H   LIG d   1       1.499  80.112 111.018  0.00  0.00    -0.090 HD
ATOM     21  H   LIG d   1       1.964  80.060 112.588  0.00  0.00    -0.090 HD
ENDBRANCH   5  18
BRANCH   3  22
ATOM     22  C   LIG d   1      -2.696  81.294 113.310  0.00  0.00     0.382 C 
ATOM     23  O   LIG d   1      -3.072  80.563 114.257  0.00  0.00    -0.241 OA
ATOM     24  O   LIG d   1      -3.487  81.553 112.383  0.00  0.00    -0.241 OA
ENDBRANCH   3  22
TORSDOF 7
ENDMDL
MODEL 4
REMARK VINA RESULT:      -5.0      8.641     12.758
REMARK  7 active torsions:
REMARK  status: ('A' for Active; 'I' for Inactive)
REMARK    1  A    between atoms: C_2  and  C_3 
REMARK    2  A    between atoms: C_3  and  O_6 
REMARK    3  A    between atoms: C_3  and  C_4 
REMARK    4  A    between atoms: C_7  and  O_6 
REMARK    5  A    between atoms: C_9  and  C_10 
REMARK    6  A    between atoms: N_15  and  C_14 
REMARK    7  A    between atoms: N_20  and  C_19 
REMARK       I    between atoms: C_22  and  N_20 
ROOT
ATOM      1  C   LIG d   1       2.009  86.620 114.596  0.00  0.00     0.161 C 
ATOM      2  C   LIG d   1       2.833  87.705 114.254  0.00  0.00     0.016 C 
ATOM      3  C   LIG d   1       3.762  87.672 113.189  0.00  0.00     0.038 C 
ATOM      4  C   LIG d   1       3.822  86.595 112.291  0.00  0.00     0.028 C 
ATOM      5  C   LIG d   1       3.364  85.274 112.899  0.00  0.00    -0.047 C 
ATOM      6  C   LIG d   1       1.981  85.478 113.559  0.00  0.00     0.091 C 
ENDROOT
BRANCH   1   7
ATOM      7  O   LIG d   1       0.672  87.088 114.862  0.00  0.00    -0.368 OA
BRANCH   7   8
ATOM      8  C   LIG d   1       0.242  87.036 116.245  0.00  0.00     0.119 C 
BRANCH   8   9
ATOM      9  C   LIG d   1      -0.871  85.975 116.345  0.00  0.00     0.028 C 
ATOM     10  C   LIG d   1      -0.507  84.831 117.306  0.00  0.00     0.006 C 
ENDBRANCH   8   9
BRANCH   8  11
ATOM     11  C   LIG d   1      -0.413  88.352 116.675  0.00  0.00     0.028 C 
ATOM     12  C   LIG d   1       0.506  89.568 116.476  0.00  0.00     0.006 C 
ENDBRANCH   8  11
ENDBRANCH   7   8
ENDBRANCH   1   7
BRANCH   6  13
ATOM     13  N   LIG d   1       1.498  84.254 114.251  0.00  0.00    -0.311 N 
ATOM     14  C   LIG d   1       0.642  83.392 113.704  0.00  0.00     0.210 C 
ATOM     15  C   LIG d   1       0.258  82.208 114.597  0.00  0.00     0.109 C 
ATOM     16  O   LIG d   1       0.190  83.479 112.552  0.00  0.00    -0.276 OA
ATOM     17  H   LIG d   1       1.838  84.090 115.178  0.00  0.00     0.149 HD
ENDBRANCH   6  13
BRANCH   5  18
ATOM     18  N   LIG d   1       3.346  84.269 111.819  0.00  0.00     0.381 N 
ATOM     19  H   LIG d   1       2.435  84.229 111.409  0.00  0.00    -0.090 HD
ATOM     20  H   LIG d   1       3.556  83.368 112.210  0.00  0.00    -0.090 HD
ATOM     21  H   LIG d   1       4.021  84.503 111.125  0.00  0.00    -0.090 HD
ENDBRANCH   5  18
BRANCH   3  22
ATOM     22  C   LIG d   1       4.671  88.707 113.037  0.00  0.00     0.382 C 
ATOM     23  O   LIG d   1       4.264  89.890 112.936  0.00  0.00    -0.241 OA
ATOM     24  O   LIG d   1       5.891  88.470 112.955  0.00  0.00    -0.241 OA
ENDBRANCH   3  22
TORSDOF 7
ENDMDL
MODEL 5
REMARK VINA RESULT:      -5.0      9.121     12.009
REMARK  7 active torsions:
REMARK  status: ('A' for Active; 'I' for Inactive)
REMARK    1  A    between atoms: C_2  and  C_3 
REMARK    2  A    between atoms: C_3  and  O_6 
REMARK    3  A    between atoms: C_3  and  C_4 
REMARK    4  A    between atoms: C_7  and  O_6 
REMARK    5  A    between atoms: C_9  and  C_10 
REMARK    6  A    between atoms: N_15  and  C_14 
REMARK    7  A    between atoms: N_20  and  C_19 
REMARK       I    between atoms: C_22  and  N_20 
ROOT
ATOM      1  C   LIG d   1       2.200  86.042 114.011  0.00  0.00     0.161 C 
ATOM      2  C   LIG d   1       1.638  85.029 113.215  0.00  0.00     0.016 C 
ATOM      3  C   LIG d   1       0.276  84.656 113.278  0.00  0.00     0.038 C 
ATOM      4  C   LIG d   1      -0.656  85.378 114.038  0.00  0.00     0.028 C 
ATOM      5  C   LIG d   1      -0.039  86.086 115.240  0.00  0.00    -0.047 C 
ATOM      6  C   LIG d   1       1.176  86.915 114.765  0.00  0.00     0.091 C 
ENDROOT
BRANCH   1   7
ATOM      7  O   LIG d   1       3.069  86.867 113.210  0.00  0.00    -0.368 OA
BRANCH   7   8
ATOM      8  C   LIG d   1       4.483  86.559 113.279  0.00  0.00     0.119 C 
BRANCH   8   9
ATOM      9  C   LIG d   1       5.245  87.897 113.347  0.00  0.00     0.028 C 
ATOM     10  C   LIG d   1       4.300  89.106 113.456  0.00  0.00     0.006 C 
ENDBRANCH   8   9
BRANCH   8  11
ATOM     11  C   LIG d   1       4.969  85.881 111.995  0.00  0.00     0.028 C 
ATOM     12  C   LIG d   1       5.164  84.365 112.159  0.00  0.00     0.006 C 
ENDBRANCH   8  11
ENDBRANCH   7   8
ENDBRANCH   1   7
BRANCH   6  13
ATOM     13  N   LIG d   1       1.888  87.573 115.891  0.00  0.00    -0.311 N 
ATOM     14  C   LIG d   1       1.658  88.828 116.271  0.00  0.00     0.210 C 
ATOM     15  C   LIG d   1       2.517  89.318 117.442  0.00  0.00     0.109 C 
ATOM     16  O   LIG d   1       0.802  89.573 115.770  0.00  0.00    -0.276 OA
ATOM     17  H   LIG d   1       2.578  87.030 116.374  0.00  0.00     0.149 HD
ENDBRANCH   6  13
BRANCH   5  18
ATOM     18  N   LIG d   1      -1.094  86.910 115.861  0.00  0.00     0.381 N 
ATOM     19  H   LIG d   1      -1.501  87.513 115.175  0.00  0.00    -0.090 HD
ATOM     20  H   LIG d   1      -0.680  87.481 116.578  0.00  0.00    -0.090 HD
ATOM     21  H   LIG d   1      -1.795  86.324 116.257  0.00  0.00    -0.090 HD
ENDBRANCH   5  18
BRANCH   3  22
ATOM     22  C   LIG d   1      -0.158  83.524 112.605  0.00  0.00     0.382 C 
ATOM     23  O   LIG d   1      -1.385  83.334 112.426  0.00  0.00    -0.241 OA
ATOM     24  O   LIG d   1       0.659  82.669 112.215  0.00  0.00    -0.241 OA
ENDBRANCH   3  22
TORSDOF 7
ENDMDL
MODEL 6
REMARK VINA RESULT:      -5.0      3.405      6.532
REMARK  7 active torsions:
REMARK  status: ('A' for Active; 'I' for Inactive)
REMARK    1  A    between atoms: C_2  and  C_3 
REMARK    2  A    between atoms: C_3  and  O_6 
REMARK    3  A    between atoms: C_3  and  C_4 
REMARK    4  A    between atoms: C_7  and  O_6 
REMARK    5  A    between atoms: C_9  and  C_10 
REMARK    6  A    between atoms: N_15  and  C_14 
REMARK    7  A    between atoms: N_20  and  C_19 
REMARK       I    between atoms: C_22  and  N_20 
ROOT
ATOM      1  C   LIG d   1      -2.867  79.606 115.767  0.00  0.00     0.161 C 
ATOM      2  C   LIG d   1      -2.715  80.809 115.058  0.00  0.00     0.016 C 
ATOM      3  C   LIG d   1      -2.210  80.877 113.739  0.00  0.00     0.038 C 
ATOM      4  C   LIG d   1      -1.962  79.724 112.980  0.00  0.00     0.028 C 
ATOM      5  C   LIG d   1      -1.621  78.503 113.827  0.00  0.00    -0.047 C 
ATOM      6  C   LIG d   1      -2.706  78.329 114.916  0.00  0.00     0.091 C 
ENDROOT
BRANCH   1   7
ATOM      7  O   LIG d   1      -4.137  79.597 116.449  0.00  0.00    -0.368 OA
BRANCH   7   8
ATOM      8  C   LIG d   1      -4.083  79.588 117.896  0.00  0.00     0.119 C 
BRANCH   8   9
ATOM      9  C   LIG d   1      -5.134  78.576 118.392  0.00  0.00     0.028 C 
ATOM     10  C   LIG d   1      -5.778  77.787 117.240  0.00  0.00     0.006 C 
ENDBRANCH   8   9
BRANCH   8  11
ATOM     11  C   LIG d   1      -4.513  80.938 118.478  0.00  0.00     0.028 C 
ATOM     12  C   LIG d   1      -5.580  81.641 117.624  0.00  0.00     0.006 C 
ENDBRANCH   8  11
ENDBRANCH   7   8
ENDBRANCH   1   7
BRANCH   6  13
ATOM     13  N   LIG d   1      -2.405  77.206 115.842  0.00  0.00    -0.311 N 
ATOM     14  C   LIG d   1      -2.891  75.976 115.685  0.00  0.00     0.210 C 
ATOM     15  C   LIG d   1      -2.472  74.973 116.764  0.00  0.00     0.109 C 
ATOM     16  O   LIG d   1      -3.604  75.613 114.737  0.00  0.00    -0.276 OA
ATOM     17  H   LIG d   1      -1.809  77.405 116.621  0.00  0.00     0.149 HD
ENDBRANCH   6  13
BRANCH   5  18
ATOM     18  N   LIG d   1      -1.522  77.344 112.920  0.00  0.00     0.381 N 
ATOM     19  H   LIG d   1      -2.080  76.591 113.270  0.00  0.00    -0.090 HD
ATOM     20  H   LIG d   1      -0.566  77.039 112.885  0.00  0.00    -0.090 HD
ATOM     21  H   LIG d   1      -1.831  77.599 112.007  0.00  0.00    -0.090 HD
ENDBRANCH   5  18
BRANCH   3  22
ATOM     22  C   LIG d   1      -1.910  82.111 113.181  0.00  0.00     0.382 C 
ATOM     23  O   LIG d   1      -1.801  82.225 111.936  0.00  0.00    -0.241 OA
ATOM     24  O   LIG d   1      -1.705  83.100 113.909  0.00  0.00    -0.241 OA
ENDBRANCH   3  22
TORSDOF 7
ENDMDL
MODEL 7
REMARK VINA RESULT:      -4.9      8.915     12.684
REMARK  7 active torsions:
REMARK  status: ('A' for Active; 'I' for Inactive)
REMARK    1  A    between atoms: C_2  and  C_3 
REMARK    2  A    between atoms: C_3  and  O_6 
REMARK    3  A    between atoms: C_3  and  C_4 
REMARK    4  A    between atoms: C_7  and  O_6 
REMARK    5  A    between atoms: C_9  and  C_10 
REMARK    6  A    between atoms: N_15  and  C_14 
REMARK    7  A    between atoms: N_20  and  C_19 
REMARK       I    between atoms: C_22  and  N_20 
ROOT
ATOM      1  C   LIG d   1       2.356  86.088 113.991  0.00  0.00     0.161 C 
ATOM      2  C   LIG d   1       2.912  87.368 113.829  0.00  0.00     0.016 C 
ATOM      3  C   LIG d   1       4.132  87.608 113.154  0.00  0.00     0.038 C 
ATOM      4  C   LIG d   1       4.807  86.592 112.460  0.00  0.00     0.028 C 
ATOM      5  C   LIG d   1       4.547  85.199 113.022  0.00  0.00    -0.047 C 
ATOM      6  C   LIG d   1       3.022  84.983 113.145  0.00  0.00     0.091 C 
ENDROOT
BRANCH   1   7
ATOM      7  O   LIG d   1       0.940  86.135 113.730  0.00  0.00    -0.368 OA
BRANCH   7   8
ATOM      8  C   LIG d   1       0.075  86.049 114.890  0.00  0.00     0.119 C 
BRANCH   8   9
ATOM      9  C   LIG d   1       0.961  85.704 116.103  0.00  0.00     0.028 C 
ATOM     10  C   LIG d   1       0.681  86.614 117.311  0.00  0.00     0.006 C 
ENDBRANCH   8   9
BRANCH   8  11
ATOM     11  C   LIG d   1      -0.911  84.884 114.765  0.00  0.00     0.028 C 
ATOM     12  C   LIG d   1      -2.235  85.142 115.502  0.00  0.00     0.006 C 
ENDBRANCH   8  11
ENDBRANCH   7   8
ENDBRANCH   1   7
BRANCH   6  13
ATOM     13  N   LIG d   1       2.682  83.676 113.765  0.00  0.00    -0.311 N 
ATOM     14  C   LIG d   1       1.821  82.812 113.230  0.00  0.00     0.210 C 
ATOM     15  C   LIG d   1       1.599  81.533 114.043  0.00  0.00     0.109 C 
ATOM     16  O   LIG d   1       1.244  82.969 112.144  0.00  0.00    -0.276 OA
ATOM     17  H   LIG d   1       3.129  83.453 114.633  0.00  0.00     0.149 HD
ENDBRANCH   6  13
BRANCH   5  18
ATOM     18  N   LIG d   1       5.199  84.227 112.123  0.00  0.00     0.381 N 
ATOM     19  H   LIG d   1       6.024  83.865 112.557  0.00  0.00    -0.090 HD
ATOM     20  H   LIG d   1       5.468  84.697 111.277  0.00  0.00    -0.090 HD
ATOM     21  H   LIG d   1       4.571  83.483 111.913  0.00  0.00    -0.090 HD
ENDBRANCH   5  18
BRANCH   3  22
ATOM     22  C   LIG d   1       4.709  88.867 113.204  0.00  0.00     0.382 C 
ATOM     23  O   LIG d   1       5.891  89.031 112.817  0.00  0.00    -0.241 OA
ATOM     24  O   LIG d   1       4.077  89.834 113.672  0.00  0.00    -0.241 OA
ENDBRANCH   3  22
TORSDOF 7
ENDMDL
MODEL 8
REMARK VINA RESULT:      -4.8      9.839     12.925
REMARK  7 active torsions:
REMARK  status: ('A' for Active; 'I' for Inactive)
REMARK    1  A    between atoms: C_2  and  C_3 
REMARK    2  A    between atoms: C_3  and  O_6 
REMARK    3  A    between atoms: C_3  and  C_4 
REMARK    4  A    between atoms: C_7  and  O_6 
REMARK    5  A    between atoms: C_9  and  C_10 
REMARK    6  A    between atoms: N_15  and  C_14 
REMARK    7  A    between atoms: N_20  and  C_19 
REMARK       I    between atoms: C_22  and  N_20 
ROOT
ATOM      1  C   LIG d   1       2.324  87.244 114.986  0.00  0.00     0.161 C 
ATOM      2  C   LIG d   1       1.879  88.372 115.694  0.00  0.00     0.016 C 
ATOM      3  C   LIG d   1       2.648  89.548 115.847  0.00  0.00     0.038 C 
ATOM      4  C   LIG d   1       3.862  89.734 115.170  0.00  0.00     0.028 C 
ATOM      5  C   LIG d   1       4.584  88.429 114.853  0.00  0.00    -0.047 C 
ATOM      6  C   LIG d   1       3.600  87.469 114.147  0.00  0.00     0.091 C 
ENDROOT
BRANCH   1   7
ATOM      7  O   LIG d   1       1.261  86.737 114.155  0.00  0.00    -0.368 OA
BRANCH   7   8
ATOM      8  C   LIG d   1       0.510  85.620 114.692  0.00  0.00     0.119 C 
BRANCH   8   9
ATOM      9  C   LIG d   1       1.122  84.330 114.114  0.00  0.00     0.028 C 
ATOM     10  C   LIG d   1       1.310  84.401 112.589  0.00  0.00     0.006 C 
ENDBRANCH   8   9
BRANCH   8  11
ATOM     11  C   LIG d   1      -0.940  85.636 114.201  0.00  0.00     0.028 C 
ATOM     12  C   LIG d   1      -1.956  85.432 115.336  0.00  0.00     0.006 C 
ENDBRANCH   8  11
ENDBRANCH   7   8
ENDBRANCH   1   7
BRANCH   6  13
ATOM     13  N   LIG d   1       4.201  86.137 113.877  0.00  0.00    -0.311 N 
ATOM     14  C   LIG d   1       4.826  85.832 112.741  0.00  0.00     0.210 C 
ATOM     15  C   LIG d   1       5.356  84.397 112.660  0.00  0.00     0.109 C 
ATOM     16  O   LIG d   1       5.020  86.623 111.805  0.00  0.00    -0.276 OA
ATOM     17  H   LIG d   1       4.118  85.445 114.595  0.00  0.00     0.149 HD
ENDBRANCH   6  13
BRANCH   5  18
ATOM     18  N   LIG d   1       5.761  88.760 114.027  0.00  0.00     0.381 N 
ATOM     19  H   LIG d   1       5.921  89.747 114.045  0.00  0.00    -0.090 HD
ATOM     20  H   LIG d   1       5.579  88.487 113.077  0.00  0.00    -0.090 HD
ATOM     21  H   LIG d   1       6.564  88.280 114.370  0.00  0.00    -0.090 HD
ENDBRANCH   5  18
BRANCH   3  22
ATOM     22  C   LIG d   1       2.222  90.540 116.718  0.00  0.00     0.382 C 
ATOM     23  O   LIG d   1       3.024  91.424 117.103  0.00  0.00    -0.241 OA
ATOM     24  O   LIG d   1       1.056  90.535 117.158  0.00  0.00    -0.241 OA
ENDBRANCH   3  22
TORSDOF 7
ENDMDL
MODEL 9
REMARK VINA RESULT:      -4.8      3.521      6.168
REMARK  7 active torsions:
REMARK  status: ('A' for Active; 'I' for Inactive)
REMARK    1  A    between atoms: C_2  and  C_3 
REMARK    2  A    between atoms: C_3  and  O_6 
REMARK    3  A    between atoms: C_3  and  C_4 
REMARK    4  A    between atoms: C_7  and  O_6 
REMARK    5  A    between atoms: C_9  and  C_10 
REMARK    6  A    between atoms: N_15  and  C_14 
REMARK    7  A    between atoms: N_20  and  C_19 
REMARK       I    between atoms: C_22  and  N_20 
ROOT
ATOM      1  C   LIG d   1      -2.311  79.113 116.250  0.00  0.00     0.161 C 
ATOM      2  C   LIG d   1      -2.585  80.339 115.622  0.00  0.00     0.016 C 
ATOM      3  C   LIG d   1      -2.561  80.517 114.219  0.00  0.00     0.038 C 
ATOM      4  C   LIG d   1      -2.409  79.437 113.337  0.00  0.00     0.028 C 
ATOM      5  C   LIG d   1      -1.628  78.272 113.936  0.00  0.00    -0.047 C 
ATOM      6  C   LIG d   1      -2.252  77.898 115.300  0.00  0.00     0.091 C 
ENDROOT
BRANCH   1   7
ATOM      7  O   LIG d   1      -3.267  78.880 117.303  0.00  0.00    -0.368 OA
BRANCH   7   8
ATOM      8  C   LIG d   1      -4.641  78.690 116.886  0.00  0.00     0.119 C 
BRANCH   8   9
ATOM      9  C   LIG d   1      -5.522  79.593 117.770  0.00  0.00     0.028 C 
ATOM     10  C   LIG d   1      -7.014  79.233 117.674  0.00  0.00     0.006 C 
ENDBRANCH   8   9
BRANCH   8  11
ATOM     11  C   LIG d   1      -5.116  77.261 117.167  0.00  0.00     0.028 C 
ATOM     12  C   LIG d   1      -4.409  76.623 118.373  0.00  0.00     0.006 C 
ENDBRANCH   8  11
ENDBRANCH   7   8
ENDBRANCH   1   7
BRANCH   6  13
ATOM     13  N   LIG d   1      -1.497  76.822 115.993  0.00  0.00    -0.311 N 
ATOM     14  C   LIG d   1      -1.820  75.533 115.915  0.00  0.00     0.210 C 
ATOM     15  C   LIG d   1      -0.922  74.590 116.722  0.00  0.00     0.109 C 
ATOM     16  O   LIG d   1      -2.746  75.076 115.227  0.00  0.00    -0.276 OA
ATOM     17  H   LIG d   1      -0.711  77.101 116.548  0.00  0.00     0.149 HD
ENDBRANCH   6  13
BRANCH   5  18
ATOM     18  N   LIG d   1      -1.663  77.164 112.962  0.00  0.00     0.381 N 
ATOM     19  H   LIG d   1      -2.106  77.469 112.118  0.00  0.00    -0.090 HD
ATOM     20  H   LIG d   1      -2.204  76.410 113.347  0.00  0.00    -0.090 HD
ATOM     21  H   LIG d   1      -0.737  76.853 112.766  0.00  0.00    -0.090 HD
ENDBRANCH   5  18
BRANCH   3  22
ATOM     22  C   LIG d   1      -2.652  81.794 113.687  0.00  0.00     0.382 C 
ATOM     23  O   LIG d   1      -3.124  82.729 114.378  0.00  0.00    -0.241 OA
ATOM     24  O   LIG d   1      -2.309  82.014 112.510  0.00  0.00    -0.241 OA
ENDBRANCH   3  22
TORSDOF 7
ENDMDL
