MODEL 1
REMARK VINA RESULT:      -4.9      0.000      0.000
REMARK  7 active torsions:
REMARK  status: ('A' for Active; 'I' for Inactive)
REMARK    1  A    between atoms: C_2  and  C_3 
REMARK    2  A    between atoms: C_3  and  O_6 
REMARK    3  A    between atoms: C_3  and  C_4 
REMARK    4  A    between atoms: C_7  and  O_6 
REMARK    5  A    between atoms: C_9  and  C_10 
REMARK    6  A    between atoms: N_15  and  C_14 
REMARK    7  A    between atoms: N_20  and  C_19 
REMARK       I    between atoms: C_22  and  N_20 
ROOT
ATOM      1  C   LIG d   1       2.252  88.062 115.383  0.00  0.00     0.161 C 
ATOM      2  C   LIG d   1       1.033  87.902 116.063  0.00  0.00     0.016 C 
ATOM      3  C   LIG d   1       0.467  88.899 116.890  0.00  0.00     0.038 C 
ATOM      4  C   LIG d   1       1.010  90.190 116.973  0.00  0.00     0.028 C 
ATOM      5  C   LIG d   1       2.511  90.234 116.704  0.00  0.00    -0.047 C 
ATOM      6  C   LIG d   1       2.804  89.503 115.374  0.00  0.00     0.091 C 
ENDROOT
BRANCH   1   7
ATOM      7  O   LIG d   1       2.130  87.563 114.037  0.00  0.00    -0.368 OA
BRANCH   7   8
ATOM      8  C   LIG d   1       2.566  86.198 113.820  0.00  0.00     0.119 C 
BRANCH   8   9
ATOM      9  C   LIG d   1       4.001  86.254 113.264  0.00  0.00     0.028 C 
ATOM     10  C   LIG d   1       4.047  86.739 111.805  0.00  0.00     0.006 C 
ENDBRANCH   8   9
BRANCH   8  11
ATOM     11  C   LIG d   1       1.734  85.514 112.730  0.00  0.00     0.028 C 
ATOM     12  C   LIG d   1       0.221  85.680 112.943  0.00  0.00     0.006 C 
ENDBRANCH   8  11
ENDBRANCH   7   8
ENDBRANCH   1   7
BRANCH   6  13
ATOM     13  N   LIG d   1       4.258  89.426 115.077  0.00  0.00    -0.311 N 
ATOM     14  C   LIG d   1       4.783  89.744 113.895  0.00  0.00     0.210 C 
ATOM     15  C   LIG d   1       6.302  89.575 113.796  0.00  0.00     0.109 C 
ATOM     16  O   LIG d   1       4.138  90.181 112.930  0.00  0.00    -0.276 OA
ATOM     17  H   LIG d   1       4.858  89.111 115.814  0.00  0.00     0.149 HD
ENDBRANCH   6  13
BRANCH   5  18
ATOM     18  N   LIG d   1       2.919  91.651 116.687  0.00  0.00     0.381 N 
ATOM     19  H   LIG d   1       3.640  91.788 116.007  0.00  0.00    -0.090 HD
ATOM     20  H   LIG d   1       3.287  91.894 117.590  0.00  0.00    -0.090 HD
ATOM     21  H   LIG d   1       2.136  92.229 116.472  0.00  0.00    -0.090 HD
ENDBRANCH   5  18
BRANCH   3  22
ATOM     22  C   LIG d   1      -0.634  88.596 117.676  0.00  0.00     0.382 C 
ATOM     23  O   LIG d   1      -1.019  87.407 117.784  0.00  0.00    -0.241 OA
ATOM     24  O   LIG d   1      -1.275  89.502 118.242  0.00  0.00    -0.241 OA
ENDBRANCH   3  22
TORSDOF 7
ENDMDL
MODEL 2
REMARK VINA RESULT:      -4.7      3.801      5.700
REMARK  7 active torsions:
REMARK  status: ('A' for Active; 'I' for Inactive)
REMARK    1  A    between atoms: C_2  and  C_3 
REMARK    2  A    between atoms: C_3  and  O_6 
REMARK    3  A    between atoms: C_3  and  C_4 
REMARK    4  A    between atoms: C_7  and  O_6 
REMARK    5  A    between atoms: C_9  and  C_10 
REMARK    6  A    between atoms: N_15  and  C_14 
REMARK    7  A    between atoms: N_20  and  C_19 
REMARK       I    between atoms: C_22  and  N_20 
ROOT
ATOM      1  C   LIG d   1       3.657  85.909 113.375  0.00  0.00     0.161 C 
ATOM      2  C   LIG d   1       4.229  87.079 112.847  0.00  0.00     0.016 C 
ATOM      3  C   LIG d   1       4.898  88.042 113.636  0.00  0.00     0.038 C 
ATOM      4  C   LIG d   1       5.173  87.826 114.995  0.00  0.00     0.028 C 
ATOM      5  C   LIG d   1       4.176  86.895 115.674  0.00  0.00    -0.047 C 
ATOM      6  C   LIG d   1       4.044  85.603 114.837  0.00  0.00     0.091 C 
ENDROOT
BRANCH   1   7
ATOM      7  O   LIG d   1       3.970  84.787 112.527  0.00  0.00    -0.368 OA
BRANCH   7   8
ATOM      8  C   LIG d   1       2.858  84.201 111.808  0.00  0.00     0.119 C 
BRANCH   8   9
ATOM      9  C   LIG d   1       1.570  84.875 112.319  0.00  0.00     0.028 C 
ATOM     10  C   LIG d   1       0.439  83.864 112.573  0.00  0.00     0.006 C 
ENDBRANCH   8   9
BRANCH   8  11
ATOM     11  C   LIG d   1       2.698  82.715 112.143  0.00  0.00     0.028 C 
ATOM     12  C   LIG d   1       4.044  82.001 112.344  0.00  0.00     0.006 C 
ENDBRANCH   8  11
ENDBRANCH   7   8
ENDBRANCH   1   7
BRANCH   6  13
ATOM     13  N   LIG d   1       3.024  84.672 115.386  0.00  0.00    -0.311 N 
ATOM     14  C   LIG d   1       3.296  83.421 115.754  0.00  0.00     0.210 C 
ATOM     15  C   LIG d   1       2.095  82.625 116.276  0.00  0.00     0.109 C 
ATOM     16  O   LIG d   1       4.423  82.905 115.728  0.00  0.00    -0.276 OA
ATOM     17  H   LIG d   1       2.089  85.019 115.471  0.00  0.00     0.149 HD
ENDBRANCH   6  13
BRANCH   5  18
ATOM     18  N   LIG d   1       4.659  86.648 117.046  0.00  0.00     0.381 N 
ATOM     19  H   LIG d   1       3.892  86.682 117.687  0.00  0.00    -0.090 HD
ATOM     20  H   LIG d   1       5.311  87.371 117.296  0.00  0.00    -0.090 HD
ATOM     21  H   LIG d   1       5.104  85.758 117.096  0.00  0.00    -0.090 HD
ENDBRANCH   5  18
BRANCH   3  22
ATOM     22  C   LIG d   1       5.264  89.256 113.075  0.00  0.00     0.382 C 
ATOM     23  O   LIG d   1       4.412  90.169 112.945  0.00  0.00    -0.241 OA
ATOM     24  O   LIG d   1       6.423  89.435 112.657  0.00  0.00    -0.241 OA
ENDBRANCH   3  22
TORSDOF 7
ENDMDL
MODEL 3
REMARK VINA RESULT:      -4.7     13.580     15.505
REMARK  7 active torsions:
REMARK  status: ('A' for Active; 'I' for Inactive)
REMARK    1  A    between atoms: C_2  and  C_3 
REMARK    2  A    between atoms: C_3  and  O_6 
REMARK    3  A    between atoms: C_3  and  C_4 
REMARK    4  A    between atoms: C_7  and  O_6 
REMARK    5  A    between atoms: C_9  and  C_10 
REMARK    6  A    between atoms: N_15  and  C_14 
REMARK    7  A    between atoms: N_20  and  C_19 
REMARK       I    between atoms: C_22  and  N_20 
ROOT
ATOM      1  C   LIG d   1      11.206  76.040 115.097  0.00  0.00     0.161 C 
ATOM      2  C   LIG d   1       9.940  76.643 115.178  0.00  0.00     0.016 C 
ATOM      3  C   LIG d   1       9.717  78.020 114.943  0.00  0.00     0.038 C 
ATOM      4  C   LIG d   1      10.729  78.863 114.461  0.00  0.00     0.028 C 
ATOM      5  C   LIG d   1      12.132  78.409 114.849  0.00  0.00    -0.047 C 
ATOM      6  C   LIG d   1      12.303  76.921 114.463  0.00  0.00     0.091 C 
ENDROOT
BRANCH   1   7
ATOM      7  O   LIG d   1      11.105  74.785 114.396  0.00  0.00    -0.368 OA
BRANCH   7   8
ATOM      8  C   LIG d   1      10.647  73.654 115.178  0.00  0.00     0.119 C 
BRANCH   8   9
ATOM      9  C   LIG d   1      11.552  73.552 116.420  0.00  0.00     0.028 C 
ATOM     10  C   LIG d   1      10.751  73.313 117.712  0.00  0.00     0.006 C 
ENDBRANCH   8   9
BRANCH   8  11
ATOM     11  C   LIG d   1      10.846  72.337 114.422  0.00  0.00     0.028 C 
ATOM     12  C   LIG d   1       9.696  71.342 114.644  0.00  0.00     0.006 C 
ENDBRANCH   8  11
ENDBRANCH   7   8
ENDBRANCH   1   7
BRANCH   6  13
ATOM     13  N   LIG d   1      13.619  76.374 114.885  0.00  0.00    -0.311 N 
ATOM     14  C   LIG d   1      14.676  76.304 114.078  0.00  0.00     0.210 C 
ATOM     15  C   LIG d   1      15.930  75.687 114.706  0.00  0.00     0.109 C 
ATOM     16  O   LIG d   1      14.705  76.725 112.911  0.00  0.00    -0.276 OA
ATOM     17  H   LIG d   1      13.694  76.039 115.825  0.00  0.00     0.149 HD
ENDBRANCH   6  13
BRANCH   5  18
ATOM     18  N   LIG d   1      13.093  79.296 114.166  0.00  0.00     0.381 N 
ATOM     19  H   LIG d   1      13.831  78.753 113.765  0.00  0.00    -0.090 HD
ATOM     20  H   LIG d   1      13.494  79.922 114.843  0.00  0.00    -0.090 HD
ATOM     21  H   LIG d   1      12.630  79.817 113.455  0.00  0.00    -0.090 HD
ENDBRANCH   5  18
BRANCH   3  22
ATOM     22  C   LIG d   1       8.479  78.574 115.231  0.00  0.00     0.382 C 
ATOM     23  O   LIG d   1       8.404  79.604 115.944  0.00  0.00    -0.241 OA
ATOM     24  O   LIG d   1       7.435  78.033 114.822  0.00  0.00    -0.241 OA
ENDBRANCH   3  22
TORSDOF 7
ENDMDL
MODEL 4
REMARK VINA RESULT:      -4.3      2.366      5.144
REMARK  7 active torsions:
REMARK  status: ('A' for Active; 'I' for Inactive)
REMARK    1  A    between atoms: C_2  and  C_3 
REMARK    2  A    between atoms: C_3  and  O_6 
REMARK    3  A    between atoms: C_3  and  C_4 
REMARK    4  A    between atoms: C_7  and  O_6 
REMARK    5  A    between atoms: C_9  and  C_10 
REMARK    6  A    between atoms: N_15  and  C_14 
REMARK    7  A    between atoms: N_20  and  C_19 
REMARK       I    between atoms: C_22  and  N_20 
ROOT
ATOM      1  C   LIG d   1       1.614  86.721 114.351  0.00  0.00     0.161 C 
ATOM      2  C   LIG d   1       0.616  85.822 113.939  0.00  0.00     0.016 C 
ATOM      3  C   LIG d   1       0.847  84.768 113.026  0.00  0.00     0.038 C 
ATOM      4  C   LIG d   1       2.136  84.445 112.575  0.00  0.00     0.028 C 
ATOM      5  C   LIG d   1       3.090  85.635 112.570  0.00  0.00    -0.047 C 
ATOM      6  C   LIG d   1       3.050  86.317 113.956  0.00  0.00     0.091 C 
ENDROOT
BRANCH   1   7
ATOM      7  O   LIG d   1       1.526  86.930 115.774  0.00  0.00    -0.368 OA
BRANCH   7   8
ATOM      8  C   LIG d   1       0.679  88.024 116.206  0.00  0.00     0.119 C 
BRANCH   8   9
ATOM      9  C   LIG d   1       1.557  88.998 117.014  0.00  0.00     0.028 C 
ATOM     10  C   LIG d   1       1.562  90.416 116.417  0.00  0.00     0.006 C 
ENDBRANCH   8   9
BRANCH   8  11
ATOM     11  C   LIG d   1      -0.398  87.542 117.183  0.00  0.00     0.028 C 
ATOM     12  C   LIG d   1      -1.714  88.324 117.052  0.00  0.00     0.006 C 
ENDBRANCH   8  11
ENDBRANCH   7   8
ENDBRANCH   1   7
BRANCH   6  13
ATOM     13  N   LIG d   1       3.893  87.540 114.010  0.00  0.00    -0.311 N 
ATOM     14  C   LIG d   1       3.650  88.630 113.284  0.00  0.00     0.210 C 
ATOM     15  C   LIG d   1       4.653  89.771 113.476  0.00  0.00     0.109 C 
ATOM     16  O   LIG d   1       2.682  88.771 112.522  0.00  0.00    -0.276 OA
ATOM     17  H   LIG d   1       4.682  87.523 114.626  0.00  0.00     0.149 HD
ENDBRANCH   6  13
BRANCH   5  18
ATOM     18  N   LIG d   1       4.429  85.130 112.212  0.00  0.00     0.381 N 
ATOM     19  H   LIG d   1       5.103  85.864 112.298  0.00  0.00    -0.090 HD
ATOM     20  H   LIG d   1       4.416  84.824 111.255  0.00  0.00    -0.090 HD
ATOM     21  H   LIG d   1       4.677  84.370 112.807  0.00  0.00    -0.090 HD
ENDBRANCH   5  18
BRANCH   3  22
ATOM     22  C   LIG d   1      -0.226  84.047 112.522  0.00  0.00     0.382 C 
ATOM     23  O   LIG d   1      -0.315  82.816 112.747  0.00  0.00    -0.241 OA
ATOM     24  O   LIG d   1      -1.082  84.604 111.809  0.00  0.00    -0.241 OA
ENDBRANCH   3  22
TORSDOF 7
ENDMDL
MODEL 5
REMARK VINA RESULT:      -4.3      2.890      5.471
REMARK  7 active torsions:
REMARK  status: ('A' for Active; 'I' for Inactive)
REMARK    1  A    between atoms: C_2  and  C_3 
REMARK    2  A    between atoms: C_3  and  O_6 
REMARK    3  A    between atoms: C_3  and  C_4 
REMARK    4  A    between atoms: C_7  and  O_6 
REMARK    5  A    between atoms: C_9  and  C_10 
REMARK    6  A    between atoms: N_15  and  C_14 
REMARK    7  A    between atoms: N_20  and  C_19 
REMARK       I    between atoms: C_22  and  N_20 
ROOT
ATOM      1  C   LIG d   1       1.297  86.447 113.340  0.00  0.00     0.161 C 
ATOM      2  C   LIG d   1       0.371  85.403 113.180  0.00  0.00     0.016 C 
ATOM      3  C   LIG d   1       0.728  84.104 112.750  0.00  0.00     0.038 C 
ATOM      4  C   LIG d   1       2.067  83.717 112.594  0.00  0.00     0.028 C 
ATOM      5  C   LIG d   1       2.997  84.877 112.256  0.00  0.00    -0.047 C 
ATOM      6  C   LIG d   1       2.777  86.013 113.281  0.00  0.00     0.091 C 
ENDROOT
BRANCH   1   7
ATOM      7  O   LIG d   1       1.031  87.154 114.567  0.00  0.00    -0.368 OA
BRANCH   7   8
ATOM      8  C   LIG d   1       1.735  86.680 115.741  0.00  0.00     0.119 C 
BRANCH   8   9
ATOM      9  C   LIG d   1       0.708  85.961 116.638  0.00  0.00     0.028 C 
ATOM     10  C   LIG d   1       1.092  84.497 116.912  0.00  0.00     0.006 C 
ENDBRANCH   8   9
BRANCH   8  11
ATOM     11  C   LIG d   1       2.263  87.845 116.583  0.00  0.00     0.028 C 
ATOM     12  C   LIG d   1       2.085  89.207 115.893  0.00  0.00     0.006 C 
ENDBRANCH   8  11
ENDBRANCH   7   8
ENDBRANCH   1   7
BRANCH   6  13
ATOM     13  N   LIG d   1       3.588  87.219 112.973  0.00  0.00    -0.311 N 
ATOM     14  C   LIG d   1       4.634  87.605 113.702  0.00  0.00     0.210 C 
ATOM     15  C   LIG d   1       5.318  88.889 113.223  0.00  0.00     0.109 C 
ATOM     16  O   LIG d   1       5.080  86.988 114.681  0.00  0.00    -0.276 OA
ATOM     17  H   LIG d   1       3.315  87.762 112.177  0.00  0.00     0.149 HD
ENDBRANCH   6  13
BRANCH   5  18
ATOM     18  N   LIG d   1       4.378  84.356 112.258  0.00  0.00     0.381 N 
ATOM     19  H   LIG d   1       4.807  84.539 113.142  0.00  0.00    -0.090 HD
ATOM     20  H   LIG d   1       4.905  84.832 111.547  0.00  0.00    -0.090 HD
ATOM     21  H   LIG d   1       4.373  83.376 112.078  0.00  0.00    -0.090 HD
ENDBRANCH   5  18
BRANCH   3  22
ATOM     22  C   LIG d   1      -0.264  83.189 112.432  0.00  0.00     0.382 C 
ATOM     23  O   LIG d   1      -0.122  81.980 112.737  0.00  0.00    -0.241 OA
ATOM     24  O   LIG d   1      -1.279  83.549 111.806  0.00  0.00    -0.241 OA
ENDBRANCH   3  22
TORSDOF 7
ENDMDL
MODEL 6
REMARK VINA RESULT:      -4.3     24.918     27.414
REMARK  7 active torsions:
REMARK  status: ('A' for Active; 'I' for Inactive)
REMARK    1  A    between atoms: C_2  and  C_3 
REMARK    2  A    between atoms: C_3  and  O_6 
REMARK    3  A    between atoms: C_3  and  C_4 
REMARK    4  A    between atoms: C_7  and  O_6 
REMARK    5  A    between atoms: C_9  and  C_10 
REMARK    6  A    between atoms: N_15  and  C_14 
REMARK    7  A    between atoms: N_20  and  C_19 
REMARK       I    between atoms: C_22  and  N_20 
ROOT
ATOM      1  C   LIG d   1     -23.634  83.753 113.966  0.00  0.00     0.161 C 
ATOM      2  C   LIG d   1     -22.731  84.808 114.177  0.00  0.00     0.016 C 
ATOM      3  C   LIG d   1     -23.063  86.168 113.978  0.00  0.00     0.038 C 
ATOM      4  C   LIG d   1     -24.375  86.578 113.697  0.00  0.00     0.028 C 
ATOM      5  C   LIG d   1     -25.201  85.515 112.981  0.00  0.00    -0.047 C 
ATOM      6  C   LIG d   1     -25.101  84.188 113.767  0.00  0.00     0.091 C 
ENDROOT
BRANCH   1   7
ATOM      7  O   LIG d   1     -23.535  82.802 115.044  0.00  0.00    -0.368 OA
BRANCH   7   8
ATOM      8  C   LIG d   1     -24.392  83.043 116.187  0.00  0.00     0.119 C 
BRANCH   8   9
ATOM      9  C   LIG d   1     -23.484  83.418 117.374  0.00  0.00     0.028 C 
ATOM     10  C   LIG d   1     -22.038  82.932 117.185  0.00  0.00     0.006 C 
ENDBRANCH   8   9
BRANCH   8  11
ATOM     11  C   LIG d   1     -25.117  81.765 116.619  0.00  0.00     0.028 C 
ATOM     12  C   LIG d   1     -24.928  80.607 115.625  0.00  0.00     0.006 C 
ENDBRANCH   8  11
ENDBRANCH   7   8
ENDBRANCH   1   7
BRANCH   6  13
ATOM     13  N   LIG d   1     -25.812  83.073 113.089  0.00  0.00    -0.311 N 
ATOM     14  C   LIG d   1     -27.056  82.704 113.392  0.00  0.00     0.210 C 
ATOM     15  C   LIG d   1     -27.593  81.518 112.586  0.00  0.00     0.109 C 
ATOM     16  O   LIG d   1     -27.776  83.268 114.230  0.00  0.00    -0.276 OA
ATOM     17  H   LIG d   1     -25.313  82.581 112.374  0.00  0.00     0.149 HD
ENDBRANCH   6  13
BRANCH   5  18
ATOM     18  N   LIG d   1     -26.582  86.021 112.874  0.00  0.00     0.381 N 
ATOM     19  H   LIG d   1     -26.716  86.456 111.983  0.00  0.00    -0.090 HD
ATOM     20  H   LIG d   1     -26.731  86.713 113.587  0.00  0.00    -0.090 HD
ATOM     21  H   LIG d   1     -27.230  85.272 112.987  0.00  0.00    -0.090 HD
ENDBRANCH   5  18
BRANCH   3  22
ATOM     22  C   LIG d   1     -22.067  87.132 114.021  0.00  0.00     0.382 C 
ATOM     23  O   LIG d   1     -22.087  88.016 114.911  0.00  0.00    -0.241 OA
ATOM     24  O   LIG d   1     -21.173  87.156 113.153  0.00  0.00    -0.241 OA
ENDBRANCH   3  22
TORSDOF 7
ENDMDL
MODEL 7
REMARK VINA RESULT:      -4.2      2.795      5.889
REMARK  7 active torsions:
REMARK  status: ('A' for Active; 'I' for Inactive)
REMARK    1  A    between atoms: C_2  and  C_3 
REMARK    2  A    between atoms: C_3  and  O_6 
REMARK    3  A    between atoms: C_3  and  C_4 
REMARK    4  A    between atoms: C_7  and  O_6 
REMARK    5  A    between atoms: C_9  and  C_10 
REMARK    6  A    between atoms: N_15  and  C_14 
REMARK    7  A    between atoms: N_20  and  C_19 
REMARK       I    between atoms: C_22  and  N_20 
ROOT
ATOM      1  C   LIG d   1       3.526  86.634 115.292  0.00  0.00     0.161 C 
ATOM      2  C   LIG d   1       4.096  87.819 114.797  0.00  0.00     0.016 C 
ATOM      3  C   LIG d   1       4.291  88.072 113.419  0.00  0.00     0.038 C 
ATOM      4  C   LIG d   1       3.787  87.215 112.430  0.00  0.00     0.028 C 
ATOM      5  C   LIG d   1       3.653  85.768 112.892  0.00  0.00    -0.047 C 
ATOM      6  C   LIG d   1       2.869  85.736 114.223  0.00  0.00     0.091 C 
ENDROOT
BRANCH   1   7
ATOM      7  O   LIG d   1       2.580  86.946 116.335  0.00  0.00    -0.368 OA
BRANCH   7   8
ATOM      8  C   LIG d   1       1.464  87.787 115.952  0.00  0.00     0.119 C 
BRANCH   8   9
ATOM      9  C   LIG d   1       1.450  88.998 116.904  0.00  0.00     0.028 C 
ATOM     10  C   LIG d   1       1.918  90.291 116.215  0.00  0.00     0.006 C 
ENDBRANCH   8   9
BRANCH   8  11
ATOM     11  C   LIG d   1       0.127  87.076 116.181  0.00  0.00     0.028 C 
ATOM     12  C   LIG d   1      -0.996  88.039 116.599  0.00  0.00     0.006 C 
ENDBRANCH   8  11
ENDBRANCH   7   8
ENDBRANCH   1   7
BRANCH   6  13
ATOM     13  N   LIG d   1       2.766  84.366 114.788  0.00  0.00    -0.311 N 
ATOM     14  C   LIG d   1       3.824  83.616 115.090  0.00  0.00     0.210 C 
ATOM     15  C   LIG d   1       3.495  82.226 115.643  0.00  0.00     0.109 C 
ATOM     16  O   LIG d   1       5.004  83.983 114.983  0.00  0.00    -0.276 OA
ATOM     17  H   LIG d   1       1.845  84.001 114.936  0.00  0.00     0.149 HD
ENDBRANCH   6  13
BRANCH   5  18
ATOM     18  N   LIG d   1       2.989  85.014 111.811  0.00  0.00     0.381 N 
ATOM     19  H   LIG d   1       2.137  85.471 111.554  0.00  0.00    -0.090 HD
ATOM     20  H   LIG d   1       2.766  84.094 112.147  0.00  0.00    -0.090 HD
ATOM     21  H   LIG d   1       3.592  84.950 111.020  0.00  0.00    -0.090 HD
ENDBRANCH   5  18
BRANCH   3  22
ATOM     22  C   LIG d   1       5.032  89.174 113.021  0.00  0.00     0.382 C 
ATOM     23  O   LIG d   1       4.487  90.301 112.943  0.00  0.00    -0.241 OA
ATOM     24  O   LIG d   1       6.228  89.047 112.697  0.00  0.00    -0.241 OA
ENDBRANCH   3  22
TORSDOF 7
ENDMDL
MODEL 8
REMARK VINA RESULT:      -4.1     25.745     28.232
REMARK  7 active torsions:
REMARK  status: ('A' for Active; 'I' for Inactive)
REMARK    1  A    between atoms: C_2  and  C_3 
REMARK    2  A    between atoms: C_3  and  O_6 
REMARK    3  A    between atoms: C_3  and  C_4 
REMARK    4  A    between atoms: C_7  and  O_6 
REMARK    5  A    between atoms: C_9  and  C_10 
REMARK    6  A    between atoms: N_15  and  C_14 
REMARK    7  A    between atoms: N_20  and  C_19 
REMARK       I    between atoms: C_22  and  N_20 
ROOT
ATOM      1  C   LIG d   1     -25.384  85.460 113.416  0.00  0.00     0.161 C 
ATOM      2  C   LIG d   1     -24.321  86.378 113.423  0.00  0.00     0.016 C 
ATOM      3  C   LIG d   1     -23.022  86.060 113.882  0.00  0.00     0.038 C 
ATOM      4  C   LIG d   1     -22.657  84.751 114.227  0.00  0.00     0.028 C 
ATOM      5  C   LIG d   1     -23.827  83.904 114.715  0.00  0.00    -0.047 C 
ATOM      6  C   LIG d   1     -24.976  83.996 113.685  0.00  0.00     0.091 C 
ENDROOT
BRANCH   1   7
ATOM      7  O   LIG d   1     -26.107  85.558 112.173  0.00  0.00    -0.368 OA
BRANCH   7   8
ATOM      8  C   LIG d   1     -27.334  86.328 112.209  0.00  0.00     0.119 C 
BRANCH   8   9
ATOM      9  C   LIG d   1     -26.979  87.782 111.842  0.00  0.00     0.028 C 
ATOM     10  C   LIG d   1     -27.597  88.800 112.815  0.00  0.00     0.006 C 
ENDBRANCH   8   9
BRANCH   8  11
ATOM     11  C   LIG d   1     -27.908  86.396 113.628  0.00  0.00     0.028 C 
ATOM     12  C   LIG d   1     -29.070  85.415 113.848  0.00  0.00     0.006 C 
ENDBRANCH   8  11
ENDBRANCH   7   8
ENDBRANCH   1   7
BRANCH   6  13
ATOM     13  N   LIG d   1     -26.192  83.264 114.126  0.00  0.00    -0.311 N 
ATOM     14  C   LIG d   1     -26.795  82.333 113.388  0.00  0.00     0.210 C 
ATOM     15  C   LIG d   1     -28.046  81.716 114.022  0.00  0.00     0.109 C 
ATOM     16  O   LIG d   1     -26.394  81.937 112.283  0.00  0.00    -0.276 OA
ATOM     17  H   LIG d   1     -26.567  83.501 115.023  0.00  0.00     0.149 HD
ENDBRANCH   6  13
BRANCH   5  18
ATOM     18  N   LIG d   1     -23.332  82.528 114.908  0.00  0.00     0.381 N 
ATOM     19  H   LIG d   1     -23.267  82.064 114.024  0.00  0.00    -0.090 HD
ATOM     20  H   LIG d   1     -23.987  82.024 115.480  0.00  0.00    -0.090 HD
ATOM     21  H   LIG d   1     -22.439  82.546 115.348  0.00  0.00    -0.090 HD
ENDBRANCH   5  18
BRANCH   3  22
ATOM     22  C   LIG d   1     -22.082  87.069 114.037  0.00  0.00     0.382 C 
ATOM     23  O   LIG d   1     -22.205  87.902 114.967  0.00  0.00    -0.241 OA
ATOM     24  O   LIG d   1     -21.138  87.182 113.232  0.00  0.00    -0.241 OA
ENDBRANCH   3  22
TORSDOF 7
ENDMDL
MODEL 9
REMARK VINA RESULT:      -4.1     10.862     12.970
REMARK  7 active torsions:
REMARK  status: ('A' for Active; 'I' for Inactive)
REMARK    1  A    between atoms: C_2  and  C_3 
REMARK    2  A    between atoms: C_3  and  O_6 
REMARK    3  A    between atoms: C_3  and  C_4 
REMARK    4  A    between atoms: C_7  and  O_6 
REMARK    5  A    between atoms: C_9  and  C_10 
REMARK    6  A    between atoms: N_15  and  C_14 
REMARK    7  A    between atoms: N_20  and  C_19 
REMARK       I    between atoms: C_22  and  N_20 
ROOT
ATOM      1  C   LIG d   1      -2.447  77.616 117.201  0.00  0.00     0.161 C 
ATOM      2  C   LIG d   1      -3.524  78.300 117.789  0.00  0.00     0.016 C 
ATOM      3  C   LIG d   1      -4.871  78.102 117.410  0.00  0.00     0.038 C 
ATOM      4  C   LIG d   1      -5.249  77.088 116.517  0.00  0.00     0.028 C 
ATOM      5  C   LIG d   1      -4.152  76.716 115.524  0.00  0.00    -0.047 C 
ATOM      6  C   LIG d   1      -2.848  76.427 116.303  0.00  0.00     0.091 C 
ENDROOT
BRANCH   1   7
ATOM      7  O   LIG d   1      -1.526  77.184 118.222  0.00  0.00    -0.368 OA
BRANCH   7   8
ATOM      8  C   LIG d   1      -0.298  77.943 118.336  0.00  0.00     0.119 C 
BRANCH   8   9
ATOM      9  C   LIG d   1      -0.240  78.912 117.139  0.00  0.00     0.028 C 
ATOM     10  C   LIG d   1       0.688  80.111 117.399  0.00  0.00     0.006 C 
ENDBRANCH   8   9
BRANCH   8  11
ATOM     11  C   LIG d   1       0.931  77.041 118.188  0.00  0.00     0.028 C 
ATOM     12  C   LIG d   1       0.643  75.577 118.555  0.00  0.00     0.006 C 
ENDBRANCH   8  11
ENDBRANCH   7   8
ENDBRANCH   1   7
BRANCH   6  13
ATOM     13  N   LIG d   1      -1.703  76.137 115.401  0.00  0.00    -0.311 N 
ATOM     14  C   LIG d   1      -1.008  75.001 115.441  0.00  0.00     0.210 C 
ATOM     15  C   LIG d   1       0.147  74.914 114.438  0.00  0.00     0.109 C 
ATOM     16  O   LIG d   1      -1.259  74.045 116.189  0.00  0.00    -0.276 OA
ATOM     17  H   LIG d   1      -1.451  76.847 114.741  0.00  0.00     0.149 HD
ENDBRANCH   6  13
BRANCH   5  18
ATOM     18  N   LIG d   1      -4.630  75.558 114.746  0.00  0.00     0.381 N 
ATOM     19  H   LIG d   1      -3.987  75.359 114.005  0.00  0.00    -0.090 HD
ATOM     20  H   LIG d   1      -5.520  75.784 114.339  0.00  0.00    -0.090 HD
ATOM     21  H   LIG d   1      -4.720  74.762 115.339  0.00  0.00    -0.090 HD
ENDBRANCH   5  18
BRANCH   3  22
ATOM     22  C   LIG d   1      -5.854  78.949 117.898  0.00  0.00     0.382 C 
ATOM     23  O   LIG d   1      -6.977  78.489 118.218  0.00  0.00    -0.241 OA
ATOM     24  O   LIG d   1      -5.647  80.175 117.981  0.00  0.00    -0.241 OA
ENDBRANCH   3  22
TORSDOF 7
ENDMDL
