MODEL 1
REMARK VINA RESULT:      -5.7      0.000      0.000
REMARK  7 active torsions:
REMARK  status: ('A' for Active; 'I' for Inactive)
REMARK    1  A    between atoms: C_2  and  C_3 
REMARK    2  A    between atoms: C_3  and  O_6 
REMARK    3  A    between atoms: C_3  and  C_4 
REMARK    4  A    between atoms: C_7  and  O_6 
REMARK    5  A    between atoms: C_9  and  C_10 
REMARK    6  A    between atoms: N_15  and  C_14 
REMARK    7  A    between atoms: N_20  and  C_19 
REMARK       I    between atoms: C_22  and  N_20 
ROOT
ATOM      1  C   LIG d   1      -6.916  76.332 117.182  0.00  0.00     0.161 C 
ATOM      2  C   LIG d   1      -7.004  77.711 117.434  0.00  0.00     0.016 C 
ATOM      3  C   LIG d   1      -8.190  78.349 117.866  0.00  0.00     0.038 C 
ATOM      4  C   LIG d   1      -9.335  77.622 118.223  0.00  0.00     0.028 C 
ATOM      5  C   LIG d   1      -9.450  76.281 117.504  0.00  0.00    -0.047 C 
ATOM      6  C   LIG d   1      -8.123  75.506 117.673  0.00  0.00     0.091 C 
ENDROOT
BRANCH   1   7
ATOM      7  O   LIG d   1      -5.693  75.811 117.740  0.00  0.00    -0.368 OA
BRANCH   7   8
ATOM      8  C   LIG d   1      -4.621  75.556 116.799  0.00  0.00     0.119 C 
BRANCH   8   9
ATOM      9  C   LIG d   1      -5.223  75.622 115.382  0.00  0.00     0.028 C 
ATOM     10  C   LIG d   1      -5.246  74.248 114.690  0.00  0.00     0.006 C 
ENDBRANCH   8   9
BRANCH   8  11
ATOM     11  C   LIG d   1      -4.079  74.131 116.944  0.00  0.00     0.028 C 
ATOM     12  C   LIG d   1      -2.590  74.095 117.320  0.00  0.00     0.006 C 
ENDBRANCH   8  11
ENDBRANCH   7   8
ENDBRANCH   1   7
BRANCH   6  13
ATOM     13  N   LIG d   1      -8.120  74.220 116.929  0.00  0.00    -0.311 N 
ATOM     14  C   LIG d   1      -7.609  73.091 117.418  0.00  0.00     0.210 C 
ATOM     15  C   LIG d   1      -7.691  71.884 116.479  0.00  0.00     0.109 C 
ATOM     16  O   LIG d   1      -7.125  72.968 118.554  0.00  0.00    -0.276 OA
ATOM     17  H   LIG d   1      -8.521  74.222 116.012  0.00  0.00     0.149 HD
ENDBRANCH   6  13
BRANCH   5  18
ATOM     18  N   LIG d   1     -10.611  75.570 118.071  0.00  0.00     0.381 N 
ATOM     19  H   LIG d   1     -10.797  74.745 117.536  0.00  0.00    -0.090 HD
ATOM     20  H   LIG d   1     -11.417  76.169 118.018  0.00  0.00    -0.090 HD
ATOM     21  H   LIG d   1     -10.432  75.326 119.020  0.00  0.00    -0.090 HD
ENDBRANCH   5  18
BRANCH   3  22
ATOM     22  C   LIG d   1      -8.250  79.734 117.906  0.00  0.00     0.382 C 
ATOM     23  O   LIG d   1      -9.234  80.303 118.435  0.00  0.00    -0.241 OA
ATOM     24  O   LIG d   1      -7.353  80.420 117.380  0.00  0.00    -0.241 OA
ENDBRANCH   3  22
TORSDOF 7
ENDMDL
MODEL 2
REMARK VINA RESULT:      -5.0     12.972     14.391
REMARK  7 active torsions:
REMARK  status: ('A' for Active; 'I' for Inactive)
REMARK    1  A    between atoms: C_2  and  C_3 
REMARK    2  A    between atoms: C_3  and  O_6 
REMARK    3  A    between atoms: C_3  and  C_4 
REMARK    4  A    between atoms: C_7  and  O_6 
REMARK    5  A    between atoms: C_9  and  C_10 
REMARK    6  A    between atoms: N_15  and  C_14 
REMARK    7  A    between atoms: N_20  and  C_19 
REMARK       I    between atoms: C_22  and  N_20 
ROOT
ATOM      1  C   LIG d   1       2.643  85.230 113.459  0.00  0.00     0.161 C 
ATOM      2  C   LIG d   1       2.840  86.455 112.799  0.00  0.00     0.016 C 
ATOM      3  C   LIG d   1       3.475  87.568 113.397  0.00  0.00     0.038 C 
ATOM      4  C   LIG d   1       4.094  87.481 114.653  0.00  0.00     0.028 C 
ATOM      5  C   LIG d   1       3.481  86.420 115.559  0.00  0.00    -0.047 C 
ATOM      6  C   LIG d   1       3.411  85.082 114.789  0.00  0.00     0.091 C 
ENDROOT
BRANCH   1   7
ATOM      7  O   LIG d   1       2.963  84.140 112.572  0.00  0.00    -0.368 OA
BRANCH   7   8
ATOM      8  C   LIG d   1       1.835  83.447 111.982  0.00  0.00     0.119 C 
BRANCH   8   9
ATOM      9  C   LIG d   1       0.571  83.886 112.746  0.00  0.00     0.028 C 
ATOM     10  C   LIG d   1      -0.542  84.377 111.805  0.00  0.00     0.006 C 
ENDBRANCH   8   9
BRANCH   8  11
ATOM     11  C   LIG d   1       1.936  81.934 112.200  0.00  0.00     0.028 C 
ATOM     12  C   LIG d   1       1.209  81.465 113.470  0.00  0.00     0.006 C 
ENDBRANCH   8  11
ENDBRANCH   7   8
ENDBRANCH   1   7
BRANCH   6  13
ATOM     13  N   LIG d   1       2.746  84.009 115.575  0.00  0.00    -0.311 N 
ATOM     14  C   LIG d   1       3.412  83.083 116.262  0.00  0.00     0.210 C 
ATOM     15  C   LIG d   1       2.534  82.058 116.986  0.00  0.00     0.109 C 
ATOM     16  O   LIG d   1       4.647  83.032 116.367  0.00  0.00    -0.276 OA
ATOM     17  H   LIG d   1       1.745  83.995 115.570  0.00  0.00     0.149 HD
ENDBRANCH   6  13
BRANCH   5  18
ATOM     18  N   LIG d   1       4.307  86.343 116.778  0.00  0.00     0.381 N 
ATOM     19  H   LIG d   1       5.007  87.058 116.759  0.00  0.00    -0.090 HD
ATOM     20  H   LIG d   1       4.769  85.451 116.803  0.00  0.00    -0.090 HD
ATOM     21  H   LIG d   1       3.735  86.451 117.586  0.00  0.00    -0.090 HD
ENDBRANCH   5  18
BRANCH   3  22
ATOM     22  C   LIG d   1       3.459  88.796 112.753  0.00  0.00     0.382 C 
ATOM     23  O   LIG d   1       4.404  89.604 112.921  0.00  0.00    -0.241 OA
ATOM     24  O   LIG d   1       2.490  89.123 112.042  0.00  0.00    -0.241 OA
ENDBRANCH   3  22
TORSDOF 7
ENDMDL
MODEL 3
REMARK VINA RESULT:      -4.8     15.945     18.791
REMARK  7 active torsions:
REMARK  status: ('A' for Active; 'I' for Inactive)
REMARK    1  A    between atoms: C_2  and  C_3 
REMARK    2  A    between atoms: C_3  and  O_6 
REMARK    3  A    between atoms: C_3  and  C_4 
REMARK    4  A    between atoms: C_7  and  O_6 
REMARK    5  A    between atoms: C_9  and  C_10 
REMARK    6  A    between atoms: N_15  and  C_14 
REMARK    7  A    between atoms: N_20  and  C_19 
REMARK       I    between atoms: C_22  and  N_20 
ROOT
ATOM      1  C   LIG d   1      10.904  79.356 115.363  0.00  0.00     0.161 C 
ATOM      2  C   LIG d   1      10.645  78.046 114.928  0.00  0.00     0.016 C 
ATOM      3  C   LIG d   1       9.357  77.462 114.942  0.00  0.00     0.038 C 
ATOM      4  C   LIG d   1       8.209  78.206 115.252  0.00  0.00     0.028 C 
ATOM      5  C   LIG d   1       8.483  79.384 116.181  0.00  0.00    -0.047 C 
ATOM      6  C   LIG d   1       9.648  80.220 115.601  0.00  0.00     0.091 C 
ENDROOT
BRANCH   1   7
ATOM      7  O   LIG d   1      11.794  80.011 114.438  0.00  0.00    -0.368 OA
BRANCH   7   8
ATOM      8  C   LIG d   1      12.645  79.143 113.649  0.00  0.00     0.119 C 
BRANCH   8   9
ATOM      9  C   LIG d   1      14.037  79.132 114.310  0.00  0.00     0.028 C 
ATOM     10  C   LIG d   1      14.418  80.502 114.896  0.00  0.00     0.006 C 
ENDBRANCH   8   9
BRANCH   8  11
ATOM     11  C   LIG d   1      12.868  79.709 112.244  0.00  0.00     0.028 C 
ATOM     12  C   LIG d   1      11.755  80.674 111.806  0.00  0.00     0.006 C 
ENDBRANCH   8  11
ENDBRANCH   7   8
ENDBRANCH   1   7
BRANCH   6  13
ATOM     13  N   LIG d   1      10.037  81.345 116.491  0.00  0.00    -0.311 N 
ATOM     14  C   LIG d   1      10.199  82.596 116.063  0.00  0.00     0.210 C 
ATOM     15  C   LIG d   1      10.621  83.598 117.142  0.00  0.00     0.109 C 
ATOM     16  O   LIG d   1      10.001  82.976 114.900  0.00  0.00    -0.276 OA
ATOM     17  H   LIG d   1      10.187  81.131 117.458  0.00  0.00     0.149 HD
ENDBRANCH   6  13
BRANCH   5  18
ATOM     18  N   LIG d   1       7.230  80.151 116.311  0.00  0.00     0.381 N 
ATOM     19  H   LIG d   1       7.301  80.789 117.078  0.00  0.00    -0.090 HD
ATOM     20  H   LIG d   1       6.477  79.514 116.499  0.00  0.00    -0.090 HD
ATOM     21  H   LIG d   1       7.048  80.652 115.469  0.00  0.00    -0.090 HD
ENDBRANCH   5  18
BRANCH   3  22
ATOM     22  C   LIG d   1       9.213  76.108 114.681  0.00  0.00     0.382 C 
ATOM     23  O   LIG d   1       8.173  75.684 114.121  0.00  0.00    -0.241 OA
ATOM     24  O   LIG d   1      10.091  75.300 115.037  0.00  0.00    -0.241 OA
ENDBRANCH   3  22
TORSDOF 7
ENDMDL
MODEL 4
REMARK VINA RESULT:      -4.7     15.610     18.482
REMARK  7 active torsions:
REMARK  status: ('A' for Active; 'I' for Inactive)
REMARK    1  A    between atoms: C_2  and  C_3 
REMARK    2  A    between atoms: C_3  and  O_6 
REMARK    3  A    between atoms: C_3  and  C_4 
REMARK    4  A    between atoms: C_7  and  O_6 
REMARK    5  A    between atoms: C_9  and  C_10 
REMARK    6  A    between atoms: N_15  and  C_14 
REMARK    7  A    between atoms: N_20  and  C_19 
REMARK       I    between atoms: C_22  and  N_20 
ROOT
ATOM      1  C   LIG d   1      10.409  78.874 114.644  0.00  0.00     0.161 C 
ATOM      2  C   LIG d   1       9.070  79.207 114.907  0.00  0.00     0.016 C 
ATOM      3  C   LIG d   1       8.075  78.249 115.212  0.00  0.00     0.038 C 
ATOM      4  C   LIG d   1       8.387  76.899 115.425  0.00  0.00     0.028 C 
ATOM      5  C   LIG d   1       9.633  76.439 114.676  0.00  0.00    -0.047 C 
ATOM      6  C   LIG d   1      10.791  77.417 114.981  0.00  0.00     0.091 C 
ENDROOT
BRANCH   1   7
ATOM      7  O   LIG d   1      11.284  79.793 115.327  0.00  0.00    -0.368 OA
BRANCH   7   8
ATOM      8  C   LIG d   1      12.051  80.688 114.486  0.00  0.00     0.119 C 
BRANCH   8   9
ATOM      9  C   LIG d   1      11.723  80.341 113.020  0.00  0.00     0.028 C 
ATOM     10  C   LIG d   1      12.977  79.976 112.209  0.00  0.00     0.006 C 
ENDBRANCH   8   9
BRANCH   8  11
ATOM     11  C   LIG d   1      13.555  80.441 114.634  0.00  0.00     0.028 C 
ATOM     12  C   LIG d   1      14.030  80.513 116.094  0.00  0.00     0.006 C 
ENDBRANCH   8  11
ENDBRANCH   7   8
ENDBRANCH   1   7
BRANCH   6  13
ATOM     13  N   LIG d   1      12.025  77.089 114.221  0.00  0.00    -0.311 N 
ATOM     14  C   LIG d   1      13.210  76.889 114.797  0.00  0.00     0.210 C 
ATOM     15  C   LIG d   1      14.356  76.582 113.828  0.00  0.00     0.109 C 
ATOM     16  O   LIG d   1      13.413  76.906 116.020  0.00  0.00    -0.276 OA
ATOM     17  H   LIG d   1      11.944  77.025 113.225  0.00  0.00     0.149 HD
ENDBRANCH   6  13
BRANCH   5  18
ATOM     18  N   LIG d   1       9.921  75.055 115.096  0.00  0.00     0.381 N 
ATOM     19  H   LIG d   1       9.504  74.412 114.452  0.00  0.00    -0.090 HD
ATOM     20  H   LIG d   1       9.517  74.899 116.003  0.00  0.00    -0.090 HD
ATOM     21  H   LIG d   1      10.905  74.907 115.132  0.00  0.00    -0.090 HD
ENDBRANCH   5  18
BRANCH   3  22
ATOM     22  C   LIG d   1       6.744  78.635 115.268  0.00  0.00     0.382 C 
ATOM     23  O   LIG d   1       5.905  77.908 115.852  0.00  0.00    -0.241 OA
ATOM     24  O   LIG d   1       6.365  79.678 114.704  0.00  0.00    -0.241 OA
ENDBRANCH   3  22
TORSDOF 7
ENDMDL
MODEL 5
REMARK VINA RESULT:      -4.7     15.661     18.906
REMARK  7 active torsions:
REMARK  status: ('A' for Active; 'I' for Inactive)
REMARK    1  A    between atoms: C_2  and  C_3 
REMARK    2  A    between atoms: C_3  and  O_6 
REMARK    3  A    between atoms: C_3  and  C_4 
REMARK    4  A    between atoms: C_7  and  O_6 
REMARK    5  A    between atoms: C_9  and  C_10 
REMARK    6  A    between atoms: N_15  and  C_14 
REMARK    7  A    between atoms: N_20  and  C_19 
REMARK       I    between atoms: C_22  and  N_20 
ROOT
ATOM      1  C   LIG d   1      10.097  76.780 114.964  0.00  0.00     0.161 C 
ATOM      2  C   LIG d   1      10.241  75.460 115.423  0.00  0.00     0.016 C 
ATOM      3  C   LIG d   1      11.464  74.752 115.386  0.00  0.00     0.038 C 
ATOM      4  C   LIG d   1      12.669  75.373 115.024  0.00  0.00     0.028 C 
ATOM      5  C   LIG d   1      12.482  76.552 114.075  0.00  0.00    -0.047 C 
ATOM      6  C   LIG d   1      11.423  77.510 114.668  0.00  0.00     0.091 C 
ENDROOT
BRANCH   1   7
ATOM      7  O   LIG d   1       9.304  77.539 115.898  0.00  0.00    -0.368 OA
BRANCH   7   8
ATOM      8  C   LIG d   1       7.891  77.644 115.597  0.00  0.00     0.119 C 
BRANCH   8   9
ATOM      9  C   LIG d   1       7.633  79.074 115.083  0.00  0.00     0.028 C 
ATOM     10  C   LIG d   1       8.526  80.117 115.777  0.00  0.00     0.006 C 
ENDBRANCH   8   9
BRANCH   8  11
ATOM     11  C   LIG d   1       7.039  77.508 116.862  0.00  0.00     0.028 C 
ATOM     12  C   LIG d   1       7.884  77.305 118.130  0.00  0.00     0.006 C 
ENDBRANCH   8  11
ENDBRANCH   7   8
ENDBRANCH   1   7
BRANCH   6  13
ATOM     13  N   LIG d   1      11.118  78.648 113.763  0.00  0.00    -0.311 N 
ATOM     14  C   LIG d   1      11.727  79.830 113.840  0.00  0.00     0.210 C 
ATOM     15  C   LIG d   1      11.248  80.872 112.824  0.00  0.00     0.109 C 
ATOM     16  O   LIG d   1      12.640  80.105 114.633  0.00  0.00    -0.276 OA
ATOM     17  H   LIG d   1      10.411  78.502 113.069  0.00  0.00     0.149 HD
ENDBRANCH   6  13
BRANCH   5  18
ATOM     18  N   LIG d   1      13.799  77.189 113.890  0.00  0.00     0.381 N 
ATOM     19  H   LIG d   1      14.470  76.763 114.498  0.00  0.00    -0.090 HD
ATOM     20  H   LIG d   1      13.727  78.161 114.133  0.00  0.00    -0.090 HD
ATOM     21  H   LIG d   1      14.093  77.096 112.943  0.00  0.00    -0.090 HD
ENDBRANCH   5  18
BRANCH   3  22
ATOM     22  C   LIG d   1      11.483  73.397 115.677  0.00  0.00     0.382 C 
ATOM     23  O   LIG d   1      11.591  73.012 116.866  0.00  0.00    -0.241 OA
ATOM     24  O   LIG d   1      11.438  72.554 114.761  0.00  0.00    -0.241 OA
ENDBRANCH   3  22
TORSDOF 7
ENDMDL
MODEL 6
REMARK VINA RESULT:      -4.4     17.404     20.058
REMARK  7 active torsions:
REMARK  status: ('A' for Active; 'I' for Inactive)
REMARK    1  A    between atoms: C_2  and  C_3 
REMARK    2  A    between atoms: C_3  and  O_6 
REMARK    3  A    between atoms: C_3  and  C_4 
REMARK    4  A    between atoms: C_7  and  O_6 
REMARK    5  A    between atoms: C_9  and  C_10 
REMARK    6  A    between atoms: N_15  and  C_14 
REMARK    7  A    between atoms: N_20  and  C_19 
REMARK       I    between atoms: C_22  and  N_20 
ROOT
ATOM      1  C   LIG d   1      12.672  78.702 115.421  0.00  0.00     0.161 C 
ATOM      2  C   LIG d   1      11.551  79.489 115.734  0.00  0.00     0.016 C 
ATOM      3  C   LIG d   1      10.961  80.399 114.828  0.00  0.00     0.038 C 
ATOM      4  C   LIG d   1      11.363  80.474 113.485  0.00  0.00     0.028 C 
ATOM      5  C   LIG d   1      12.815  80.064 113.264  0.00  0.00    -0.047 C 
ATOM      6  C   LIG d   1      13.055  78.688 113.926  0.00  0.00     0.091 C 
ENDROOT
BRANCH   1   7
ATOM      7  O   LIG d   1      12.474  77.357 115.899  0.00  0.00    -0.368 OA
BRANCH   7   8
ATOM      8  C   LIG d   1      11.697  76.483 115.042  0.00  0.00     0.119 C 
BRANCH   8   9
ATOM      9  C   LIG d   1      10.389  76.149 115.785  0.00  0.00     0.028 C 
ATOM     10  C   LIG d   1       9.140  76.565 114.989  0.00  0.00     0.006 C 
ENDBRANCH   8   9
BRANCH   8  11
ATOM     11  C   LIG d   1      12.400  75.139 114.834  0.00  0.00     0.028 C 
ATOM     12  C   LIG d   1      13.792  75.087 115.483  0.00  0.00     0.006 C 
ENDBRANCH   8  11
ENDBRANCH   7   8
ENDBRANCH   1   7
BRANCH   6  13
ATOM     13  N   LIG d   1      14.472  78.252 113.829  0.00  0.00    -0.311 N 
ATOM     14  C   LIG d   1      14.949  77.528 112.817  0.00  0.00     0.210 C 
ATOM     15  C   LIG d   1      16.434  77.169 112.923  0.00  0.00     0.109 C 
ATOM     16  O   LIG d   1      14.290  77.177 111.827  0.00  0.00    -0.276 OA
ATOM     17  H   LIG d   1      15.084  78.520 114.575  0.00  0.00     0.149 HD
ENDBRANCH   6  13
BRANCH   5  18
ATOM     18  N   LIG d   1      13.059  80.056 111.809  0.00  0.00     0.381 N 
ATOM     19  H   LIG d   1      12.187  80.095 111.319  0.00  0.00    -0.090 HD
ATOM     20  H   LIG d   1      13.522  79.200 111.562  0.00  0.00    -0.090 HD
ATOM     21  H   LIG d   1      13.626  80.835 111.554  0.00  0.00    -0.090 HD
ENDBRANCH   5  18
BRANCH   3  22
ATOM     22  C   LIG d   1       9.984  81.276 115.272  0.00  0.00     0.382 C 
ATOM     23  O   LIG d   1       9.953  82.453 114.839  0.00  0.00    -0.241 OA
ATOM     24  O   LIG d   1       9.159  80.918 116.134  0.00  0.00    -0.241 OA
ENDBRANCH   3  22
TORSDOF 7
ENDMDL
MODEL 7
REMARK VINA RESULT:      -4.4     17.018     20.080
REMARK  7 active torsions:
REMARK  status: ('A' for Active; 'I' for Inactive)
REMARK    1  A    between atoms: C_2  and  C_3 
REMARK    2  A    between atoms: C_3  and  O_6 
REMARK    3  A    between atoms: C_3  and  C_4 
REMARK    4  A    between atoms: C_7  and  O_6 
REMARK    5  A    between atoms: C_9  and  C_10 
REMARK    6  A    between atoms: N_15  and  C_14 
REMARK    7  A    between atoms: N_20  and  C_19 
REMARK       I    between atoms: C_22  and  N_20 
ROOT
ATOM      1  C   LIG d   1      12.009  78.039 114.452  0.00  0.00     0.161 C 
ATOM      2  C   LIG d   1      10.665  78.074 114.861  0.00  0.00     0.016 C 
ATOM      3  C   LIG d   1       9.956  76.933 115.302  0.00  0.00     0.038 C 
ATOM      4  C   LIG d   1      10.591  75.699 115.508  0.00  0.00     0.028 C 
ATOM      5  C   LIG d   1      11.821  75.497 114.630  0.00  0.00    -0.047 C 
ATOM      6  C   LIG d   1      12.749  76.724 114.775  0.00  0.00     0.091 C 
ENDROOT
BRANCH   1   7
ATOM      7  O   LIG d   1      12.719  79.163 115.008  0.00  0.00    -0.368 OA
BRANCH   7   8
ATOM      8  C   LIG d   1      13.085  80.210 114.075  0.00  0.00     0.119 C 
BRANCH   8   9
ATOM      9  C   LIG d   1      12.794  79.687 112.655  0.00  0.00     0.028 C 
ATOM     10  C   LIG d   1      11.831  80.601 111.879  0.00  0.00     0.006 C 
ENDBRANCH   8   9
BRANCH   8  11
ATOM     11  C   LIG d   1      14.591  80.483 114.107  0.00  0.00     0.028 C 
ATOM     12  C   LIG d   1      15.342  79.815 112.944  0.00  0.00     0.006 C 
ENDBRANCH   8  11
ENDBRANCH   7   8
ENDBRANCH   1   7
BRANCH   6  13
ATOM     13  N   LIG d   1      13.936  76.646 113.885  0.00  0.00    -0.311 N 
ATOM     14  C   LIG d   1      15.112  76.154 114.272  0.00  0.00     0.210 C 
ATOM     15  C   LIG d   1      16.209  76.184 113.203  0.00  0.00     0.109 C 
ATOM     16  O   LIG d   1      15.341  75.667 115.389  0.00  0.00    -0.276 OA
ATOM     17  H   LIG d   1      13.830  76.991 112.951  0.00  0.00     0.149 HD
ENDBRANCH   6  13
BRANCH   5  18
ATOM     18  N   LIG d   1      12.462  74.235 115.045  0.00  0.00     0.381 N 
ATOM     19  H   LIG d   1      12.554  74.213 116.041  0.00  0.00    -0.090 HD
ATOM     20  H   LIG d   1      13.381  74.189 114.642  0.00  0.00    -0.090 HD
ATOM     21  H   LIG d   1      11.918  73.459 114.738  0.00  0.00    -0.090 HD
ENDBRANCH   5  18
BRANCH   3  22
ATOM     22  C   LIG d   1       8.586  77.011 115.503  0.00  0.00     0.382 C 
ATOM     23  O   LIG d   1       8.131  77.162 116.663  0.00  0.00    -0.241 OA
ATOM     24  O   LIG d   1       7.799  76.887 114.546  0.00  0.00    -0.241 OA
ENDBRANCH   3  22
TORSDOF 7
ENDMDL
MODEL 8
REMARK VINA RESULT:      -4.3     18.656     21.363
REMARK  7 active torsions:
REMARK  status: ('A' for Active; 'I' for Inactive)
REMARK    1  A    between atoms: C_2  and  C_3 
REMARK    2  A    between atoms: C_3  and  O_6 
REMARK    3  A    between atoms: C_3  and  C_4 
REMARK    4  A    between atoms: C_7  and  O_6 
REMARK    5  A    between atoms: C_9  and  C_10 
REMARK    6  A    between atoms: N_15  and  C_14 
REMARK    7  A    between atoms: N_20  and  C_19 
REMARK       I    between atoms: C_22  and  N_20 
ROOT
ATOM      1  C   LIG d   1     -25.547  85.548 114.095  0.00  0.00     0.161 C 
ATOM      2  C   LIG d   1     -24.502  86.488 114.076  0.00  0.00     0.016 C 
ATOM      3  C   LIG d   1     -23.172  86.165 113.723  0.00  0.00     0.038 C 
ATOM      4  C   LIG d   1     -22.824  84.903 113.217  0.00  0.00     0.028 C 
ATOM      5  C   LIG d   1     -23.741  83.784 113.698  0.00  0.00    -0.047 C 
ATOM      6  C   LIG d   1     -25.210  84.193 113.439  0.00  0.00     0.091 C 
ENDROOT
BRANCH   1   7
ATOM      7  O   LIG d   1     -26.727  86.116 113.493  0.00  0.00    -0.368 OA
BRANCH   7   8
ATOM      8  C   LIG d   1     -26.728  87.556 113.329  0.00  0.00     0.119 C 
BRANCH   8   9
ATOM      9  C   LIG d   1     -27.858  88.121 114.213  0.00  0.00     0.028 C 
ATOM     10  C   LIG d   1     -27.341  88.639 115.566  0.00  0.00     0.006 C 
ENDBRANCH   8   9
BRANCH   8  11
ATOM     11  C   LIG d   1     -27.097  87.953 111.897  0.00  0.00     0.028 C 
ATOM     12  C   LIG d   1     -27.694  89.366 111.806  0.00  0.00     0.006 C 
ENDBRANCH   8  11
ENDBRANCH   7   8
ENDBRANCH   1   7
BRANCH   6  13
ATOM     13  N   LIG d   1     -26.177  83.190 113.957  0.00  0.00    -0.311 N 
ATOM     14  C   LIG d   1     -26.597  82.143 113.249  0.00  0.00     0.210 C 
ATOM     15  C   LIG d   1     -27.610  81.243 113.964  0.00  0.00     0.109 C 
ATOM     16  O   LIG d   1     -26.203  81.856 112.108  0.00  0.00    -0.276 OA
ATOM     17  H   LIG d   1     -26.524  83.328 114.886  0.00  0.00     0.149 HD
ENDBRANCH   6  13
BRANCH   5  18
ATOM     18  N   LIG d   1     -23.351  82.552 112.987  0.00  0.00     0.381 N 
ATOM     19  H   LIG d   1     -23.504  82.664 112.005  0.00  0.00    -0.090 HD
ATOM     20  H   LIG d   1     -23.925  81.793 113.312  0.00  0.00    -0.090 HD
ATOM     21  H   LIG d   1     -22.391  82.348 113.160  0.00  0.00    -0.090 HD
ENDBRANCH   5  18
BRANCH   3  22
ATOM     22  C   LIG d   1     -22.165  87.098 113.914  0.00  0.00     0.382 C 
ATOM     23  O   LIG d   1     -21.123  87.048 113.217  0.00  0.00    -0.241 OA
ATOM     24  O   LIG d   1     -22.265  87.963 114.804  0.00  0.00    -0.241 OA
ENDBRANCH   3  22
TORSDOF 7
ENDMDL
MODEL 9
REMARK VINA RESULT:      -4.3     15.838     18.982
REMARK  7 active torsions:
REMARK  status: ('A' for Active; 'I' for Inactive)
REMARK    1  A    between atoms: C_2  and  C_3 
REMARK    2  A    between atoms: C_3  and  O_6 
REMARK    3  A    between atoms: C_3  and  C_4 
REMARK    4  A    between atoms: C_7  and  O_6 
REMARK    5  A    between atoms: C_9  and  C_10 
REMARK    6  A    between atoms: N_15  and  C_14 
REMARK    7  A    between atoms: N_20  and  C_19 
REMARK       I    between atoms: C_22  and  N_20 
ROOT
ATOM      1  C   LIG d   1      11.150  75.795 115.337  0.00  0.00     0.161 C 
ATOM      2  C   LIG d   1       9.789  76.008 115.615  0.00  0.00     0.016 C 
ATOM      3  C   LIG d   1       9.107  77.204 115.292  0.00  0.00     0.038 C 
ATOM      4  C   LIG d   1       9.707  78.216 114.528  0.00  0.00     0.028 C 
ATOM      5  C   LIG d   1      11.225  78.258 114.663  0.00  0.00    -0.047 C 
ATOM      6  C   LIG d   1      11.791  76.843 114.405  0.00  0.00     0.091 C 
ENDROOT
BRANCH   1   7
ATOM      7  O   LIG d   1      11.337  74.469 114.804  0.00  0.00    -0.368 OA
BRANCH   7   8
ATOM      8  C   LIG d   1      11.520  73.411 115.777  0.00  0.00     0.119 C 
BRANCH   8   9
ATOM      9  C   LIG d   1      12.958  73.523 116.318  0.00  0.00     0.028 C 
ATOM     10  C   LIG d   1      14.016  73.304 115.223  0.00  0.00     0.006 C 
ENDBRANCH   8   9
BRANCH   8  11
ATOM     11  C   LIG d   1      11.440  72.030 115.119  0.00  0.00     0.028 C 
ATOM     12  C   LIG d   1      10.434  71.097 115.812  0.00  0.00     0.006 C 
ENDBRANCH   8  11
ENDBRANCH   7   8
ENDBRANCH   1   7
BRANCH   6  13
ATOM     13  N   LIG d   1      13.263  76.778 114.600  0.00  0.00    -0.311 N 
ATOM     14  C   LIG d   1      14.143  77.006 113.626  0.00  0.00     0.210 C 
ATOM     15  C   LIG d   1      15.612  76.867 114.036  0.00  0.00     0.109 C 
ATOM     16  O   LIG d   1      13.846  77.343 112.470  0.00  0.00    -0.276 OA
ATOM     17  H   LIG d   1      13.592  76.542 115.516  0.00  0.00     0.149 HD
ENDBRANCH   6  13
BRANCH   5  18
ATOM     18  N   LIG d   1      11.729  79.266 113.711  0.00  0.00     0.381 N 
ATOM     19  H   LIG d   1      11.172  79.255 112.880  0.00  0.00    -0.090 HD
ATOM     20  H   LIG d   1      12.674  79.032 113.461  0.00  0.00    -0.090 HD
ATOM     21  H   LIG d   1      11.702  80.171 114.126  0.00  0.00    -0.090 HD
ENDBRANCH   5  18
BRANCH   3  22
ATOM     22  C   LIG d   1       7.822  77.413 115.770  0.00  0.00     0.382 C 
ATOM     23  O   LIG d   1       7.579  77.279 116.994  0.00  0.00    -0.241 OA
ATOM     24  O   LIG d   1       6.894  77.689 114.987  0.00  0.00    -0.241 OA
ENDBRANCH   3  22
TORSDOF 7
ENDMDL
