MODEL 1
REMARK VINA RESULT:      -5.0      0.000      0.000
REMARK  7 active torsions:
REMARK  status: ('A' for Active; 'I' for Inactive)
REMARK    1  A    between atoms: C_2  and  C_3 
REMARK    2  A    between atoms: C_3  and  O_6 
REMARK    3  A    between atoms: C_3  and  C_4 
REMARK    4  A    between atoms: C_7  and  O_6 
REMARK    5  A    between atoms: C_9  and  C_10 
REMARK    6  A    between atoms: N_15  and  C_14 
REMARK    7  A    between atoms: N_20  and  C_19 
REMARK       I    between atoms: C_22  and  N_20 
ROOT
ATOM      1  C   LIG d   1      -3.768  75.803 117.167  0.00  0.00     0.161 C 
ATOM      2  C   LIG d   1      -4.605  76.894 117.453  0.00  0.00     0.016 C 
ATOM      3  C   LIG d   1      -4.345  78.212 117.011  0.00  0.00     0.038 C 
ATOM      4  C   LIG d   1      -3.302  78.502 116.120  0.00  0.00     0.028 C 
ATOM      5  C   LIG d   1      -2.137  77.522 116.210  0.00  0.00    -0.047 C 
ATOM      6  C   LIG d   1      -2.685  76.081 116.103  0.00  0.00     0.091 C 
ENDROOT
BRANCH   1   7
ATOM      7  O   LIG d   1      -4.563  74.663 116.787  0.00  0.00    -0.368 OA
BRANCH   7   8
ATOM      8  C   LIG d   1      -5.775  74.949 116.046  0.00  0.00     0.119 C 
BRANCH   8   9
ATOM      9  C   LIG d   1      -6.885  74.037 116.604  0.00  0.00     0.028 C 
ATOM     10  C   LIG d   1      -6.386  72.610 116.885  0.00  0.00     0.006 C 
ENDBRANCH   8   9
BRANCH   8  11
ATOM     11  C   LIG d   1      -5.633  74.560 114.572  0.00  0.00     0.028 C 
ATOM     12  C   LIG d   1      -5.948  75.721 113.616  0.00  0.00     0.006 C 
ENDBRANCH   8  11
ENDBRANCH   7   8
ENDBRANCH   1   7
BRANCH   6  13
ATOM     13  N   LIG d   1      -1.621  75.056 116.267  0.00  0.00    -0.311 N 
ATOM     14  C   LIG d   1      -0.969  74.507 115.244  0.00  0.00     0.210 C 
ATOM     15  C   LIG d   1       0.077  73.456 115.632  0.00  0.00     0.109 C 
ATOM     16  O   LIG d   1      -1.134  74.812 114.053  0.00  0.00    -0.276 OA
ATOM     17  H   LIG d   1      -1.401  74.772 117.201  0.00  0.00     0.149 HD
ENDBRANCH   6  13
BRANCH   5  18
ATOM     18  N   LIG d   1      -1.186  77.860 115.135  0.00  0.00     0.381 N 
ATOM     19  H   LIG d   1      -1.376  78.780 114.791  0.00  0.00    -0.090 HD
ATOM     20  H   LIG d   1      -1.305  77.210 114.378  0.00  0.00    -0.090 HD
ATOM     21  H   LIG d   1      -0.252  77.813 115.478  0.00  0.00    -0.090 HD
ENDBRANCH   5  18
BRANCH   3  22
ATOM     22  C   LIG d   1      -5.111  79.262 117.494  0.00  0.00     0.382 C 
ATOM     23  O   LIG d   1      -6.327  79.340 117.196  0.00  0.00    -0.241 OA
ATOM     24  O   LIG d   1      -4.590  80.156 118.187  0.00  0.00    -0.241 OA
ENDBRANCH   3  22
TORSDOF 7
ENDMDL
MODEL 2
REMARK VINA RESULT:      -4.9      2.737      5.008
REMARK  7 active torsions:
REMARK  status: ('A' for Active; 'I' for Inactive)
REMARK    1  A    between atoms: C_2  and  C_3 
REMARK    2  A    between atoms: C_3  and  O_6 
REMARK    3  A    between atoms: C_3  and  C_4 
REMARK    4  A    between atoms: C_7  and  O_6 
REMARK    5  A    between atoms: C_9  and  C_10 
REMARK    6  A    between atoms: N_15  and  C_14 
REMARK    7  A    between atoms: N_20  and  C_19 
REMARK       I    between atoms: C_22  and  N_20 
ROOT
ATOM      1  C   LIG d   1      -3.221  75.701 116.018  0.00  0.00     0.161 C 
ATOM      2  C   LIG d   1      -3.954  74.646 116.586  0.00  0.00     0.016 C 
ATOM      3  C   LIG d   1      -5.139  74.126 116.017  0.00  0.00     0.038 C 
ATOM      4  C   LIG d   1      -5.592  74.529 114.752  0.00  0.00     0.028 C 
ATOM      5  C   LIG d   1      -5.166  75.944 114.378  0.00  0.00    -0.047 C 
ATOM      6  C   LIG d   1      -3.639  76.078 114.581  0.00  0.00     0.091 C 
ENDROOT
BRANCH   1   7
ATOM      7  O   LIG d   1      -1.813  75.400 116.067  0.00  0.00    -0.368 OA
BRANCH   7   8
ATOM      8  C   LIG d   1      -1.446  74.022 115.814  0.00  0.00     0.119 C 
BRANCH   8   9
ATOM      9  C   LIG d   1      -0.339  73.645 116.817  0.00  0.00     0.028 C 
ATOM     10  C   LIG d   1      -0.700  74.030 118.261  0.00  0.00     0.006 C 
ENDBRANCH   8   9
BRANCH   8  11
ATOM     11  C   LIG d   1      -0.811  73.860 114.429  0.00  0.00     0.028 C 
ATOM     12  C   LIG d   1       0.531  73.111 114.473  0.00  0.00     0.006 C 
ENDBRANCH   8  11
ENDBRANCH   7   8
ENDBRANCH   1   7
BRANCH   6  13
ATOM     13  N   LIG d   1      -3.151  77.457 114.318  0.00  0.00    -0.311 N 
ATOM     14  C   LIG d   1      -2.688  77.858 113.135  0.00  0.00     0.210 C 
ATOM     15  C   LIG d   1      -2.216  79.315 113.085  0.00  0.00     0.109 C 
ATOM     16  O   LIG d   1      -2.652  77.155 112.115  0.00  0.00    -0.276 OA
ATOM     17  H   LIG d   1      -3.174  78.103 115.083  0.00  0.00     0.149 HD
ENDBRANCH   6  13
BRANCH   5  18
ATOM     18  N   LIG d   1      -5.587  76.183 112.984  0.00  0.00     0.381 N 
ATOM     19  H   LIG d   1      -6.479  76.636 112.973  0.00  0.00    -0.090 HD
ATOM     20  H   LIG d   1      -5.676  75.299 112.516  0.00  0.00    -0.090 HD
ATOM     21  H   LIG d   1      -4.913  76.749 112.517  0.00  0.00    -0.090 HD
ENDBRANCH   5  18
BRANCH   3  22
ATOM     22  C   LIG d   1      -5.906  73.221 116.734  0.00  0.00     0.382 C 
ATOM     23  O   LIG d   1      -6.130  72.079 116.265  0.00  0.00    -0.241 OA
ATOM     24  O   LIG d   1      -6.414  73.546 117.824  0.00  0.00    -0.241 OA
ENDBRANCH   3  22
TORSDOF 7
ENDMDL
MODEL 3
REMARK VINA RESULT:      -4.9     10.738     13.003
REMARK  7 active torsions:
REMARK  status: ('A' for Active; 'I' for Inactive)
REMARK    1  A    between atoms: C_2  and  C_3 
REMARK    2  A    between atoms: C_3  and  O_6 
REMARK    3  A    between atoms: C_3  and  C_4 
REMARK    4  A    between atoms: C_7  and  O_6 
REMARK    5  A    between atoms: C_9  and  C_10 
REMARK    6  A    between atoms: N_15  and  C_14 
REMARK    7  A    between atoms: N_20  and  C_19 
REMARK       I    between atoms: C_22  and  N_20 
ROOT
ATOM      1  C   LIG d   1       2.070  87.265 115.214  0.00  0.00     0.161 C 
ATOM      2  C   LIG d   1       2.762  88.408 114.780  0.00  0.00     0.016 C 
ATOM      3  C   LIG d   1       4.136  88.629 115.033  0.00  0.00     0.038 C 
ATOM      4  C   LIG d   1       4.951  87.645 115.610  0.00  0.00     0.028 C 
ATOM      5  C   LIG d   1       4.190  86.683 116.516  0.00  0.00    -0.047 C 
ATOM      6  C   LIG d   1       2.968  86.130 115.748  0.00  0.00     0.091 C 
ENDROOT
BRANCH   1   7
ATOM      7  O   LIG d   1       1.221  86.777 114.156  0.00  0.00    -0.368 OA
BRANCH   7   8
ATOM      8  C   LIG d   1       1.805  85.785 113.277  0.00  0.00     0.119 C 
BRANCH   8   9
ATOM      9  C   LIG d   1       2.216  86.503 111.976  0.00  0.00     0.028 C 
ATOM     10  C   LIG d   1       3.742  86.582 111.806  0.00  0.00     0.006 C 
ENDBRANCH   8   9
BRANCH   8  11
ATOM     11  C   LIG d   1       0.771  84.738 112.853  0.00  0.00     0.028 C 
ATOM     12  C   LIG d   1      -0.394  85.342 112.052  0.00  0.00     0.006 C 
ENDBRANCH   8  11
ENDBRANCH   7   8
ENDBRANCH   1   7
BRANCH   6  13
ATOM     13  N   LIG d   1       2.122  85.245 116.590  0.00  0.00    -0.311 N 
ATOM     14  C   LIG d   1       2.264  83.921 116.636  0.00  0.00     0.210 C 
ATOM     15  C   LIG d   1       1.274  83.197 117.554  0.00  0.00     0.109 C 
ATOM     16  O   LIG d   1       3.136  83.282 116.029  0.00  0.00    -0.276 OA
ATOM     17  H   LIG d   1       1.409  85.684 117.139  0.00  0.00     0.149 HD
ENDBRANCH   6  13
BRANCH   5  18
ATOM     18  N   LIG d   1       5.132  85.629 116.940  0.00  0.00     0.381 N 
ATOM     19  H   LIG d   1       4.802  85.197 117.779  0.00  0.00    -0.090 HD
ATOM     20  H   LIG d   1       6.025  86.050 117.132  0.00  0.00    -0.090 HD
ATOM     21  H   LIG d   1       5.226  84.947 116.220  0.00  0.00    -0.090 HD
ENDBRANCH   5  18
BRANCH   3  22
ATOM     22  C   LIG d   1       4.698  89.863 114.743  0.00  0.00     0.382 C 
ATOM     23  O   LIG d   1       4.805  90.239 113.551  0.00  0.00    -0.241 OA
ATOM     24  O   LIG d   1       5.139  90.587 115.656  0.00  0.00    -0.241 OA
ENDBRANCH   3  22
TORSDOF 7
ENDMDL
MODEL 4
REMARK VINA RESULT:      -4.6      2.502      5.530
REMARK  7 active torsions:
REMARK  status: ('A' for Active; 'I' for Inactive)
REMARK    1  A    between atoms: C_2  and  C_3 
REMARK    2  A    between atoms: C_3  and  O_6 
REMARK    3  A    between atoms: C_3  and  C_4 
REMARK    4  A    between atoms: C_7  and  O_6 
REMARK    5  A    between atoms: C_9  and  C_10 
REMARK    6  A    between atoms: N_15  and  C_14 
REMARK    7  A    between atoms: N_20  and  C_19 
REMARK       I    between atoms: C_22  and  N_20 
ROOT
ATOM      1  C   LIG d   1      -4.079  74.507 116.267  0.00  0.00     0.161 C 
ATOM      2  C   LIG d   1      -4.726  73.275 116.075  0.00  0.00     0.016 C 
ATOM      3  C   LIG d   1      -6.111  73.082 116.286  0.00  0.00     0.038 C 
ATOM      4  C   LIG d   1      -6.975  74.152 116.560  0.00  0.00     0.028 C 
ATOM      5  C   LIG d   1      -6.289  75.322 117.257  0.00  0.00    -0.047 C 
ATOM      6  C   LIG d   1      -5.025  75.711 116.458  0.00  0.00     0.091 C 
ENDROOT
BRANCH   1   7
ATOM      7  O   LIG d   1      -3.166  74.754 115.179  0.00  0.00    -0.368 OA
BRANCH   7   8
ATOM      8  C   LIG d   1      -1.790  74.357 115.399  0.00  0.00     0.119 C 
BRANCH   8   9
ATOM      9  C   LIG d   1      -1.439  74.695 116.861  0.00  0.00     0.028 C 
ATOM     10  C   LIG d   1      -0.713  73.541 117.572  0.00  0.00     0.006 C 
ENDBRANCH   8   9
BRANCH   8  11
ATOM     11  C   LIG d   1      -0.827  75.189 114.547  0.00  0.00     0.028 C 
ATOM     12  C   LIG d   1       0.427  74.406 114.129  0.00  0.00     0.006 C 
ENDBRANCH   8  11
ENDBRANCH   7   8
ENDBRANCH   1   7
BRANCH   6  13
ATOM     13  N   LIG d   1      -4.248  76.793 117.117  0.00  0.00    -0.311 N 
ATOM     14  C   LIG d   1      -3.712  77.818 116.456  0.00  0.00     0.210 C 
ATOM     15  C   LIG d   1      -2.933  78.811 117.325  0.00  0.00     0.109 C 
ATOM     16  O   LIG d   1      -3.835  78.016 115.238  0.00  0.00    -0.276 OA
ATOM     17  H   LIG d   1      -4.125  76.728 118.109  0.00  0.00     0.149 HD
ENDBRANCH   6  13
BRANCH   5  18
ATOM     18  N   LIG d   1      -7.270  76.419 117.358  0.00  0.00     0.381 N 
ATOM     19  H   LIG d   1      -8.161  76.108 117.025  0.00  0.00    -0.090 HD
ATOM     20  H   LIG d   1      -6.966  77.181 116.778  0.00  0.00    -0.090 HD
ATOM     21  H   LIG d   1      -7.347  76.722 118.303  0.00  0.00    -0.090 HD
ENDBRANCH   5  18
BRANCH   3  22
ATOM     22  C   LIG d   1      -6.637  71.799 116.263  0.00  0.00     0.382 C 
ATOM     23  O   LIG d   1      -7.569  71.490 117.045  0.00  0.00    -0.241 OA
ATOM     24  O   LIG d   1      -6.163  70.935 115.502  0.00  0.00    -0.241 OA
ENDBRANCH   3  22
TORSDOF 7
ENDMDL
MODEL 5
REMARK VINA RESULT:      -4.6     12.893     15.094
REMARK  7 active torsions:
REMARK  status: ('A' for Active; 'I' for Inactive)
REMARK    1  A    between atoms: C_2  and  C_3 
REMARK    2  A    between atoms: C_3  and  O_6 
REMARK    3  A    between atoms: C_3  and  C_4 
REMARK    4  A    between atoms: C_7  and  O_6 
REMARK    5  A    between atoms: C_9  and  C_10 
REMARK    6  A    between atoms: N_15  and  C_14 
REMARK    7  A    between atoms: N_20  and  C_19 
REMARK       I    between atoms: C_22  and  N_20 
ROOT
ATOM      1  C   LIG d   1       3.322  88.414 115.434  0.00  0.00     0.161 C 
ATOM      2  C   LIG d   1       2.762  87.482 114.545  0.00  0.00     0.016 C 
ATOM      3  C   LIG d   1       3.203  87.314 113.213  0.00  0.00     0.038 C 
ATOM      4  C   LIG d   1       4.343  87.968 112.722  0.00  0.00     0.028 C 
ATOM      5  C   LIG d   1       4.632  89.291 113.424  0.00  0.00    -0.047 C 
ATOM      6  C   LIG d   1       4.639  89.057 114.952  0.00  0.00     0.091 C 
ENDROOT
BRANCH   1   7
ATOM      7  O   LIG d   1       3.506  87.806 116.728  0.00  0.00    -0.368 OA
BRANCH   7   8
ATOM      8  C   LIG d   1       2.662  88.308 117.794  0.00  0.00     0.119 C 
BRANCH   8   9
ATOM      9  C   LIG d   1       1.649  87.200 118.142  0.00  0.00     0.028 C 
ATOM     10  C   LIG d   1       0.279  87.429 117.480  0.00  0.00     0.006 C 
ENDBRANCH   8   9
BRANCH   8  11
ATOM     11  C   LIG d   1       1.819  89.496 117.324  0.00  0.00     0.028 C 
ATOM     12  C   LIG d   1       2.098  90.778 118.124  0.00  0.00     0.006 C 
ENDBRANCH   8  11
ENDBRANCH   7   8
ENDBRANCH   1   7
BRANCH   6  13
ATOM     13  N   LIG d   1       4.831  90.317 115.717  0.00  0.00    -0.311 N 
ATOM     14  C   LIG d   1       5.768  90.472 116.650  0.00  0.00     0.210 C 
ATOM     15  C   LIG d   1       5.781  91.844 117.332  0.00  0.00     0.109 C 
ATOM     16  O   LIG d   1       6.611  89.615 116.955  0.00  0.00    -0.276 OA
ATOM     17  H   LIG d   1       4.210  91.075 115.511  0.00  0.00     0.149 HD
ENDBRANCH   6  13
BRANCH   5  18
ATOM     18  N   LIG d   1       5.920  89.795 112.911  0.00  0.00     0.381 N 
ATOM     19  H   LIG d   1       6.007  90.771 113.113  0.00  0.00    -0.090 HD
ATOM     20  H   LIG d   1       5.941  89.677 111.913  0.00  0.00    -0.090 HD
ATOM     21  H   LIG d   1       6.673  89.294 113.328  0.00  0.00    -0.090 HD
ENDBRANCH   5  18
BRANCH   3  22
ATOM     22  C   LIG d   1       2.477  86.515 112.343  0.00  0.00     0.382 C 
ATOM     23  O   LIG d   1       1.389  86.927 111.873  0.00  0.00    -0.241 OA
ATOM     24  O   LIG d   1       2.874  85.369 112.058  0.00  0.00    -0.241 OA
ENDBRANCH   3  22
TORSDOF 7
ENDMDL
MODEL 6
REMARK VINA RESULT:      -4.6     13.299     15.723
REMARK  7 active torsions:
REMARK  status: ('A' for Active; 'I' for Inactive)
REMARK    1  A    between atoms: C_2  and  C_3 
REMARK    2  A    between atoms: C_3  and  O_6 
REMARK    3  A    between atoms: C_3  and  C_4 
REMARK    4  A    between atoms: C_7  and  O_6 
REMARK    5  A    between atoms: C_9  and  C_10 
REMARK    6  A    between atoms: N_15  and  C_14 
REMARK    7  A    between atoms: N_20  and  C_19 
REMARK       I    between atoms: C_22  and  N_20 
ROOT
ATOM      1  C   LIG d   1      11.893  79.224 115.434  0.00  0.00     0.161 C 
ATOM      2  C   LIG d   1      10.935  80.209 115.725  0.00  0.00     0.016 C 
ATOM      3  C   LIG d   1      10.529  81.197 114.798  0.00  0.00     0.038 C 
ATOM      4  C   LIG d   1      10.945  81.173 113.459  0.00  0.00     0.028 C 
ATOM      5  C   LIG d   1      12.298  80.499 113.257  0.00  0.00    -0.047 C 
ATOM      6  C   LIG d   1      12.276  79.114 113.944  0.00  0.00     0.091 C 
ENDROOT
BRANCH   1   7
ATOM      7  O   LIG d   1      11.447  77.947 115.932  0.00  0.00    -0.368 OA
BRANCH   7   8
ATOM      8  C   LIG d   1      10.467  77.253 115.121  0.00  0.00     0.119 C 
BRANCH   8   9
ATOM      9  C   LIG d   1       9.191  77.096 115.970  0.00  0.00     0.028 C 
ATOM     10  C   LIG d   1       7.936  77.605 115.242  0.00  0.00     0.006 C 
ENDBRANCH   8   9
BRANCH   8  11
ATOM     11  C   LIG d   1      10.920  75.825 114.801  0.00  0.00     0.028 C 
ATOM     12  C   LIG d   1      12.107  75.368 115.664  0.00  0.00     0.006 C 
ENDBRANCH   8  11
ENDBRANCH   7   8
ENDBRANCH   1   7
BRANCH   6  13
ATOM     13  N   LIG d   1      13.589  78.422 113.867  0.00  0.00    -0.311 N 
ATOM     14  C   LIG d   1      13.935  77.615 112.865  0.00  0.00     0.210 C 
ATOM     15  C   LIG d   1      15.327  76.988 112.991  0.00  0.00     0.109 C 
ATOM     16  O   LIG d   1      13.234  77.385 111.868  0.00  0.00    -0.276 OA
ATOM     17  H   LIG d   1      14.231  78.577 114.619  0.00  0.00     0.149 HD
ENDBRANCH   6  13
BRANCH   5  18
ATOM     18  N   LIG d   1      12.545  80.420 111.805  0.00  0.00     0.381 N 
ATOM     19  H   LIG d   1      11.911  81.024 111.321  0.00  0.00    -0.090 HD
ATOM     20  H   LIG d   1      12.381  79.478 111.498  0.00  0.00    -0.090 HD
ATOM     21  H   LIG d   1      13.485  80.684 111.605  0.00  0.00    -0.090 HD
ENDBRANCH   5  18
BRANCH   3  22
ATOM     22  C   LIG d   1       9.727  82.246 115.220  0.00  0.00     0.382 C 
ATOM     23  O   LIG d   1       9.299  82.274 116.399  0.00  0.00    -0.241 OA
ATOM     24  O   LIG d   1       9.390  83.143 114.424  0.00  0.00    -0.241 OA
ENDBRANCH   3  22
TORSDOF 7
ENDMDL
MODEL 7
REMARK VINA RESULT:      -4.5      2.049      4.745
REMARK  7 active torsions:
REMARK  status: ('A' for Active; 'I' for Inactive)
REMARK    1  A    between atoms: C_2  and  C_3 
REMARK    2  A    between atoms: C_3  and  O_6 
REMARK    3  A    between atoms: C_3  and  C_4 
REMARK    4  A    between atoms: C_7  and  O_6 
REMARK    5  A    between atoms: C_9  and  C_10 
REMARK    6  A    between atoms: N_15  and  C_14 
REMARK    7  A    between atoms: N_20  and  C_19 
REMARK       I    between atoms: C_22  and  N_20 
ROOT
ATOM      1  C   LIG d   1      -2.768  75.334 115.902  0.00  0.00     0.161 C 
ATOM      2  C   LIG d   1      -3.911  74.518 115.916  0.00  0.00     0.016 C 
ATOM      3  C   LIG d   1      -5.199  74.989 116.256  0.00  0.00     0.038 C 
ATOM      4  C   LIG d   1      -5.460  76.352 116.461  0.00  0.00     0.028 C 
ATOM      5  C   LIG d   1      -4.247  77.134 116.952  0.00  0.00    -0.047 C 
ATOM      6  C   LIG d   1      -3.052  76.847 116.014  0.00  0.00     0.091 C 
ENDROOT
BRANCH   1   7
ATOM      7  O   LIG d   1      -1.984  75.058 114.724  0.00  0.00    -0.368 OA
BRANCH   7   8
ATOM      8  C   LIG d   1      -0.956  74.047 114.866  0.00  0.00     0.119 C 
BRANCH   8   9
ATOM      9  C   LIG d   1      -0.120  74.407 116.110  0.00  0.00     0.028 C 
ATOM     10  C   LIG d   1      -0.138  73.293 117.170  0.00  0.00     0.006 C 
ENDBRANCH   8   9
BRANCH   8  11
ATOM     11  C   LIG d   1       0.028  74.085 113.692  0.00  0.00     0.028 C 
ATOM     12  C   LIG d   1       0.222  72.710 113.034  0.00  0.00     0.006 C 
ENDBRANCH   8  11
ENDBRANCH   7   8
ENDBRANCH   1   7
BRANCH   6  13
ATOM     13  N   LIG d   1      -1.801  77.507 116.472  0.00  0.00    -0.311 N 
ATOM     14  C   LIG d   1      -1.385  78.686 116.014  0.00  0.00     0.210 C 
ATOM     15  C   LIG d   1      -0.059  79.177 116.604  0.00  0.00     0.109 C 
ATOM     16  O   LIG d   1      -2.004  79.388 115.200  0.00  0.00    -0.276 OA
ATOM     17  H   LIG d   1      -1.253  77.022 117.155  0.00  0.00     0.149 HD
ENDBRANCH   6  13
BRANCH   5  18
ATOM     18  N   LIG d   1      -4.621  78.560 116.991  0.00  0.00     0.381 N 
ATOM     19  H   LIG d   1      -4.145  79.056 116.264  0.00  0.00    -0.090 HD
ATOM     20  H   LIG d   1      -4.338  78.947 117.874  0.00  0.00    -0.090 HD
ATOM     21  H   LIG d   1      -5.606  78.658 116.878  0.00  0.00    -0.090 HD
ENDBRANCH   5  18
BRANCH   3  22
ATOM     22  C   LIG d   1      -6.237  74.086 116.434  0.00  0.00     0.382 C 
ATOM     23  O   LIG d   1      -7.396  74.502 116.670  0.00  0.00    -0.241 OA
ATOM     24  O   LIG d   1      -6.019  72.860 116.404  0.00  0.00    -0.241 OA
ENDBRANCH   3  22
TORSDOF 7
ENDMDL
MODEL 8
REMARK VINA RESULT:      -4.5     21.833     23.860
REMARK  7 active torsions:
REMARK  status: ('A' for Active; 'I' for Inactive)
REMARK    1  A    between atoms: C_2  and  C_3 
REMARK    2  A    between atoms: C_3  and  O_6 
REMARK    3  A    between atoms: C_3  and  C_4 
REMARK    4  A    between atoms: C_7  and  O_6 
REMARK    5  A    between atoms: C_9  and  C_10 
REMARK    6  A    between atoms: N_15  and  C_14 
REMARK    7  A    between atoms: N_20  and  C_19 
REMARK       I    between atoms: C_22  and  N_20 
ROOT
ATOM      1  C   LIG d   1     -25.479  85.567 114.087  0.00  0.00     0.161 C 
ATOM      2  C   LIG d   1     -24.439  86.510 114.031  0.00  0.00     0.016 C 
ATOM      3  C   LIG d   1     -23.148  86.216 113.534  0.00  0.00     0.038 C 
ATOM      4  C   LIG d   1     -22.853  84.992 112.915  0.00  0.00     0.028 C 
ATOM      5  C   LIG d   1     -23.723  83.840 113.405  0.00  0.00    -0.047 C 
ATOM      6  C   LIG d   1     -25.208  84.259 113.314  0.00  0.00     0.091 C 
ENDROOT
BRANCH   1   7
ATOM      7  O   LIG d   1     -26.709  86.169 113.638  0.00  0.00    -0.368 OA
BRANCH   7   8
ATOM      8  C   LIG d   1     -26.910  86.213 112.204  0.00  0.00     0.119 C 
BRANCH   8   9
ATOM      9  C   LIG d   1     -27.074  87.692 111.805  0.00  0.00     0.028 C 
ATOM     10  C   LIG d   1     -27.301  88.606 113.021  0.00  0.00     0.006 C 
ENDBRANCH   8   9
BRANCH   8  11
ATOM     11  C   LIG d   1     -28.226  85.537 111.805  0.00  0.00     0.028 C 
ATOM     12  C   LIG d   1     -29.309  85.656 112.888  0.00  0.00     0.006 C 
ENDBRANCH   8  11
ENDBRANCH   7   8
ENDBRANCH   1   7
BRANCH   6  13
ATOM     13  N   LIG d   1     -26.124  83.220 113.853  0.00  0.00    -0.311 N 
ATOM     14  C   LIG d   1     -26.756  82.331 113.089  0.00  0.00     0.210 C 
ATOM     15  C   LIG d   1     -27.669  81.361 113.845  0.00  0.00     0.109 C 
ATOM     16  O   LIG d   1     -26.622  82.234 111.860  0.00  0.00    -0.276 OA
ATOM     17  H   LIG d   1     -26.266  83.207 114.844  0.00  0.00     0.149 HD
ENDBRANCH   6  13
BRANCH   5  18
ATOM     18  N   LIG d   1     -23.404  82.659 112.581  0.00  0.00     0.381 N 
ATOM     19  H   LIG d   1     -22.413  82.589 112.458  0.00  0.00    -0.090 HD
ATOM     20  H   LIG d   1     -23.827  82.770 111.676  0.00  0.00    -0.090 HD
ATOM     21  H   LIG d   1     -23.750  81.834 113.019  0.00  0.00    -0.090 HD
ENDBRANCH   5  18
BRANCH   3  22
ATOM     22  C   LIG d   1     -22.125  87.139 113.690  0.00  0.00     0.382 C 
ATOM     23  O   LIG d   1     -22.272  88.111 114.470  0.00  0.00    -0.241 OA
ATOM     24  O   LIG d   1     -21.076  87.037 113.027  0.00  0.00    -0.241 OA
ENDBRANCH   3  22
TORSDOF 7
ENDMDL
MODEL 9
REMARK VINA RESULT:      -4.5      1.804      4.942
REMARK  7 active torsions:
REMARK  status: ('A' for Active; 'I' for Inactive)
REMARK    1  A    between atoms: C_2  and  C_3 
REMARK    2  A    between atoms: C_3  and  O_6 
REMARK    3  A    between atoms: C_3  and  C_4 
REMARK    4  A    between atoms: C_7  and  O_6 
REMARK    5  A    between atoms: C_9  and  C_10 
REMARK    6  A    between atoms: N_15  and  C_14 
REMARK    7  A    between atoms: N_20  and  C_19 
REMARK       I    between atoms: C_22  and  N_20 
ROOT
ATOM      1  C   LIG d   1      -2.820  75.419 115.756  0.00  0.00     0.161 C 
ATOM      2  C   LIG d   1      -2.004  74.638 114.921  0.00  0.00     0.016 C 
ATOM      3  C   LIG d   1      -0.595  74.751 114.883  0.00  0.00     0.038 C 
ATOM      4  C   LIG d   1       0.109  75.554 115.793  0.00  0.00     0.028 C 
ATOM      5  C   LIG d   1      -0.702  76.737 116.311  0.00  0.00    -0.047 C 
ATOM      6  C   LIG d   1      -2.062  76.221 116.834  0.00  0.00     0.091 C 
ENDROOT
BRANCH   1   7
ATOM      7  O   LIG d   1      -3.831  74.591 116.364  0.00  0.00    -0.368 OA
BRANCH   7   8
ATOM      8  C   LIG d   1      -4.917  74.174 115.502  0.00  0.00     0.119 C 
BRANCH   8   9
ATOM      9  C   LIG d   1      -5.743  75.428 115.157  0.00  0.00     0.028 C 
ATOM     10  C   LIG d   1      -5.919  75.617 113.641  0.00  0.00     0.006 C 
ENDBRANCH   8   9
BRANCH   8  11
ATOM     11  C   LIG d   1      -5.885  73.241 116.236  0.00  0.00     0.028 C 
ATOM     12  C   LIG d   1      -6.523  73.896 117.471  0.00  0.00     0.006 C 
ENDBRANCH   8  11
ENDBRANCH   7   8
ENDBRANCH   1   7
BRANCH   6  13
ATOM     13  N   LIG d   1      -2.952  77.324 117.283  0.00  0.00    -0.311 N 
ATOM     14  C   LIG d   1      -3.521  78.192 116.448  0.00  0.00     0.210 C 
ATOM     15  C   LIG d   1      -4.386  79.263 117.120  0.00  0.00     0.109 C 
ATOM     16  O   LIG d   1      -3.418  78.157 115.213  0.00  0.00    -0.276 OA
ATOM     17  H   LIG d   1      -3.115  77.407 118.267  0.00  0.00     0.149 HD
ENDBRANCH   6  13
BRANCH   5  18
ATOM     18  N   LIG d   1       0.101  77.407 117.351  0.00  0.00     0.381 N 
ATOM     19  H   LIG d   1       0.842  76.804 117.647  0.00  0.00    -0.090 HD
ATOM     20  H   LIG d   1      -0.487  77.597 118.144  0.00  0.00    -0.090 HD
ATOM     21  H   LIG d   1       0.477  78.258 116.996  0.00  0.00    -0.090 HD
ENDBRANCH   5  18
BRANCH   3  22
ATOM     22  C   LIG d   1       0.122  74.086 113.900  0.00  0.00     0.382 C 
ATOM     23  O   LIG d   1       1.200  73.514 114.189  0.00  0.00    -0.241 OA
ATOM     24  O   LIG d   1      -0.274  74.089 112.719  0.00  0.00    -0.241 OA
ENDBRANCH   3  22
TORSDOF 7
ENDMDL
