MODEL 1
REMARK VINA RESULT:      -5.7      0.000      0.000
REMARK  7 active torsions:
REMARK  status: ('A' for Active; 'I' for Inactive)
REMARK    1  A    between atoms: C_2  and  C_3 
REMARK    2  A    between atoms: C_3  and  O_6 
REMARK    3  A    between atoms: C_3  and  C_4 
REMARK    4  A    between atoms: C_7  and  O_6 
REMARK    5  A    between atoms: C_9  and  C_10 
REMARK    6  A    between atoms: N_15  and  C_14 
REMARK    7  A    between atoms: N_20  and  C_19 
REMARK       I    between atoms: C_22  and  N_20 
ROOT
ATOM      1  C   LIG d   1      -2.970  77.002 116.059  0.00  0.00     0.161 C 
ATOM      2  C   LIG d   1      -3.293  77.913 115.040  0.00  0.00     0.016 C 
ATOM      3  C   LIG d   1      -2.489  78.118 113.896  0.00  0.00     0.038 C 
ATOM      4  C   LIG d   1      -1.376  77.311 113.617  0.00  0.00     0.028 C 
ATOM      5  C   LIG d   1      -0.728  76.721 114.865  0.00  0.00    -0.047 C 
ATOM      6  C   LIG d   1      -1.818  76.033 115.719  0.00  0.00     0.091 C 
ENDROOT
BRANCH   1   7
ATOM      7  O   LIG d   1      -4.146  76.265 116.447  0.00  0.00    -0.368 OA
BRANCH   7   8
ATOM      8  C   LIG d   1      -5.066  75.926 115.381  0.00  0.00     0.119 C 
BRANCH   8   9
ATOM      9  C   LIG d   1      -6.496  76.109 115.927  0.00  0.00     0.028 C 
ATOM     10  C   LIG d   1      -6.605  77.299 116.896  0.00  0.00     0.006 C 
ENDBRANCH   8   9
BRANCH   8  11
ATOM     11  C   LIG d   1      -4.963  74.445 115.005  0.00  0.00     0.028 C 
ATOM     12  C   LIG d   1      -6.103  73.600 115.594  0.00  0.00     0.006 C 
ENDBRANCH   8  11
ENDBRANCH   7   8
ENDBRANCH   1   7
BRANCH   6  13
ATOM     13  N   LIG d   1      -1.283  75.502 117.000  0.00  0.00    -0.311 N 
ATOM     14  C   LIG d   1      -0.827  74.259 117.145  0.00  0.00     0.210 C 
ATOM     15  C   LIG d   1      -0.340  73.909 118.555  0.00  0.00     0.109 C 
ATOM     16  O   LIG d   1      -0.751  73.423 116.232  0.00  0.00    -0.276 OA
ATOM     17  H   LIG d   1      -1.279  76.123 117.785  0.00  0.00     0.149 HD
ENDBRANCH   6  13
BRANCH   5  18
ATOM     18  N   LIG d   1       0.330  75.794 114.422  0.00  0.00     0.381 N 
ATOM     19  H   LIG d   1       0.903  76.238 113.733  0.00  0.00    -0.090 HD
ATOM     20  H   LIG d   1      -0.099  74.987 114.003  0.00  0.00    -0.090 HD
ATOM     21  H   LIG d   1       0.888  75.516 115.200  0.00  0.00    -0.090 HD
ENDBRANCH   5  18
BRANCH   3  22
ATOM     22  C   LIG d   1      -2.773  79.167 113.035  0.00  0.00     0.382 C 
ATOM     23  O   LIG d   1      -2.161  79.268 111.945  0.00  0.00    -0.241 OA
ATOM     24  O   LIG d   1      -3.603  80.040 113.355  0.00  0.00    -0.241 OA
ENDBRANCH   3  22
TORSDOF 7
ENDMDL
MODEL 2
REMARK VINA RESULT:      -5.2      2.785      6.047
REMARK  7 active torsions:
REMARK  status: ('A' for Active; 'I' for Inactive)
REMARK    1  A    between atoms: C_2  and  C_3 
REMARK    2  A    between atoms: C_3  and  O_6 
REMARK    3  A    between atoms: C_3  and  C_4 
REMARK    4  A    between atoms: C_7  and  O_6 
REMARK    5  A    between atoms: C_9  and  C_10 
REMARK    6  A    between atoms: N_15  and  C_14 
REMARK    7  A    between atoms: N_20  and  C_19 
REMARK       I    between atoms: C_22  and  N_20 
ROOT
ATOM      1  C   LIG d   1      -4.180  76.621 115.077  0.00  0.00     0.161 C 
ATOM      2  C   LIG d   1      -4.587  75.359 114.612  0.00  0.00     0.016 C 
ATOM      3  C   LIG d   1      -5.728  74.681 115.100  0.00  0.00     0.038 C 
ATOM      4  C   LIG d   1      -6.631  75.290 115.984  0.00  0.00     0.028 C 
ATOM      5  C   LIG d   1      -5.990  76.361 116.862  0.00  0.00    -0.047 C 
ATOM      6  C   LIG d   1      -5.214  77.349 115.961  0.00  0.00     0.091 C 
ENDROOT
BRANCH   1   7
ATOM      7  O   LIG d   1      -3.800  77.453 113.963  0.00  0.00    -0.368 OA
BRANCH   7   8
ATOM      8  C   LIG d   1      -2.408  77.388 113.565  0.00  0.00     0.119 C 
BRANCH   8   9
ATOM      9  C   LIG d   1      -1.563  77.286 114.850  0.00  0.00     0.028 C 
ATOM     10  C   LIG d   1      -0.516  76.162 114.777  0.00  0.00     0.006 C 
ENDBRANCH   8   9
BRANCH   8  11
ATOM     11  C   LIG d   1      -1.961  78.686 112.887  0.00  0.00     0.028 C 
ATOM     12  C   LIG d   1      -2.909  79.862 113.169  0.00  0.00     0.006 C 
ENDBRANCH   8  11
ENDBRANCH   7   8
ENDBRANCH   1   7
BRANCH   6  13
ATOM     13  N   LIG d   1      -4.488  78.380 116.747  0.00  0.00    -0.311 N 
ATOM     14  C   LIG d   1      -4.991  79.583 117.021  0.00  0.00     0.210 C 
ATOM     15  C   LIG d   1      -4.068  80.502 117.827  0.00  0.00     0.109 C 
ATOM     16  O   LIG d   1      -6.127  79.964 116.700  0.00  0.00    -0.276 OA
ATOM     17  H   LIG d   1      -3.571  78.143 117.073  0.00  0.00     0.149 HD
ENDBRANCH   6  13
BRANCH   5  18
ATOM     18  N   LIG d   1      -7.068  77.007 117.634  0.00  0.00     0.381 N 
ATOM     19  H   LIG d   1      -6.961  78.001 117.600  0.00  0.00    -0.090 HD
ATOM     20  H   LIG d   1      -7.000  76.716 118.594  0.00  0.00    -0.090 HD
ATOM     21  H   LIG d   1      -7.956  76.748 117.264  0.00  0.00    -0.090 HD
ENDBRANCH   5  18
BRANCH   3  22
ATOM     22  C   LIG d   1      -5.953  73.364 114.732  0.00  0.00     0.382 C 
ATOM     23  O   LIG d   1      -6.282  72.518 115.599  0.00  0.00    -0.241 OA
ATOM     24  O   LIG d   1      -5.789  73.000 113.552  0.00  0.00    -0.241 OA
ENDBRANCH   3  22
TORSDOF 7
ENDMDL
MODEL 3
REMARK VINA RESULT:      -5.0      2.716      4.663
REMARK  7 active torsions:
REMARK  status: ('A' for Active; 'I' for Inactive)
REMARK    1  A    between atoms: C_2  and  C_3 
REMARK    2  A    between atoms: C_3  and  O_6 
REMARK    3  A    between atoms: C_3  and  C_4 
REMARK    4  A    between atoms: C_7  and  O_6 
REMARK    5  A    between atoms: C_9  and  C_10 
REMARK    6  A    between atoms: N_15  and  C_14 
REMARK    7  A    between atoms: N_20  and  C_19 
REMARK       I    between atoms: C_22  and  N_20 
ROOT
ATOM      1  C   LIG d   1      -0.808  77.302 115.210  0.00  0.00     0.161 C 
ATOM      2  C   LIG d   1      -2.139  77.166 114.782  0.00  0.00     0.016 C 
ATOM      3  C   LIG d   1      -2.901  75.990 114.970  0.00  0.00     0.038 C 
ATOM      4  C   LIG d   1      -2.428  74.915 115.738  0.00  0.00     0.028 C 
ATOM      5  C   LIG d   1      -0.907  74.808 115.759  0.00  0.00    -0.047 C 
ATOM      6  C   LIG d   1      -0.313  76.181 116.148  0.00  0.00     0.091 C 
ENDROOT
BRANCH   1   7
ATOM      7  O   LIG d   1      -0.622  78.591 115.828  0.00  0.00    -0.368 OA
BRANCH   7   8
ATOM      8  C   LIG d   1      -1.413  79.677 115.287  0.00  0.00     0.119 C 
BRANCH   8   9
ATOM      9  C   LIG d   1      -0.438  80.694 114.662  0.00  0.00     0.028 C 
ATOM     10  C   LIG d   1      -0.271  80.492 113.147  0.00  0.00     0.006 C 
ENDBRANCH   8   9
BRANCH   8  11
ATOM     11  C   LIG d   1      -2.142  80.442 116.395  0.00  0.00     0.028 C 
ATOM     12  C   LIG d   1      -3.634  80.651 116.093  0.00  0.00     0.006 C 
ENDBRANCH   8  11
ENDBRANCH   7   8
ENDBRANCH   1   7
BRANCH   6  13
ATOM     13  N   LIG d   1       1.173  76.187 116.110  0.00  0.00    -0.311 N 
ATOM     14  C   LIG d   1       1.933  76.449 117.172  0.00  0.00     0.210 C 
ATOM     15  C   LIG d   1       3.442  76.422 116.911  0.00  0.00     0.109 C 
ATOM     16  O   LIG d   1       1.500  76.670 118.314  0.00  0.00    -0.276 OA
ATOM     17  H   LIG d   1       1.608  75.987 115.230  0.00  0.00     0.149 HD
ENDBRANCH   6  13
BRANCH   5  18
ATOM     18  N   LIG d   1      -0.549  73.734 116.704  0.00  0.00     0.381 N 
ATOM     19  H   LIG d   1      -0.541  72.853 116.230  0.00  0.00    -0.090 HD
ATOM     20  H   LIG d   1      -1.242  73.695 117.430  0.00  0.00    -0.090 HD
ATOM     21  H   LIG d   1       0.348  73.913 117.100  0.00  0.00    -0.090 HD
ENDBRANCH   5  18
BRANCH   3  22
ATOM     22  C   LIG d   1      -4.135  75.865 114.352  0.00  0.00     0.382 C 
ATOM     23  O   LIG d   1      -4.737  74.764 114.370  0.00  0.00    -0.241 OA
ATOM     24  O   LIG d   1      -4.635  76.826 113.738  0.00  0.00    -0.241 OA
ENDBRANCH   3  22
TORSDOF 7
ENDMDL
MODEL 4
REMARK VINA RESULT:      -4.9      2.763      3.878
REMARK  7 active torsions:
REMARK  status: ('A' for Active; 'I' for Inactive)
REMARK    1  A    between atoms: C_2  and  C_3 
REMARK    2  A    between atoms: C_3  and  O_6 
REMARK    3  A    between atoms: C_3  and  C_4 
REMARK    4  A    between atoms: C_7  and  O_6 
REMARK    5  A    between atoms: C_9  and  C_10 
REMARK    6  A    between atoms: N_15  and  C_14 
REMARK    7  A    between atoms: N_20  and  C_19 
REMARK       I    between atoms: C_22  and  N_20 
ROOT
ATOM      1  C   LIG d   1      -3.899  78.064 116.211  0.00  0.00     0.161 C 
ATOM      2  C   LIG d   1      -4.733  79.102 116.659  0.00  0.00     0.016 C 
ATOM      3  C   LIG d   1      -4.315  80.449 116.757  0.00  0.00     0.038 C 
ATOM      4  C   LIG d   1      -3.073  80.877 116.266  0.00  0.00     0.028 C 
ATOM      5  C   LIG d   1      -2.010  79.784 116.271  0.00  0.00    -0.047 C 
ATOM      6  C   LIG d   1      -2.576  78.530 115.566  0.00  0.00     0.091 C 
ENDROOT
BRANCH   1   7
ATOM      7  O   LIG d   1      -4.625  77.211 115.304  0.00  0.00    -0.368 OA
BRANCH   7   8
ATOM      8  C   LIG d   1      -5.139  75.977 115.863  0.00  0.00     0.119 C 
BRANCH   8   9
ATOM      9  C   LIG d   1      -4.554  74.816 115.036  0.00  0.00     0.028 C 
ATOM     10  C   LIG d   1      -5.645  73.882 114.484  0.00  0.00     0.006 C 
ENDBRANCH   8   9
BRANCH   8  11
ATOM     11  C   LIG d   1      -6.657  75.876 115.688  0.00  0.00     0.028 C 
ATOM     12  C   LIG d   1      -7.432  76.720 116.712  0.00  0.00     0.006 C 
ENDBRANCH   8  11
ENDBRANCH   7   8
ENDBRANCH   1   7
BRANCH   6  13
ATOM     13  N   LIG d   1      -1.631  77.384 115.601  0.00  0.00    -0.311 N 
ATOM     14  C   LIG d   1      -1.301  76.672 114.525  0.00  0.00     0.210 C 
ATOM     15  C   LIG d   1      -0.325  75.521 114.785  0.00  0.00     0.109 C 
ATOM     16  O   LIG d   1      -1.700  76.905 113.374  0.00  0.00    -0.276 OA
ATOM     17  H   LIG d   1      -1.235  77.146 116.490  0.00  0.00     0.149 HD
ENDBRANCH   6  13
BRANCH   5  18
ATOM     18  N   LIG d   1      -0.809  80.327 115.608  0.00  0.00     0.381 N 
ATOM     19  H   LIG d   1      -1.018  80.546 114.654  0.00  0.00    -0.090 HD
ATOM     20  H   LIG d   1      -0.087  79.628 115.620  0.00  0.00    -0.090 HD
ATOM     21  H   LIG d   1      -0.497  81.145 116.083  0.00  0.00    -0.090 HD
ENDBRANCH   5  18
BRANCH   3  22
ATOM     22  C   LIG d   1      -5.130  81.377 117.387  0.00  0.00     0.382 C 
ATOM     23  O   LIG d   1      -4.793  81.854 118.498  0.00  0.00    -0.241 OA
ATOM     24  O   LIG d   1      -6.218  81.710 116.881  0.00  0.00    -0.241 OA
ENDBRANCH   3  22
TORSDOF 7
ENDMDL
MODEL 5
REMARK VINA RESULT:      -4.8      2.876      5.947
REMARK  7 active torsions:
REMARK  status: ('A' for Active; 'I' for Inactive)
REMARK    1  A    between atoms: C_2  and  C_3 
REMARK    2  A    between atoms: C_3  and  O_6 
REMARK    3  A    between atoms: C_3  and  C_4 
REMARK    4  A    between atoms: C_7  and  O_6 
REMARK    5  A    between atoms: C_9  and  C_10 
REMARK    6  A    between atoms: N_15  and  C_14 
REMARK    7  A    between atoms: N_20  and  C_19 
REMARK       I    between atoms: C_22  and  N_20 
ROOT
ATOM      1  C   LIG d   1      -4.061  76.345 116.050  0.00  0.00     0.161 C 
ATOM      2  C   LIG d   1      -4.384  75.152 115.382  0.00  0.00     0.016 C 
ATOM      3  C   LIG d   1      -5.704  74.662 115.258  0.00  0.00     0.038 C 
ATOM      4  C   LIG d   1      -6.816  75.415 115.666  0.00  0.00     0.028 C 
ATOM      5  C   LIG d   1      -6.505  76.391 116.795  0.00  0.00    -0.047 C 
ATOM      6  C   LIG d   1      -5.271  77.235 116.403  0.00  0.00     0.091 C 
ENDROOT
BRANCH   1   7
ATOM      7  O   LIG d   1      -3.098  77.091 115.279  0.00  0.00    -0.368 OA
BRANCH   7   8
ATOM      8  C   LIG d   1      -1.871  77.445 115.963  0.00  0.00     0.119 C 
BRANCH   8   9
ATOM      9  C   LIG d   1      -0.710  77.227 114.974  0.00  0.00     0.028 C 
ATOM     10  C   LIG d   1      -0.289  75.750 114.880  0.00  0.00     0.006 C 
ENDBRANCH   8   9
BRANCH   8  11
ATOM     11  C   LIG d   1      -1.591  76.497 117.133  0.00  0.00     0.028 C 
ATOM     12  C   LIG d   1      -1.034  77.223 118.368  0.00  0.00     0.006 C 
ENDBRANCH   8  11
ENDBRANCH   7   8
ENDBRANCH   1   7
BRANCH   6  13
ATOM     13  N   LIG d   1      -4.848  78.158 117.489  0.00  0.00    -0.311 N 
ATOM     14  C   LIG d   1      -4.661  79.465 117.309  0.00  0.00     0.210 C 
ATOM     15  C   LIG d   1      -4.206  80.231 118.555  0.00  0.00     0.109 C 
ATOM     16  O   LIG d   1      -4.861  80.068 116.244  0.00  0.00    -0.276 OA
ATOM     17  H   LIG d   1      -4.693  77.758 118.393  0.00  0.00     0.149 HD
ENDBRANCH   6  13
BRANCH   5  18
ATOM     18  N   LIG d   1      -7.713  77.206 117.026  0.00  0.00     0.381 N 
ATOM     19  H   LIG d   1      -7.612  78.095 116.578  0.00  0.00    -0.090 HD
ATOM     20  H   LIG d   1      -7.818  77.359 118.013  0.00  0.00    -0.090 HD
ATOM     21  H   LIG d   1      -8.515  76.735 116.668  0.00  0.00    -0.090 HD
ENDBRANCH   5  18
BRANCH   3  22
ATOM     22  C   LIG d   1      -5.920  73.387 114.757  0.00  0.00     0.382 C 
ATOM     23  O   LIG d   1      -5.780  73.163 113.531  0.00  0.00    -0.241 OA
ATOM     24  O   LIG d   1      -6.297  72.468 115.509  0.00  0.00    -0.241 OA
ENDBRANCH   3  22
TORSDOF 7
ENDMDL
MODEL 6
REMARK VINA RESULT:      -4.5      2.495      4.619
REMARK  7 active torsions:
REMARK  status: ('A' for Active; 'I' for Inactive)
REMARK    1  A    between atoms: C_2  and  C_3 
REMARK    2  A    between atoms: C_3  and  O_6 
REMARK    3  A    between atoms: C_3  and  C_4 
REMARK    4  A    between atoms: C_7  and  O_6 
REMARK    5  A    between atoms: C_9  and  C_10 
REMARK    6  A    between atoms: N_15  and  C_14 
REMARK    7  A    between atoms: N_20  and  C_19 
REMARK       I    between atoms: C_22  and  N_20 
ROOT
ATOM      1  C   LIG d   1      -2.573  77.454 116.381  0.00  0.00     0.161 C 
ATOM      2  C   LIG d   1      -1.374  78.114 116.701  0.00  0.00     0.016 C 
ATOM      3  C   LIG d   1      -0.118  77.466 116.745  0.00  0.00     0.038 C 
ATOM      4  C   LIG d   1       0.047  76.139 116.323  0.00  0.00     0.028 C 
ATOM      5  C   LIG d   1      -1.213  75.293 116.475  0.00  0.00    -0.047 C 
ATOM      6  C   LIG d   1      -2.396  76.032 115.810  0.00  0.00     0.091 C 
ENDROOT
BRANCH   1   7
ATOM      7  O   LIG d   1      -3.351  78.265 115.478  0.00  0.00    -0.368 OA
BRANCH   7   8
ATOM      8  C   LIG d   1      -2.601  79.036 114.508  0.00  0.00     0.119 C 
BRANCH   8   9
ATOM      9  C   LIG d   1      -3.090  80.495 114.599  0.00  0.00     0.028 C 
ATOM     10  C   LIG d   1      -2.590  81.356 113.426  0.00  0.00     0.006 C 
ENDBRANCH   8   9
BRANCH   8  11
ATOM     11  C   LIG d   1      -2.916  78.591 113.077  0.00  0.00     0.028 C 
ATOM     12  C   LIG d   1      -1.860  77.634 112.503  0.00  0.00     0.006 C 
ENDBRANCH   8  11
ENDBRANCH   7   8
ENDBRANCH   1   7
BRANCH   6  13
ATOM     13  N   LIG d   1      -3.685  75.313 115.987  0.00  0.00    -0.311 N 
ATOM     14  C   LIG d   1      -4.600  75.200 115.025  0.00  0.00     0.210 C 
ATOM     15  C   LIG d   1      -5.866  74.435 115.424  0.00  0.00     0.109 C 
ATOM     16  O   LIG d   1      -4.469  75.632 113.870  0.00  0.00    -0.276 OA
ATOM     17  H   LIG d   1      -3.860  74.904 116.884  0.00  0.00     0.149 HD
ENDBRANCH   6  13
BRANCH   5  18
ATOM     18  N   LIG d   1      -0.941  73.975 115.871  0.00  0.00     0.381 N 
ATOM     19  H   LIG d   1      -0.086  73.605 116.237  0.00  0.00    -0.090 HD
ATOM     20  H   LIG d   1      -0.837  74.088 114.878  0.00  0.00    -0.090 HD
ATOM     21  H   LIG d   1      -1.692  73.350 116.065  0.00  0.00    -0.090 HD
ENDBRANCH   5  18
BRANCH   3  22
ATOM     22  C   LIG d   1       0.983  78.138 117.254  0.00  0.00     0.382 C 
ATOM     23  O   LIG d   1       2.008  77.496 117.591  0.00  0.00    -0.241 OA
ATOM     24  O   LIG d   1       0.949  79.371 117.422  0.00  0.00    -0.241 OA
ENDBRANCH   3  22
TORSDOF 7
ENDMDL
MODEL 7
REMARK VINA RESULT:      -4.4      2.411      4.156
REMARK  7 active torsions:
REMARK  status: ('A' for Active; 'I' for Inactive)
REMARK    1  A    between atoms: C_2  and  C_3 
REMARK    2  A    between atoms: C_3  and  O_6 
REMARK    3  A    between atoms: C_3  and  C_4 
REMARK    4  A    between atoms: C_7  and  O_6 
REMARK    5  A    between atoms: C_9  and  C_10 
REMARK    6  A    between atoms: N_15  and  C_14 
REMARK    7  A    between atoms: N_20  and  C_19 
REMARK       I    between atoms: C_22  and  N_20 
ROOT
ATOM      1  C   LIG d   1      -2.749  77.486 115.792  0.00  0.00     0.161 C 
ATOM      2  C   LIG d   1      -4.014  77.129 115.296  0.00  0.00     0.016 C 
ATOM      3  C   LIG d   1      -4.432  75.790 115.122  0.00  0.00     0.038 C 
ATOM      4  C   LIG d   1      -3.663  74.708 115.577  0.00  0.00     0.028 C 
ATOM      5  C   LIG d   1      -2.168  75.004 115.620  0.00  0.00    -0.047 C 
ATOM      6  C   LIG d   1      -1.939  76.320 116.397  0.00  0.00     0.091 C 
ENDROOT
BRANCH   1   7
ATOM      7  O   LIG d   1      -2.883  78.554 116.750  0.00  0.00    -0.368 OA
BRANCH   7   8
ATOM      8  C   LIG d   1      -2.470  79.869 116.302  0.00  0.00     0.119 C 
BRANCH   8   9
ATOM      9  C   LIG d   1      -3.745  80.712 116.104  0.00  0.00     0.028 C 
ATOM     10  C   LIG d   1      -4.568  80.843 117.397  0.00  0.00     0.006 C 
ENDBRANCH   8   9
BRANCH   8  11
ATOM     11  C   LIG d   1      -1.808  79.805 114.922  0.00  0.00     0.028 C 
ATOM     12  C   LIG d   1      -2.503  80.703 113.886  0.00  0.00     0.006 C 
ENDBRANCH   8  11
ENDBRANCH   7   8
ENDBRANCH   1   7
BRANCH   6  13
ATOM     13  N   LIG d   1      -0.510  76.727 116.415  0.00  0.00    -0.311 N 
ATOM     14  C   LIG d   1       0.335  76.394 117.389  0.00  0.00     0.210 C 
ATOM     15  C   LIG d   1       1.759  76.934 117.223  0.00  0.00     0.109 C 
ATOM     16  O   LIG d   1       0.048  75.677 118.360  0.00  0.00    -0.276 OA
ATOM     17  H   LIG d   1      -0.185  77.285 115.650  0.00  0.00     0.149 HD
ENDBRANCH   6  13
BRANCH   5  18
ATOM     18  N   LIG d   1      -1.502  73.843 116.242  0.00  0.00     0.381 N 
ATOM     19  H   LIG d   1      -1.986  73.003 115.995  0.00  0.00    -0.090 HD
ATOM     20  H   LIG d   1      -1.536  73.945 117.241  0.00  0.00    -0.090 HD
ATOM     21  H   LIG d   1      -0.555  73.790 115.938  0.00  0.00    -0.090 HD
ENDBRANCH   5  18
BRANCH   3  22
ATOM     22  C   LIG d   1      -5.614  75.521 114.449  0.00  0.00     0.382 C 
ATOM     23  O   LIG d   1      -5.696  74.517 113.701  0.00  0.00    -0.241 OA
ATOM     24  O   LIG d   1      -6.586  76.294 114.547  0.00  0.00    -0.241 OA
ENDBRANCH   3  22
TORSDOF 7
ENDMDL
MODEL 8
REMARK VINA RESULT:      -4.4     21.171     23.419
REMARK  7 active torsions:
REMARK  status: ('A' for Active; 'I' for Inactive)
REMARK    1  A    between atoms: C_2  and  C_3 
REMARK    2  A    between atoms: C_3  and  O_6 
REMARK    3  A    between atoms: C_3  and  C_4 
REMARK    4  A    between atoms: C_7  and  O_6 
REMARK    5  A    between atoms: C_9  and  C_10 
REMARK    6  A    between atoms: N_15  and  C_14 
REMARK    7  A    between atoms: N_20  and  C_19 
REMARK       I    between atoms: C_22  and  N_20 
ROOT
ATOM      1  C   LIG d   1     -23.749  83.900 113.924  0.00  0.00     0.161 C 
ATOM      2  C   LIG d   1     -22.896  84.973 114.230  0.00  0.00     0.016 C 
ATOM      3  C   LIG d   1     -23.309  86.326 114.210  0.00  0.00     0.038 C 
ATOM      4  C   LIG d   1     -24.652  86.688 114.029  0.00  0.00     0.028 C 
ATOM      5  C   LIG d   1     -25.450  85.672 113.218  0.00  0.00    -0.047 C 
ATOM      6  C   LIG d   1     -25.245  84.268 113.832  0.00  0.00     0.091 C 
ENDROOT
BRANCH   1   7
ATOM      7  O   LIG d   1     -23.553  82.834 114.873  0.00  0.00    -0.368 OA
BRANCH   7   8
ATOM      8  C   LIG d   1     -24.435  82.834 116.023  0.00  0.00     0.119 C 
BRANCH   8   9
ATOM      9  C   LIG d   1     -23.574  83.133 117.266  0.00  0.00     0.028 C 
ATOM     10  C   LIG d   1     -22.109  82.704 117.083  0.00  0.00     0.006 C 
ENDBRANCH   8   9
BRANCH   8  11
ATOM     11  C   LIG d   1     -25.031  81.445 116.268  0.00  0.00     0.028 C 
ATOM     12  C   LIG d   1     -24.546  80.400 115.251  0.00  0.00     0.006 C 
ENDBRANCH   8  11
ENDBRANCH   7   8
ENDBRANCH   1   7
BRANCH   6  13
ATOM     13  N   LIG d   1     -25.923  83.203 113.049  0.00  0.00    -0.311 N 
ATOM     14  C   LIG d   1     -27.125  82.718 113.359  0.00  0.00     0.210 C 
ATOM     15  C   LIG d   1     -27.633  81.609 112.432  0.00  0.00     0.109 C 
ATOM     16  O   LIG d   1     -27.832  83.123 114.294  0.00  0.00    -0.276 OA
ATOM     17  H   LIG d   1     -25.434  82.839 112.255  0.00  0.00     0.149 HD
ENDBRANCH   6  13
BRANCH   5  18
ATOM     18  N   LIG d   1     -26.860  86.106 113.224  0.00  0.00     0.381 N 
ATOM     19  H   LIG d   1     -26.980  86.876 112.597  0.00  0.00    -0.090 HD
ATOM     20  H   LIG d   1     -27.102  86.412 114.150  0.00  0.00    -0.090 HD
ATOM     21  H   LIG d   1     -27.450  85.351 112.951  0.00  0.00    -0.090 HD
ENDBRANCH   5  18
BRANCH   3  22
ATOM     22  C   LIG d   1     -22.366  87.334 114.334  0.00  0.00     0.382 C 
ATOM     23  O   LIG d   1     -22.640  88.373 114.982  0.00  0.00    -0.241 OA
ATOM     24  O   LIG d   1     -21.260  87.237 113.769  0.00  0.00    -0.241 OA
ENDBRANCH   3  22
TORSDOF 7
ENDMDL
MODEL 9
REMARK VINA RESULT:      -4.3      2.962      4.061
REMARK  7 active torsions:
REMARK  status: ('A' for Active; 'I' for Inactive)
REMARK    1  A    between atoms: C_2  and  C_3 
REMARK    2  A    between atoms: C_3  and  O_6 
REMARK    3  A    between atoms: C_3  and  C_4 
REMARK    4  A    between atoms: C_7  and  O_6 
REMARK    5  A    between atoms: C_9  and  C_10 
REMARK    6  A    between atoms: N_15  and  C_14 
REMARK    7  A    between atoms: N_20  and  C_19 
REMARK       I    between atoms: C_22  and  N_20 
ROOT
ATOM      1  C   LIG d   1      -3.708  77.521 116.755  0.00  0.00     0.161 C 
ATOM      2  C   LIG d   1      -2.950  78.686 116.959  0.00  0.00     0.016 C 
ATOM      3  C   LIG d   1      -2.371  79.432 115.906  0.00  0.00     0.038 C 
ATOM      4  C   LIG d   1      -2.640  79.146 114.560  0.00  0.00     0.028 C 
ATOM      5  C   LIG d   1      -2.986  77.682 114.309  0.00  0.00    -0.047 C 
ATOM      6  C   LIG d   1      -4.104  77.256 115.288  0.00  0.00     0.091 C 
ENDROOT
BRANCH   1   7
ATOM      7  O   LIG d   1      -4.880  77.547 117.594  0.00  0.00    -0.368 OA
BRANCH   7   8
ATOM      8  C   LIG d   1      -6.020  78.273 117.073  0.00  0.00     0.119 C 
BRANCH   8   9
ATOM      9  C   LIG d   1      -6.299  79.447 118.031  0.00  0.00     0.028 C 
ATOM     10  C   LIG d   1      -5.969  80.811 117.399  0.00  0.00     0.006 C 
ENDBRANCH   8   9
BRANCH   8  11
ATOM     11  C   LIG d   1      -7.288  77.415 117.104  0.00  0.00     0.028 C 
ATOM     12  C   LIG d   1      -8.317  77.909 118.132  0.00  0.00     0.006 C 
ENDBRANCH   8  11
ENDBRANCH   7   8
ENDBRANCH   1   7
BRANCH   6  13
ATOM     13  N   LIG d   1      -4.444  75.814 115.167  0.00  0.00    -0.311 N 
ATOM     14  C   LIG d   1      -5.500  75.364 114.492  0.00  0.00     0.210 C 
ATOM     15  C   LIG d   1      -5.679  73.843 114.510  0.00  0.00     0.109 C 
ATOM     16  O   LIG d   1      -6.288  76.078 113.853  0.00  0.00    -0.276 OA
ATOM     17  H   LIG d   1      -3.840  75.163 115.629  0.00  0.00     0.149 HD
ENDBRANCH   6  13
BRANCH   5  18
ATOM     18  N   LIG d   1      -3.377  77.552 112.893  0.00  0.00     0.381 N 
ATOM     19  H   LIG d   1      -4.355  77.356 112.828  0.00  0.00    -0.090 HD
ATOM     20  H   LIG d   1      -2.873  76.784 112.485  0.00  0.00    -0.090 HD
ATOM     21  H   LIG d   1      -3.166  78.394 112.403  0.00  0.00    -0.090 HD
ENDBRANCH   5  18
BRANCH   3  22
ATOM     22  C   LIG d   1      -1.481  80.455 116.197  0.00  0.00     0.382 C 
ATOM     23  O   LIG d   1      -1.345  80.850 117.380  0.00  0.00    -0.241 OA
ATOM     24  O   LIG d   1      -0.844  81.016 115.286  0.00  0.00    -0.241 OA
ENDBRANCH   3  22
TORSDOF 7
ENDMDL
