MODEL 1
REMARK VINA RESULT:      -5.1      0.000      0.000
REMARK  7 active torsions:
REMARK  status: ('A' for Active; 'I' for Inactive)
REMARK    1  A    between atoms: C_2  and  C_3 
REMARK    2  A    between atoms: C_3  and  O_6 
REMARK    3  A    between atoms: C_3  and  C_4 
REMARK    4  A    between atoms: C_7  and  O_6 
REMARK    5  A    between atoms: C_9  and  C_10 
REMARK    6  A    between atoms: N_15  and  C_14 
REMARK    7  A    between atoms: N_20  and  C_19 
REMARK       I    between atoms: C_22  and  N_20 
ROOT
ATOM      1  C   LIG d   1       1.866  86.123 113.946  0.00  0.00     0.161 C 
ATOM      2  C   LIG d   1       2.541  87.317 113.643  0.00  0.00     0.016 C 
ATOM      3  C   LIG d   1       3.671  87.378 112.796  0.00  0.00     0.038 C 
ATOM      4  C   LIG d   1       4.115  86.263 112.070  0.00  0.00     0.028 C 
ATOM      5  C   LIG d   1       3.775  84.933 112.735  0.00  0.00    -0.047 C 
ATOM      6  C   LIG d   1       2.268  84.913 113.076  0.00  0.00     0.091 C 
ENDROOT
BRANCH   1   7
ATOM      7  O   LIG d   1       0.442  86.336 113.881  0.00  0.00    -0.368 OA
BRANCH   7   8
ATOM      8  C   LIG d   1      -0.261  86.337 115.148  0.00  0.00     0.119 C 
BRANCH   8   9
ATOM      9  C   LIG d   1       0.596  85.544 116.154  0.00  0.00     0.028 C 
ATOM     10  C   LIG d   1       0.965  86.377 117.393  0.00  0.00     0.006 C 
ENDBRANCH   8   9
BRANCH   8  11
ATOM     11  C   LIG d   1      -1.584  85.571 115.051  0.00  0.00     0.028 C 
ATOM     12  C   LIG d   1      -1.493  84.148 115.625  0.00  0.00     0.006 C 
ENDBRANCH   8  11
ENDBRANCH   7   8
ENDBRANCH   1   7
BRANCH   6  13
ATOM     13  N   LIG d   1       1.868  83.682 113.805  0.00  0.00    -0.311 N 
ATOM     14  C   LIG d   1       1.373  82.602 113.203  0.00  0.00     0.210 C 
ATOM     15  C   LIG d   1       1.006  81.449 114.143  0.00  0.00     0.109 C 
ATOM     16  O   LIG d   1       1.232  82.477 111.977  0.00  0.00    -0.276 OA
ATOM     17  H   LIG d   1       1.978  83.685 114.800  0.00  0.00     0.149 HD
ENDBRANCH   6  13
BRANCH   5  18
ATOM     18  N   LIG d   1       4.172  83.857 111.807  0.00  0.00     0.381 N 
ATOM     19  H   LIG d   1       5.031  84.100 111.354  0.00  0.00    -0.090 HD
ATOM     20  H   LIG d   1       3.462  83.756 111.103  0.00  0.00    -0.090 HD
ATOM     21  H   LIG d   1       4.281  83.001 112.305  0.00  0.00    -0.090 HD
ENDBRANCH   5  18
BRANCH   3  22
ATOM     22  C   LIG d   1       4.395  88.557 112.700  0.00  0.00     0.382 C 
ATOM     23  O   LIG d   1       5.565  88.540 112.247  0.00  0.00    -0.241 OA
ATOM     24  O   LIG d   1       3.908  89.631 113.101  0.00  0.00    -0.241 OA
ENDBRANCH   3  22
TORSDOF 7
ENDMDL
MODEL 2
REMARK VINA RESULT:      -5.1     13.145     15.570
REMARK  7 active torsions:
REMARK  status: ('A' for Active; 'I' for Inactive)
REMARK    1  A    between atoms: C_2  and  C_3 
REMARK    2  A    between atoms: C_3  and  O_6 
REMARK    3  A    between atoms: C_3  and  C_4 
REMARK    4  A    between atoms: C_7  and  O_6 
REMARK    5  A    between atoms: C_9  and  C_10 
REMARK    6  A    between atoms: N_15  and  C_14 
REMARK    7  A    between atoms: N_20  and  C_19 
REMARK       I    between atoms: C_22  and  N_20 
ROOT
ATOM      1  C   LIG d   1      -7.414  74.462 118.483  0.00  0.00     0.161 C 
ATOM      2  C   LIG d   1      -8.658  75.101 118.344  0.00  0.00     0.016 C 
ATOM      3  C   LIG d   1      -8.835  76.313 117.638  0.00  0.00     0.038 C 
ATOM      4  C   LIG d   1      -7.800  76.895 116.891  0.00  0.00     0.028 C 
ATOM      5  C   LIG d   1      -6.409  76.556 117.417  0.00  0.00    -0.047 C 
ATOM      6  C   LIG d   1      -6.294  75.024 117.582  0.00  0.00     0.091 C 
ENDROOT
BRANCH   1   7
ATOM      7  O   LIG d   1      -7.566  73.045 118.270  0.00  0.00    -0.368 OA
BRANCH   7   8
ATOM      8  C   LIG d   1      -8.436  72.654 117.180  0.00  0.00     0.119 C 
BRANCH   8   9
ATOM      9  C   LIG d   1      -9.628  71.891 117.791  0.00  0.00     0.028 C 
ATOM     10  C   LIG d   1      -9.414  70.368 117.785  0.00  0.00     0.006 C 
ENDBRANCH   8   9
BRANCH   8  11
ATOM     11  C   LIG d   1      -7.748  71.652 116.249  0.00  0.00     0.028 C 
ATOM     12  C   LIG d   1      -6.584  72.275 115.461  0.00  0.00     0.006 C 
ENDBRANCH   8  11
ENDBRANCH   7   8
ENDBRANCH   1   7
BRANCH   6  13
ATOM     13  N   LIG d   1      -4.994  74.613 118.172  0.00  0.00    -0.311 N 
ATOM     14  C   LIG d   1      -3.915  74.328 117.443  0.00  0.00     0.210 C 
ATOM     15  C   LIG d   1      -2.683  73.906 118.250  0.00  0.00     0.109 C 
ATOM     16  O   LIG d   1      -3.853  74.416 116.208  0.00  0.00    -0.276 OA
ATOM     17  H   LIG d   1      -4.946  74.546 119.170  0.00  0.00     0.149 HD
ENDBRANCH   6  13
BRANCH   5  18
ATOM     18  N   LIG d   1      -5.426  77.111 116.468  0.00  0.00     0.381 N 
ATOM     19  H   LIG d   1      -5.672  76.849 115.534  0.00  0.00    -0.090 HD
ATOM     20  H   LIG d   1      -4.521  76.728 116.676  0.00  0.00    -0.090 HD
ATOM     21  H   LIG d   1      -5.400  78.104 116.546  0.00  0.00    -0.090 HD
ENDBRANCH   5  18
BRANCH   3  22
ATOM     22  C   LIG d   1     -10.050  76.978 117.709  0.00  0.00     0.382 C 
ATOM     23  O   LIG d   1     -11.122  76.338 117.584  0.00  0.00    -0.241 OA
ATOM     24  O   LIG d   1     -10.086  78.214 117.851  0.00  0.00    -0.241 OA
ENDBRANCH   3  22
TORSDOF 7
ENDMDL
MODEL 3
REMARK VINA RESULT:      -5.0      4.189      6.254
REMARK  7 active torsions:
REMARK  status: ('A' for Active; 'I' for Inactive)
REMARK    1  A    between atoms: C_2  and  C_3 
REMARK    2  A    between atoms: C_3  and  O_6 
REMARK    3  A    between atoms: C_3  and  C_4 
REMARK    4  A    between atoms: C_7  and  O_6 
REMARK    5  A    between atoms: C_9  and  C_10 
REMARK    6  A    between atoms: N_15  and  C_14 
REMARK    7  A    between atoms: N_20  and  C_19 
REMARK       I    between atoms: C_22  and  N_20 
ROOT
ATOM      1  C   LIG d   1       4.576  87.175 115.751  0.00  0.00     0.161 C 
ATOM      2  C   LIG d   1       3.545  88.121 115.632  0.00  0.00     0.016 C 
ATOM      3  C   LIG d   1       3.665  89.462 116.065  0.00  0.00     0.038 C 
ATOM      4  C   LIG d   1       4.885  89.990 116.512  0.00  0.00     0.028 C 
ATOM      5  C   LIG d   1       5.811  88.944 117.121  0.00  0.00    -0.047 C 
ATOM      6  C   LIG d   1       5.951  87.762 116.134  0.00  0.00     0.091 C 
ENDROOT
BRANCH   1   7
ATOM      7  O   LIG d   1       4.680  86.409 114.535  0.00  0.00    -0.368 OA
BRANCH   7   8
ATOM      8  C   LIG d   1       3.751  86.760 113.480  0.00  0.00     0.119 C 
BRANCH   8   9
ATOM      9  C   LIG d   1       3.001  85.475 113.077  0.00  0.00     0.028 C 
ATOM     10  C   LIG d   1       3.920  84.450 112.392  0.00  0.00     0.006 C 
ENDBRANCH   8   9
BRANCH   8  11
ATOM     11  C   LIG d   1       4.487  87.212 112.216  0.00  0.00     0.028 C 
ATOM     12  C   LIG d   1       5.478  88.357 112.481  0.00  0.00     0.006 C 
ENDBRANCH   8  11
ENDBRANCH   7   8
ENDBRANCH   1   7
BRANCH   6  13
ATOM     13  N   LIG d   1       6.774  86.655 116.688  0.00  0.00    -0.311 N 
ATOM     14  C   LIG d   1       8.089  86.555 116.502  0.00  0.00     0.210 C 
ATOM     15  C   LIG d   1       8.741  85.326 117.142  0.00  0.00     0.109 C 
ATOM     16  O   LIG d   1       8.782  87.385 115.894  0.00  0.00    -0.276 OA
ATOM     17  H   LIG d   1       6.297  85.954 117.221  0.00  0.00     0.149 HD
ENDBRANCH   6  13
BRANCH   5  18
ATOM     18  N   LIG d   1       7.096  89.604 117.418  0.00  0.00     0.381 N 
ATOM     19  H   LIG d   1       7.852  89.043 117.079  0.00  0.00    -0.090 HD
ATOM     20  H   LIG d   1       7.193  89.695 118.414  0.00  0.00    -0.090 HD
ATOM     21  H   LIG d   1       7.124  90.504 116.991  0.00  0.00    -0.090 HD
ENDBRANCH   5  18
BRANCH   3  22
ATOM     22  C   LIG d   1       2.544  90.279 116.090  0.00  0.00     0.382 C 
ATOM     23  O   LIG d   1       1.406  89.788 115.896  0.00  0.00    -0.241 OA
ATOM     24  O   LIG d   1       2.662  91.507 116.261  0.00  0.00    -0.241 OA
ENDBRANCH   3  22
TORSDOF 7
ENDMDL
MODEL 4
REMARK VINA RESULT:      -4.9      2.287      5.408
REMARK  7 active torsions:
REMARK  status: ('A' for Active; 'I' for Inactive)
REMARK    1  A    between atoms: C_2  and  C_3 
REMARK    2  A    between atoms: C_3  and  O_6 
REMARK    3  A    between atoms: C_3  and  C_4 
REMARK    4  A    between atoms: C_7  and  O_6 
REMARK    5  A    between atoms: C_9  and  C_10 
REMARK    6  A    between atoms: N_15  and  C_14 
REMARK    7  A    between atoms: N_20  and  C_19 
REMARK       I    between atoms: C_22  and  N_20 
ROOT
ATOM      1  C   LIG d   1       0.059  84.446 112.779  0.00  0.00     0.161 C 
ATOM      2  C   LIG d   1      -0.980  83.503 112.847  0.00  0.00     0.016 C 
ATOM      3  C   LIG d   1      -0.797  82.124 112.593  0.00  0.00     0.038 C 
ATOM      4  C   LIG d   1       0.476  81.568 112.401  0.00  0.00     0.028 C 
ATOM      5  C   LIG d   1       1.487  82.554 111.825  0.00  0.00    -0.047 C 
ATOM      6  C   LIG d   1       1.475  83.842 112.680  0.00  0.00     0.091 C 
ENDROOT
BRANCH   1   7
ATOM      7  O   LIG d   1      -0.025  85.346 113.902  0.00  0.00    -0.368 OA
BRANCH   7   8
ATOM      8  C   LIG d   1       0.334  84.791 115.192  0.00  0.00     0.119 C 
BRANCH   8   9
ATOM      9  C   LIG d   1      -0.830  85.080 116.159  0.00  0.00     0.028 C 
ATOM     10  C   LIG d   1      -1.684  83.832 116.439  0.00  0.00     0.006 C 
ENDBRANCH   8   9
BRANCH   8  11
ATOM     11  C   LIG d   1       1.547  85.510 115.790  0.00  0.00     0.028 C 
ATOM     12  C   LIG d   1       1.773  86.904 115.183  0.00  0.00     0.006 C 
ENDBRANCH   8  11
ENDBRANCH   7   8
ENDBRANCH   1   7
BRANCH   6  13
ATOM     13  N   LIG d   1       2.375  84.892 112.136  0.00  0.00    -0.311 N 
ATOM     14  C   LIG d   1       3.638  85.051 112.528  0.00  0.00     0.210 C 
ATOM     15  C   LIG d   1       4.383  86.207 111.854  0.00  0.00     0.109 C 
ATOM     16  O   LIG d   1       4.221  84.324 113.346  0.00  0.00    -0.276 OA
ATOM     17  H   LIG d   1       1.992  85.507 111.444  0.00  0.00     0.149 HD
ENDBRANCH   6  13
BRANCH   5  18
ATOM     18  N   LIG d   1       2.801  81.885 111.805  0.00  0.00     0.381 N 
ATOM     19  H   LIG d   1       2.735  80.994 112.256  0.00  0.00    -0.090 HD
ATOM     20  H   LIG d   1       3.460  82.448 112.314  0.00  0.00    -0.090 HD
ATOM     21  H   LIG d   1       3.110  81.768 110.865  0.00  0.00    -0.090 HD
ENDBRANCH   5  18
BRANCH   3  22
ATOM     22  C   LIG d   1      -1.901  81.292 112.490  0.00  0.00     0.382 C 
ATOM     23  O   LIG d   1      -1.746  80.073 112.236  0.00  0.00    -0.241 OA
ATOM     24  O   LIG d   1      -3.053  81.753 112.605  0.00  0.00    -0.241 OA
ENDBRANCH   3  22
TORSDOF 7
ENDMDL
MODEL 5
REMARK VINA RESULT:      -4.9      2.587      3.304
REMARK  7 active torsions:
REMARK  status: ('A' for Active; 'I' for Inactive)
REMARK    1  A    between atoms: C_2  and  C_3 
REMARK    2  A    between atoms: C_3  and  O_6 
REMARK    3  A    between atoms: C_3  and  C_4 
REMARK    4  A    between atoms: C_7  and  O_6 
REMARK    5  A    between atoms: C_9  and  C_10 
REMARK    6  A    between atoms: N_15  and  C_14 
REMARK    7  A    between atoms: N_20  and  C_19 
REMARK       I    between atoms: C_22  and  N_20 
ROOT
ATOM      1  C   LIG d   1       2.480  87.456 115.156  0.00  0.00     0.161 C 
ATOM      2  C   LIG d   1       2.491  88.670 115.863  0.00  0.00     0.016 C 
ATOM      3  C   LIG d   1       3.468  89.674 115.669  0.00  0.00     0.038 C 
ATOM      4  C   LIG d   1       4.419  89.595 114.641  0.00  0.00     0.028 C 
ATOM      5  C   LIG d   1       4.757  88.164 114.237  0.00  0.00    -0.047 C 
ATOM      6  C   LIG d   1       3.444  87.400 113.952  0.00  0.00     0.091 C 
ENDROOT
BRANCH   1   7
ATOM      7  O   LIG d   1       1.136  87.147 114.737  0.00  0.00    -0.368 OA
BRANCH   7   8
ATOM      8  C   LIG d   1       0.259  86.607 115.756  0.00  0.00     0.119 C 
BRANCH   8   9
ATOM      9  C   LIG d   1       1.059  85.550 116.542  0.00  0.00     0.028 C 
ATOM     10  C   LIG d   1       0.570  85.405 117.993  0.00  0.00     0.006 C 
ENDBRANCH   8   9
BRANCH   8  11
ATOM     11  C   LIG d   1      -0.916  85.846 115.133  0.00  0.00     0.028 C 
ATOM     12  C   LIG d   1      -0.481  84.901 114.002  0.00  0.00     0.006 C 
ENDBRANCH   8  11
ENDBRANCH   7   8
ENDBRANCH   1   7
BRANCH   6  13
ATOM     13  N   LIG d   1       3.680  85.968 113.632  0.00  0.00    -0.311 N 
ATOM     14  C   LIG d   1       3.087  85.336 112.620  0.00  0.00     0.210 C 
ATOM     15  C   LIG d   1       3.455  83.855 112.478  0.00  0.00     0.109 C 
ATOM     16  O   LIG d   1       2.317  85.868 111.807  0.00  0.00    -0.276 OA
ATOM     17  H   LIG d   1       4.315  85.467 114.222  0.00  0.00     0.149 HD
ENDBRANCH   6  13
BRANCH   5  18
ATOM     18  N   LIG d   1       5.652  88.231 113.067  0.00  0.00     0.381 N 
ATOM     19  H   LIG d   1       6.408  87.586 113.181  0.00  0.00    -0.090 HD
ATOM     20  H   LIG d   1       6.035  89.158 113.003  0.00  0.00    -0.090 HD
ATOM     21  H   LIG d   1       5.145  88.016 112.236  0.00  0.00    -0.090 HD
ENDBRANCH   5  18
BRANCH   3  22
ATOM     22  C   LIG d   1       3.524  90.754 116.537  0.00  0.00     0.382 C 
ATOM     23  O   LIG d   1       2.734  91.718 116.390  0.00  0.00    -0.241 OA
ATOM     24  O   LIG d   1       4.384  90.798 117.437  0.00  0.00    -0.241 OA
ENDBRANCH   3  22
TORSDOF 7
ENDMDL
MODEL 6
REMARK VINA RESULT:      -4.9     11.868     15.531
REMARK  7 active torsions:
REMARK  status: ('A' for Active; 'I' for Inactive)
REMARK    1  A    between atoms: C_2  and  C_3 
REMARK    2  A    between atoms: C_3  and  O_6 
REMARK    3  A    between atoms: C_3  and  C_4 
REMARK    4  A    between atoms: C_7  and  O_6 
REMARK    5  A    between atoms: C_9  and  C_10 
REMARK    6  A    between atoms: N_15  and  C_14 
REMARK    7  A    between atoms: N_20  and  C_19 
REMARK       I    between atoms: C_22  and  N_20 
ROOT
ATOM      1  C   LIG d   1      -6.293  74.379 117.645  0.00  0.00     0.161 C 
ATOM      2  C   LIG d   1      -6.825  73.089 117.485  0.00  0.00     0.016 C 
ATOM      3  C   LIG d   1      -8.212  72.818 117.450  0.00  0.00     0.038 C 
ATOM      4  C   LIG d   1      -9.167  73.845 117.420  0.00  0.00     0.028 C 
ATOM      5  C   LIG d   1      -8.694  75.132 118.088  0.00  0.00    -0.047 C 
ATOM      6  C   LIG d   1      -7.318  75.523 117.503  0.00  0.00     0.091 C 
ENDROOT
BRANCH   1   7
ATOM      7  O   LIG d   1      -5.196  74.572 116.730  0.00  0.00    -0.368 OA
BRANCH   7   8
ATOM      8  C   LIG d   1      -3.895  74.135 117.194  0.00  0.00     0.119 C 
BRANCH   8   9
ATOM      9  C   LIG d   1      -3.636  74.811 118.554  0.00  0.00     0.028 C 
ATOM     10  C   LIG d   1      -3.015  76.210 118.406  0.00  0.00     0.006 C 
ENDBRANCH   8   9
BRANCH   8  11
ATOM     11  C   LIG d   1      -2.778  74.636 116.273  0.00  0.00     0.028 C 
ATOM     12  C   LIG d   1      -1.511  73.769 116.346  0.00  0.00     0.006 C 
ENDBRANCH   8  11
ENDBRANCH   7   8
ENDBRANCH   1   7
BRANCH   6  13
ATOM     13  N   LIG d   1      -6.744  76.726 118.162  0.00  0.00    -0.311 N 
ATOM     14  C   LIG d   1      -6.156  77.717 117.494  0.00  0.00     0.210 C 
ATOM     15  C   LIG d   1      -5.614  78.853 118.368  0.00  0.00     0.109 C 
ATOM     16  O   LIG d   1      -6.060  77.779 116.259  0.00  0.00    -0.276 OA
ATOM     17  H   LIG d   1      -6.806  76.772 119.160  0.00  0.00     0.149 HD
ENDBRANCH   6  13
BRANCH   5  18
ATOM     18  N   LIG d   1      -9.731  76.157 117.864  0.00  0.00     0.381 N 
ATOM     19  H   LIG d   1     -10.350  75.859 117.137  0.00  0.00    -0.090 HD
ATOM     20  H   LIG d   1      -9.287  77.009 117.571  0.00  0.00    -0.090 HD
ATOM     21  H   LIG d   1     -10.243  76.313 118.704  0.00  0.00    -0.090 HD
ENDBRANCH   5  18
BRANCH   3  22
ATOM     22  C   LIG d   1      -8.657  71.505 117.483  0.00  0.00     0.382 C 
ATOM     23  O   LIG d   1      -7.958  70.593 116.979  0.00  0.00    -0.241 OA
ATOM     24  O   LIG d   1      -9.768  71.227 117.972  0.00  0.00    -0.241 OA
ENDBRANCH   3  22
TORSDOF 7
ENDMDL
MODEL 7
REMARK VINA RESULT:      -4.7      7.973     10.456
REMARK  7 active torsions:
REMARK  status: ('A' for Active; 'I' for Inactive)
REMARK    1  A    between atoms: C_2  and  C_3 
REMARK    2  A    between atoms: C_3  and  O_6 
REMARK    3  A    between atoms: C_3  and  C_4 
REMARK    4  A    between atoms: C_7  and  O_6 
REMARK    5  A    between atoms: C_9  and  C_10 
REMARK    6  A    between atoms: N_15  and  C_14 
REMARK    7  A    between atoms: N_20  and  C_19 
REMARK       I    between atoms: C_22  and  N_20 
ROOT
ATOM      1  C   LIG d   1      -2.650  77.241 116.087  0.00  0.00     0.161 C 
ATOM      2  C   LIG d   1      -2.940  78.397 115.344  0.00  0.00     0.016 C 
ATOM      3  C   LIG d   1      -2.310  78.713 114.118  0.00  0.00     0.038 C 
ATOM      4  C   LIG d   1      -1.450  77.811 113.472  0.00  0.00     0.028 C 
ATOM      5  C   LIG d   1      -0.743  76.857 114.429  0.00  0.00    -0.047 C 
ATOM      6  C   LIG d   1      -1.797  76.191 115.343  0.00  0.00     0.091 C 
ENDROOT
BRANCH   1   7
ATOM      7  O   LIG d   1      -3.874  76.646 116.562  0.00  0.00    -0.368 OA
BRANCH   7   8
ATOM      8  C   LIG d   1      -4.669  75.947 115.573  0.00  0.00     0.119 C 
BRANCH   8   9
ATOM      9  C   LIG d   1      -6.107  76.493 115.665  0.00  0.00     0.028 C 
ATOM     10  C   LIG d   1      -6.290  77.469 116.839  0.00  0.00     0.006 C 
ENDBRANCH   8   9
BRANCH   8  11
ATOM     11  C   LIG d   1      -4.780  74.455 115.900  0.00  0.00     0.028 C 
ATOM     12  C   LIG d   1      -4.536  74.151 117.387  0.00  0.00     0.006 C 
ENDBRANCH   8  11
ENDBRANCH   7   8
ENDBRANCH   1   7
BRANCH   6  13
ATOM     13  N   LIG d   1      -1.181  75.306 116.366  0.00  0.00    -0.311 N 
ATOM     14  C   LIG d   1      -0.977  74.003 116.181  0.00  0.00     0.210 C 
ATOM     15  C   LIG d   1      -0.348  73.271 117.371  0.00  0.00     0.109 C 
ATOM     16  O   LIG d   1      -1.228  73.390 115.132  0.00  0.00    -0.276 OA
ATOM     17  H   LIG d   1      -0.918  75.727 117.236  0.00  0.00     0.149 HD
ENDBRANCH   6  13
BRANCH   5  18
ATOM     18  N   LIG d   1       0.011  75.887 113.614  0.00  0.00     0.381 N 
ATOM     19  H   LIG d   1      -0.018  74.985 114.047  0.00  0.00    -0.090 HD
ATOM     20  H   LIG d   1       0.971  76.181 113.564  0.00  0.00    -0.090 HD
ATOM     21  H   LIG d   1      -0.377  75.836 112.698  0.00  0.00    -0.090 HD
ENDBRANCH   5  18
BRANCH   3  22
ATOM     22  C   LIG d   1      -2.507  79.960 113.545  0.00  0.00     0.382 C 
ATOM     23  O   LIG d   1      -2.145  80.171 112.362  0.00  0.00    -0.241 OA
ATOM     24  O   LIG d   1      -3.003  80.889 114.210  0.00  0.00    -0.241 OA
ENDBRANCH   3  22
TORSDOF 7
ENDMDL
MODEL 8
REMARK VINA RESULT:      -4.7      3.436      5.446
REMARK  7 active torsions:
REMARK  status: ('A' for Active; 'I' for Inactive)
REMARK    1  A    between atoms: C_2  and  C_3 
REMARK    2  A    between atoms: C_3  and  O_6 
REMARK    3  A    between atoms: C_3  and  C_4 
REMARK    4  A    between atoms: C_7  and  O_6 
REMARK    5  A    between atoms: C_9  and  C_10 
REMARK    6  A    between atoms: N_15  and  C_14 
REMARK    7  A    between atoms: N_20  and  C_19 
REMARK       I    between atoms: C_22  and  N_20 
ROOT
ATOM      1  C   LIG d   1       3.311  88.163 115.276  0.00  0.00     0.161 C 
ATOM      2  C   LIG d   1       2.422  87.517 114.400  0.00  0.00     0.016 C 
ATOM      3  C   LIG d   1       2.673  87.353 113.019  0.00  0.00     0.038 C 
ATOM      4  C   LIG d   1       3.906  87.692 112.443  0.00  0.00     0.028 C 
ATOM      5  C   LIG d   1       4.637  88.805 113.188  0.00  0.00    -0.047 C 
ATOM      6  C   LIG d   1       4.711  88.440 114.688  0.00  0.00     0.091 C 
ENDROOT
BRANCH   1   7
ATOM      7  O   LIG d   1       3.422  87.411 116.501  0.00  0.00    -0.368 OA
BRANCH   7   8
ATOM      8  C   LIG d   1       3.262  85.976 116.385  0.00  0.00     0.119 C 
BRANCH   8   9
ATOM      9  C   LIG d   1       2.378  85.513 117.559  0.00  0.00     0.028 C 
ATOM     10  C   LIG d   1       1.165  86.432 117.779  0.00  0.00     0.006 C 
ENDBRANCH   8   9
BRANCH   8  11
ATOM     11  C   LIG d   1       4.597  85.249 116.571  0.00  0.00     0.028 C 
ATOM     12  C   LIG d   1       4.919  84.290 115.414  0.00  0.00     0.006 C 
ENDBRANCH   8  11
ENDBRANCH   7   8
ENDBRANCH   1   7
BRANCH   6  13
ATOM     13  N   LIG d   1       5.335  89.515 115.503  0.00  0.00    -0.311 N 
ATOM     14  C   LIG d   1       6.337  89.301 116.354  0.00  0.00     0.210 C 
ATOM     15  C   LIG d   1       6.821  90.544 117.108  0.00  0.00     0.109 C 
ATOM     16  O   LIG d   1       6.893  88.207 116.532  0.00  0.00    -0.276 OA
ATOM     17  H   LIG d   1       4.967  90.440 115.397  0.00  0.00     0.149 HD
ENDBRANCH   6  13
BRANCH   5  18
ATOM     18  N   LIG d   1       5.964  88.961 112.565  0.00  0.00     0.381 N 
ATOM     19  H   LIG d   1       5.861  89.291 111.626  0.00  0.00    -0.090 HD
ATOM     20  H   LIG d   1       6.418  88.065 112.536  0.00  0.00    -0.090 HD
ATOM     21  H   LIG d   1       6.515  89.603 113.091  0.00  0.00    -0.090 HD
ENDBRANCH   5  18
BRANCH   3  22
ATOM     22  C   LIG d   1       1.667  86.880 112.189  0.00  0.00     0.382 C 
ATOM     23  O   LIG d   1       0.756  87.653 111.806  0.00  0.00    -0.241 OA
ATOM     24  O   LIG d   1       1.635  85.681 111.856  0.00  0.00    -0.241 OA
ENDBRANCH   3  22
TORSDOF 7
ENDMDL
MODEL 9
REMARK VINA RESULT:      -4.6      2.207      3.329
REMARK  7 active torsions:
REMARK  status: ('A' for Active; 'I' for Inactive)
REMARK    1  A    between atoms: C_2  and  C_3 
REMARK    2  A    between atoms: C_3  and  O_6 
REMARK    3  A    between atoms: C_3  and  C_4 
REMARK    4  A    between atoms: C_7  and  O_6 
REMARK    5  A    between atoms: C_9  and  C_10 
REMARK    6  A    between atoms: N_15  and  C_14 
REMARK    7  A    between atoms: N_20  and  C_19 
REMARK       I    between atoms: C_22  and  N_20 
ROOT
ATOM      1  C   LIG d   1       2.728  85.369 113.313  0.00  0.00     0.161 C 
ATOM      2  C   LIG d   1       3.283  86.521 112.732  0.00  0.00     0.016 C 
ATOM      3  C   LIG d   1       4.183  87.377 113.408  0.00  0.00     0.038 C 
ATOM      4  C   LIG d   1       4.710  87.053 114.667  0.00  0.00     0.028 C 
ATOM      5  C   LIG d   1       3.793  86.162 115.497  0.00  0.00    -0.047 C 
ATOM      6  C   LIG d   1       3.377  84.940 114.646  0.00  0.00     0.091 C 
ENDROOT
BRANCH   1   7
ATOM      7  O   LIG d   1       2.759  84.281 112.368  0.00  0.00    -0.368 OA
BRANCH   7   8
ATOM      8  C   LIG d   1       1.483  83.889 111.805  0.00  0.00     0.119 C 
BRANCH   8   9
ATOM      9  C   LIG d   1       0.380  84.563 112.644  0.00  0.00     0.028 C 
ATOM     10  C   LIG d   1      -0.593  83.544 113.260  0.00  0.00     0.006 C 
ENDBRANCH   8   9
BRANCH   8  11
ATOM     11  C   LIG d   1       1.246  82.384 111.957  0.00  0.00     0.028 C 
ATOM     12  C   LIG d   1       2.536  81.560 111.819  0.00  0.00     0.006 C 
ENDBRANCH   8  11
ENDBRANCH   7   8
ENDBRANCH   1   7
BRANCH   6  13
ATOM     13  N   LIG d   1       2.412  84.059 115.354  0.00  0.00    -0.311 N 
ATOM     14  C   LIG d   1       2.595  82.750 115.514  0.00  0.00     0.210 C 
ATOM     15  C   LIG d   1       1.468  82.024 116.256  0.00  0.00     0.109 C 
ATOM     16  O   LIG d   1       3.600  82.125 115.141  0.00  0.00    -0.276 OA
ATOM     17  H   LIG d   1       1.583  84.489 115.716  0.00  0.00     0.149 HD
ENDBRANCH   6  13
BRANCH   5  18
ATOM     18  N   LIG d   1       4.523  85.791 116.724  0.00  0.00     0.381 N 
ATOM     19  H   LIG d   1       3.927  85.904 117.520  0.00  0.00    -0.090 HD
ATOM     20  H   LIG d   1       5.312  86.404 116.831  0.00  0.00    -0.090 HD
ATOM     21  H   LIG d   1       4.832  84.846 116.664  0.00  0.00    -0.090 HD
ENDBRANCH   5  18
BRANCH   3  22
ATOM     22  C   LIG d   1       4.535  88.591 112.839  0.00  0.00     0.382 C 
ATOM     23  O   LIG d   1       5.623  88.705 112.225  0.00  0.00    -0.241 OA
ATOM     24  O   LIG d   1       3.797  89.587 112.969  0.00  0.00    -0.241 OA
ENDBRANCH   3  22
TORSDOF 7
ENDMDL
