MODEL 1
REMARK VINA RESULT:      -5.9      0.000      0.000
REMARK  7 active torsions:
REMARK  status: ('A' for Active; 'I' for Inactive)
REMARK    1  A    between atoms: C_2  and  C_3 
REMARK    2  A    between atoms: C_3  and  O_6 
REMARK    3  A    between atoms: C_3  and  C_4 
REMARK    4  A    between atoms: C_7  and  O_6 
REMARK    5  A    between atoms: C_9  and  C_10 
REMARK    6  A    between atoms: N_15  and  C_14 
REMARK    7  A    between atoms: N_20  and  C_19 
REMARK       I    between atoms: C_22  and  N_20 
ROOT
ATOM      1  C   LIG d   1      -3.136  76.801 114.951  0.00  0.00     0.161 C 
ATOM      2  C   LIG d   1      -3.169  77.827 113.993  0.00  0.00     0.016 C 
ATOM      3  C   LIG d   1      -2.011  78.356 113.378  0.00  0.00     0.038 C 
ATOM      4  C   LIG d   1      -0.743  77.786 113.571  0.00  0.00     0.028 C 
ATOM      5  C   LIG d   1      -0.596  77.078 114.913  0.00  0.00    -0.047 C 
ATOM      6  C   LIG d   1      -1.773  76.092 115.092  0.00  0.00     0.091 C 
ENDROOT
BRANCH   1   7
ATOM      7  O   LIG d   1      -4.174  75.841 114.675  0.00  0.00    -0.368 OA
BRANCH   7   8
ATOM      8  C   LIG d   1      -5.531  76.274 114.944  0.00  0.00     0.119 C 
BRANCH   8   9
ATOM      9  C   LIG d   1      -5.627  76.587 116.449  0.00  0.00     0.028 C 
ATOM     10  C   LIG d   1      -6.650  77.694 116.754  0.00  0.00     0.006 C 
ENDBRANCH   8   9
BRANCH   8  11
ATOM     11  C   LIG d   1      -6.535  75.144 114.699  0.00  0.00     0.028 C 
ATOM     12  C   LIG d   1      -6.433  74.020 115.742  0.00  0.00     0.006 C 
ENDBRANCH   8  11
ENDBRANCH   7   8
ENDBRANCH   1   7
BRANCH   6  13
ATOM     13  N   LIG d   1      -1.751  75.418 116.416  0.00  0.00    -0.311 N 
ATOM     14  C   LIG d   1      -1.114  74.271 116.645  0.00  0.00     0.210 C 
ATOM     15  C   LIG d   1      -1.235  73.738 118.076  0.00  0.00     0.109 C 
ATOM     16  O   LIG d   1      -0.433  73.661 115.807  0.00  0.00    -0.276 OA
ATOM     17  H   LIG d   1      -2.253  75.860 117.162  0.00  0.00     0.149 HD
ENDBRANCH   6  13
BRANCH   5  18
ATOM     18  N   LIG d   1       0.721  76.414 114.924  0.00  0.00     0.381 N 
ATOM     19  H   LIG d   1       1.133  76.463 114.014  0.00  0.00    -0.090 HD
ATOM     20  H   LIG d   1       0.595  75.445 115.161  0.00  0.00    -0.090 HD
ATOM     21  H   LIG d   1       1.318  76.851 115.591  0.00  0.00    -0.090 HD
ENDBRANCH   5  18
BRANCH   3  22
ATOM     22  C   LIG d   1      -2.109  79.493 112.590  0.00  0.00     0.382 C 
ATOM     23  O   LIG d   1      -1.173  79.800 111.813  0.00  0.00    -0.241 OA
ATOM     24  O   LIG d   1      -3.102  80.239 112.679  0.00  0.00    -0.241 OA
ENDBRANCH   3  22
TORSDOF 7
ENDMDL
MODEL 2
REMARK VINA RESULT:      -5.6      1.659      2.480
REMARK  7 active torsions:
REMARK  status: ('A' for Active; 'I' for Inactive)
REMARK    1  A    between atoms: C_2  and  C_3 
REMARK    2  A    between atoms: C_3  and  O_6 
REMARK    3  A    between atoms: C_3  and  C_4 
REMARK    4  A    between atoms: C_7  and  O_6 
REMARK    5  A    between atoms: C_9  and  C_10 
REMARK    6  A    between atoms: N_15  and  C_14 
REMARK    7  A    between atoms: N_20  and  C_19 
REMARK       I    between atoms: C_22  and  N_20 
ROOT
ATOM      1  C   LIG d   1      -2.778  78.360 115.378  0.00  0.00     0.161 C 
ATOM      2  C   LIG d   1      -2.951  79.514 114.596  0.00  0.00     0.016 C 
ATOM      3  C   LIG d   1      -2.221  79.770 113.413  0.00  0.00     0.038 C 
ATOM      4  C   LIG d   1      -1.369  78.811 112.846  0.00  0.00     0.028 C 
ATOM      5  C   LIG d   1      -0.784  77.841 113.866  0.00  0.00    -0.047 C 
ATOM      6  C   LIG d   1      -1.934  77.251 114.715  0.00  0.00     0.091 C 
ENDROOT
BRANCH   1   7
ATOM      7  O   LIG d   1      -4.063  77.841 115.775  0.00  0.00    -0.368 OA
BRANCH   7   8
ATOM      8  C   LIG d   1      -4.331  77.826 117.199  0.00  0.00     0.119 C 
BRANCH   8   9
ATOM      9  C   LIG d   1      -5.797  77.392 117.389  0.00  0.00     0.028 C 
ATOM     10  C   LIG d   1      -6.372  76.704 116.140  0.00  0.00     0.006 C 
ENDBRANCH   8   9
BRANCH   8  11
ATOM     11  C   LIG d   1      -4.243  79.233 117.798  0.00  0.00     0.028 C 
ATOM     12  C   LIG d   1      -5.406  80.139 117.363  0.00  0.00     0.006 C 
ENDBRANCH   8  11
ENDBRANCH   7   8
ENDBRANCH   1   7
BRANCH   6  13
ATOM     13  N   LIG d   1      -1.440  76.356 115.794  0.00  0.00    -0.311 N 
ATOM     14  C   LIG d   1      -1.242  75.050 115.629  0.00  0.00     0.210 C 
ATOM     15  C   LIG d   1      -0.749  74.308 116.876  0.00  0.00     0.109 C 
ATOM     16  O   LIG d   1      -1.398  74.440 114.560  0.00  0.00    -0.276 OA
ATOM     17  H   LIG d   1      -1.259  76.774 116.686  0.00  0.00     0.149 HD
ENDBRANCH   6  13
BRANCH   5  18
ATOM     18  N   LIG d   1      -0.028  76.815 113.124  0.00  0.00     0.381 N 
ATOM     19  H   LIG d   1      -0.510  76.586 112.277  0.00  0.00    -0.090 HD
ATOM     20  H   LIG d   1       0.032  75.984 113.687  0.00  0.00    -0.090 HD
ATOM     21  H   LIG d   1       0.886  77.149 112.914  0.00  0.00    -0.090 HD
ENDBRANCH   5  18
BRANCH   3  22
ATOM     22  C   LIG d   1      -2.310  81.014 112.806  0.00  0.00     0.382 C 
ATOM     23  O   LIG d   1      -1.271  81.588 112.400  0.00  0.00    -0.241 OA
ATOM     24  O   LIG d   1      -3.410  81.588 112.699  0.00  0.00    -0.241 OA
ENDBRANCH   3  22
TORSDOF 7
ENDMDL
MODEL 3
REMARK VINA RESULT:      -5.5      3.735      6.150
REMARK  7 active torsions:
REMARK  status: ('A' for Active; 'I' for Inactive)
REMARK    1  A    between atoms: C_2  and  C_3 
REMARK    2  A    between atoms: C_3  and  O_6 
REMARK    3  A    between atoms: C_3  and  C_4 
REMARK    4  A    between atoms: C_7  and  O_6 
REMARK    5  A    between atoms: C_9  and  C_10 
REMARK    6  A    between atoms: N_15  and  C_14 
REMARK    7  A    between atoms: N_20  and  C_19 
REMARK       I    between atoms: C_22  and  N_20 
ROOT
ATOM      1  C   LIG d   1      -6.176  78.177 116.995  0.00  0.00     0.161 C 
ATOM      2  C   LIG d   1      -7.552  78.358 117.216  0.00  0.00     0.016 C 
ATOM      3  C   LIG d   1      -8.105  79.546 117.748  0.00  0.00     0.038 C 
ATOM      4  C   LIG d   1      -7.330  80.697 117.955  0.00  0.00     0.028 C 
ATOM      5  C   LIG d   1      -5.859  80.396 118.222  0.00  0.00    -0.047 C 
ATOM      6  C   LIG d   1      -5.328  79.461 117.111  0.00  0.00     0.091 C 
ENDROOT
BRANCH   1   7
ATOM      7  O   LIG d   1      -5.965  77.551 115.714  0.00  0.00    -0.368 OA
BRANCH   7   8
ATOM      8  C   LIG d   1      -5.571  76.157 115.743  0.00  0.00     0.119 C 
BRANCH   8   9
ATOM      9  C   LIG d   1      -4.477  75.964 114.675  0.00  0.00     0.028 C 
ATOM     10  C   LIG d   1      -3.143  75.493 115.281  0.00  0.00     0.006 C 
ENDBRANCH   8   9
BRANCH   8  11
ATOM     11  C   LIG d   1      -6.723  75.244 115.313  0.00  0.00     0.028 C 
ATOM     12  C   LIG d   1      -6.552  73.798 115.806  0.00  0.00     0.006 C 
ENDBRANCH   8  11
ENDBRANCH   7   8
ENDBRANCH   1   7
BRANCH   6  13
ATOM     13  N   LIG d   1      -3.919  79.049 117.342  0.00  0.00    -0.311 N 
ATOM     14  C   LIG d   1      -2.979  79.090 116.399  0.00  0.00     0.210 C 
ATOM     15  C   LIG d   1      -1.596  78.602 116.842  0.00  0.00     0.109 C 
ATOM     16  O   LIG d   1      -3.152  79.514 115.246  0.00  0.00    -0.276 OA
ATOM     17  H   LIG d   1      -3.684  78.721 118.258  0.00  0.00     0.149 HD
ENDBRANCH   6  13
BRANCH   5  18
ATOM     18  N   LIG d   1      -5.144  81.685 118.282  0.00  0.00     0.381 N 
ATOM     19  H   LIG d   1      -5.803  82.438 118.273  0.00  0.00    -0.090 HD
ATOM     20  H   LIG d   1      -4.557  81.770 117.471  0.00  0.00    -0.090 HD
ATOM     21  H   LIG d   1      -4.590  81.729 119.109  0.00  0.00    -0.090 HD
ENDBRANCH   5  18
BRANCH   3  22
ATOM     22  C   LIG d   1      -9.441  79.577 118.115  0.00  0.00     0.382 C 
ATOM     23  O   LIG d   1     -10.150  78.550 117.989  0.00  0.00    -0.241 OA
ATOM     24  O   LIG d   1      -9.958  80.632 118.530  0.00  0.00    -0.241 OA
ENDBRANCH   3  22
TORSDOF 7
ENDMDL
MODEL 4
REMARK VINA RESULT:      -5.3      1.972      5.001
REMARK  7 active torsions:
REMARK  status: ('A' for Active; 'I' for Inactive)
REMARK    1  A    between atoms: C_2  and  C_3 
REMARK    2  A    between atoms: C_3  and  O_6 
REMARK    3  A    between atoms: C_3  and  C_4 
REMARK    4  A    between atoms: C_7  and  O_6 
REMARK    5  A    between atoms: C_9  and  C_10 
REMARK    6  A    between atoms: N_15  and  C_14 
REMARK    7  A    between atoms: N_20  and  C_19 
REMARK       I    between atoms: C_22  and  N_20 
ROOT
ATOM      1  C   LIG d   1      -1.838  76.545 114.747  0.00  0.00     0.161 C 
ATOM      2  C   LIG d   1      -1.513  75.451 115.566  0.00  0.00     0.016 C 
ATOM      3  C   LIG d   1      -0.768  75.569 116.762  0.00  0.00     0.038 C 
ATOM      4  C   LIG d   1      -0.425  76.817 117.302  0.00  0.00     0.028 C 
ATOM      5  C   LIG d   1      -0.294  77.916 116.253  0.00  0.00    -0.047 C 
ATOM      6  C   LIG d   1      -1.568  77.928 115.377  0.00  0.00     0.091 C 
ENDROOT
BRANCH   1   7
ATOM      7  O   LIG d   1      -3.212  76.448 114.324  0.00  0.00    -0.368 OA
BRANCH   7   8
ATOM      8  C   LIG d   1      -4.128  75.837 115.266  0.00  0.00     0.119 C 
BRANCH   8   9
ATOM      9  C   LIG d   1      -5.099  74.952 114.462  0.00  0.00     0.028 C 
ATOM     10  C   LIG d   1      -6.064  74.167 115.366  0.00  0.00     0.006 C 
ENDBRANCH   8   9
BRANCH   8  11
ATOM     11  C   LIG d   1      -5.008  76.889 115.949  0.00  0.00     0.028 C 
ATOM     12  C   LIG d   1      -4.535  77.229 117.371  0.00  0.00     0.006 C 
ENDBRANCH   8  11
ENDBRANCH   7   8
ENDBRANCH   1   7
BRANCH   6  13
ATOM     13  N   LIG d   1      -1.487  78.918 114.272  0.00  0.00    -0.311 N 
ATOM     14  C   LIG d   1      -2.403  79.862 114.064  0.00  0.00     0.210 C 
ATOM     15  C   LIG d   1      -2.137  80.766 112.856  0.00  0.00     0.109 C 
ATOM     16  O   LIG d   1      -3.394  80.056 114.784  0.00  0.00    -0.276 OA
ATOM     17  H   LIG d   1      -0.698  78.852 113.658  0.00  0.00     0.149 HD
ENDBRANCH   6  13
BRANCH   5  18
ATOM     18  N   LIG d   1      -0.070  79.188 116.965  0.00  0.00     0.381 N 
ATOM     19  H   LIG d   1      -0.387  79.952 116.402  0.00  0.00    -0.090 HD
ATOM     20  H   LIG d   1       0.915  79.302 117.125  0.00  0.00    -0.090 HD
ATOM     21  H   LIG d   1      -0.557  79.183 117.834  0.00  0.00    -0.090 HD
ENDBRANCH   5  18
BRANCH   3  22
ATOM     22  C   LIG d   1      -0.325  74.426 117.410  0.00  0.00     0.382 C 
ATOM     23  O   LIG d   1      -0.717  73.297 117.030  0.00  0.00    -0.241 OA
ATOM     24  O   LIG d   1       0.428  74.513 118.399  0.00  0.00    -0.241 OA
ENDBRANCH   3  22
TORSDOF 7
ENDMDL
MODEL 5
REMARK VINA RESULT:      -5.2      2.702      3.803
REMARK  7 active torsions:
REMARK  status: ('A' for Active; 'I' for Inactive)
REMARK    1  A    between atoms: C_2  and  C_3 
REMARK    2  A    between atoms: C_3  and  O_6 
REMARK    3  A    between atoms: C_3  and  C_4 
REMARK    4  A    between atoms: C_7  and  O_6 
REMARK    5  A    between atoms: C_9  and  C_10 
REMARK    6  A    between atoms: N_15  and  C_14 
REMARK    7  A    between atoms: N_20  and  C_19 
REMARK       I    between atoms: C_22  and  N_20 
ROOT
ATOM      1  C   LIG d   1      -4.437  76.864 116.998  0.00  0.00     0.161 C 
ATOM      2  C   LIG d   1      -5.408  77.863 117.173  0.00  0.00     0.016 C 
ATOM      3  C   LIG d   1      -5.152  79.240 116.978  0.00  0.00     0.038 C 
ATOM      4  C   LIG d   1      -3.938  79.700 116.445  0.00  0.00     0.028 C 
ATOM      5  C   LIG d   1      -2.761  78.774 116.732  0.00  0.00    -0.047 C 
ATOM      6  C   LIG d   1      -3.139  77.336 116.309  0.00  0.00     0.091 C 
ENDROOT
BRANCH   1   7
ATOM      7  O   LIG d   1      -5.006  75.749 116.283  0.00  0.00    -0.368 OA
BRANCH   7   8
ATOM      8  C   LIG d   1      -6.089  76.062 115.374  0.00  0.00     0.119 C 
BRANCH   8   9
ATOM      9  C   LIG d   1      -7.241  75.083 115.672  0.00  0.00     0.028 C 
ATOM     10  C   LIG d   1      -6.738  73.666 115.996  0.00  0.00     0.006 C 
ENDBRANCH   8   9
BRANCH   8  11
ATOM     11  C   LIG d   1      -5.692  75.790 113.920  0.00  0.00     0.028 C 
ATOM     12  C   LIG d   1      -6.820  76.107 112.925  0.00  0.00     0.006 C 
ENDBRANCH   8  11
ENDBRANCH   7   8
ENDBRANCH   1   7
BRANCH   6  13
ATOM     13  N   LIG d   1      -2.074  76.352 116.633  0.00  0.00    -0.311 N 
ATOM     14  C   LIG d   1      -1.691  75.385 115.801  0.00  0.00     0.210 C 
ATOM     15  C   LIG d   1      -0.590  74.466 116.339  0.00  0.00     0.109 C 
ATOM     16  O   LIG d   1      -2.136  75.222 114.655  0.00  0.00    -0.276 OA
ATOM     17  H   LIG d   1      -1.637  76.431 117.531  0.00  0.00     0.149 HD
ENDBRANCH   6  13
BRANCH   5  18
ATOM     18  N   LIG d   1      -1.592  79.302 116.004  0.00  0.00     0.381 N 
ATOM     19  H   LIG d   1      -1.262  78.619 115.351  0.00  0.00    -0.090 HD
ATOM     20  H   LIG d   1      -0.856  79.489 116.662  0.00  0.00    -0.090 HD
ATOM     21  H   LIG d   1      -1.838  80.139 115.523  0.00  0.00    -0.090 HD
ENDBRANCH   5  18
BRANCH   3  22
ATOM     22  C   LIG d   1      -6.102  80.176 117.356  0.00  0.00     0.382 C 
ATOM     23  O   LIG d   1      -5.754  81.204 117.986  0.00  0.00    -0.241 OA
ATOM     24  O   LIG d   1      -7.309  79.984 117.115  0.00  0.00    -0.241 OA
ENDBRANCH   3  22
TORSDOF 7
ENDMDL
MODEL 6
REMARK VINA RESULT:      -4.9      2.800      4.994
REMARK  7 active torsions:
REMARK  status: ('A' for Active; 'I' for Inactive)
REMARK    1  A    between atoms: C_2  and  C_3 
REMARK    2  A    between atoms: C_3  and  O_6 
REMARK    3  A    between atoms: C_3  and  C_4 
REMARK    4  A    between atoms: C_7  and  O_6 
REMARK    5  A    between atoms: C_9  and  C_10 
REMARK    6  A    between atoms: N_15  and  C_14 
REMARK    7  A    between atoms: N_20  and  C_19 
REMARK       I    between atoms: C_22  and  N_20 
ROOT
ATOM      1  C   LIG d   1      -1.577  77.467 114.331  0.00  0.00     0.161 C 
ATOM      2  C   LIG d   1      -0.462  78.177 114.807  0.00  0.00     0.016 C 
ATOM      3  C   LIG d   1      -0.409  78.777 116.086  0.00  0.00     0.038 C 
ATOM      4  C   LIG d   1      -1.418  78.577 117.041  0.00  0.00     0.028 C 
ATOM      5  C   LIG d   1      -2.784  78.289 116.428  0.00  0.00    -0.047 C 
ATOM      6  C   LIG d   1      -2.642  77.143 115.400  0.00  0.00     0.091 C 
ENDROOT
BRANCH   1   7
ATOM      7  O   LIG d   1      -1.143  76.259 113.675  0.00  0.00    -0.368 OA
BRANCH   7   8
ATOM      8  C   LIG d   1      -0.057  75.542 114.312  0.00  0.00     0.119 C 
BRANCH   8   9
ATOM      9  C   LIG d   1       0.950  75.155 113.212  0.00  0.00     0.028 C 
ATOM     10  C   LIG d   1       0.832  73.678 112.801  0.00  0.00     0.006 C 
ENDBRANCH   8   9
BRANCH   8  11
ATOM     11  C   LIG d   1      -0.538  74.215 114.906  0.00  0.00     0.028 C 
ATOM     12  C   LIG d   1      -0.638  74.251 116.440  0.00  0.00     0.006 C 
ENDBRANCH   8  11
ENDBRANCH   7   8
ENDBRANCH   1   7
BRANCH   6  13
ATOM     13  N   LIG d   1      -3.917  76.856 114.692  0.00  0.00    -0.311 N 
ATOM     14  C   LIG d   1      -4.588  75.713 114.826  0.00  0.00     0.210 C 
ATOM     15  C   LIG d   1      -5.868  75.614 113.991  0.00  0.00     0.109 C 
ATOM     16  O   LIG d   1      -4.261  74.785 115.581  0.00  0.00    -0.276 OA
ATOM     17  H   LIG d   1      -4.270  77.567 114.082  0.00  0.00     0.149 HD
ENDBRANCH   6  13
BRANCH   5  18
ATOM     18  N   LIG d   1      -3.708  77.965 117.531  0.00  0.00     0.381 N 
ATOM     19  H   LIG d   1      -3.284  77.297 118.143  0.00  0.00    -0.090 HD
ATOM     20  H   LIG d   1      -4.542  77.556 117.147  0.00  0.00    -0.090 HD
ATOM     21  H   LIG d   1      -3.938  78.792 118.037  0.00  0.00    -0.090 HD
ENDBRANCH   5  18
BRANCH   3  22
ATOM     22  C   LIG d   1       0.643  79.620 116.407  0.00  0.00     0.382 C 
ATOM     23  O   LIG d   1       1.028  80.484 115.583  0.00  0.00    -0.241 OA
ATOM     24  O   LIG d   1       1.242  79.498 117.492  0.00  0.00    -0.241 OA
ENDBRANCH   3  22
TORSDOF 7
ENDMDL
MODEL 7
REMARK VINA RESULT:      -4.9      2.912      4.234
REMARK  7 active torsions:
REMARK  status: ('A' for Active; 'I' for Inactive)
REMARK    1  A    between atoms: C_2  and  C_3 
REMARK    2  A    between atoms: C_3  and  O_6 
REMARK    3  A    between atoms: C_3  and  C_4 
REMARK    4  A    between atoms: C_7  and  O_6 
REMARK    5  A    between atoms: C_9  and  C_10 
REMARK    6  A    between atoms: N_15  and  C_14 
REMARK    7  A    between atoms: N_20  and  C_19 
REMARK       I    between atoms: C_22  and  N_20 
ROOT
ATOM      1  C   LIG d   1      -3.186  78.453 116.497  0.00  0.00     0.161 C 
ATOM      2  C   LIG d   1      -2.227  79.378 116.945  0.00  0.00     0.016 C 
ATOM      3  C   LIG d   1      -0.884  79.381 116.504  0.00  0.00     0.038 C 
ATOM      4  C   LIG d   1      -0.442  78.548 115.466  0.00  0.00     0.028 C 
ATOM      5  C   LIG d   1      -1.246  77.258 115.340  0.00  0.00    -0.047 C 
ATOM      6  C   LIG d   1      -2.750  77.608 115.282  0.00  0.00     0.091 C 
ENDROOT
BRANCH   1   7
ATOM      7  O   LIG d   1      -4.426  79.132 116.217  0.00  0.00    -0.368 OA
BRANCH   7   8
ATOM      8  C   LIG d   1      -5.324  79.308 117.341  0.00  0.00     0.119 C 
BRANCH   8   9
ATOM      9  C   LIG d   1      -6.632  78.565 117.008  0.00  0.00     0.028 C 
ATOM     10  C   LIG d   1      -6.511  77.045 117.208  0.00  0.00     0.006 C 
ENDBRANCH   8   9
BRANCH   8  11
ATOM     11  C   LIG d   1      -5.723  80.776 117.510  0.00  0.00     0.028 C 
ATOM     12  C   LIG d   1      -7.244  80.992 117.443  0.00  0.00     0.006 C 
ENDBRANCH   8  11
ENDBRANCH   7   8
ENDBRANCH   1   7
BRANCH   6  13
ATOM     13  N   LIG d   1      -3.613  76.398 115.244  0.00  0.00    -0.311 N 
ATOM     14  C   LIG d   1      -4.424  76.108 114.228  0.00  0.00     0.210 C 
ATOM     15  C   LIG d   1      -5.240  74.823 114.400  0.00  0.00     0.109 C 
ATOM     16  O   LIG d   1      -4.522  76.776 113.188  0.00  0.00    -0.276 OA
ATOM     17  H   LIG d   1      -3.573  75.784 116.034  0.00  0.00     0.149 HD
ENDBRANCH   6  13
BRANCH   5  18
ATOM     18  N   LIG d   1      -0.769  76.551 114.137  0.00  0.00     0.381 N 
ATOM     19  H   LIG d   1      -1.515  76.012 113.743  0.00  0.00    -0.090 HD
ATOM     20  H   LIG d   1      -0.031  75.923 114.400  0.00  0.00    -0.090 HD
ATOM     21  H   LIG d   1      -0.434  77.207 113.466  0.00  0.00    -0.090 HD
ENDBRANCH   5  18
BRANCH   3  22
ATOM     22  C   LIG d   1       0.044  80.198 117.133  0.00  0.00     0.382 C 
ATOM     23  O   LIG d   1      -0.129  80.537 118.329  0.00  0.00    -0.241 OA
ATOM     24  O   LIG d   1       1.028  80.635 116.507  0.00  0.00    -0.241 OA
ENDBRANCH   3  22
TORSDOF 7
ENDMDL
MODEL 8
REMARK VINA RESULT:      -4.8     13.282     16.191
REMARK  7 active torsions:
REMARK  status: ('A' for Active; 'I' for Inactive)
REMARK    1  A    between atoms: C_2  and  C_3 
REMARK    2  A    between atoms: C_3  and  O_6 
REMARK    3  A    between atoms: C_3  and  C_4 
REMARK    4  A    between atoms: C_7  and  O_6 
REMARK    5  A    between atoms: C_9  and  C_10 
REMARK    6  A    between atoms: N_15  and  C_14 
REMARK    7  A    between atoms: N_20  and  C_19 
REMARK       I    between atoms: C_22  and  N_20 
ROOT
ATOM      1  C   LIG d   1      12.182  78.115 114.830  0.00  0.00     0.161 C 
ATOM      2  C   LIG d   1      11.004  77.357 114.717  0.00  0.00     0.016 C 
ATOM      3  C   LIG d   1       9.724  77.853 115.056  0.00  0.00     0.038 C 
ATOM      4  C   LIG d   1       9.515  79.199 115.390  0.00  0.00     0.028 C 
ATOM      5  C   LIG d   1      10.740  79.868 116.004  0.00  0.00    -0.047 C 
ATOM      6  C   LIG d   1      11.960  79.620 115.087  0.00  0.00     0.091 C 
ENDROOT
BRANCH   1   7
ATOM      7  O   LIG d   1      13.001  77.922 113.661  0.00  0.00    -0.368 OA
BRANCH   7   8
ATOM      8  C   LIG d   1      14.081  76.965 113.790  0.00  0.00     0.119 C 
BRANCH   8   9
ATOM      9  C   LIG d   1      14.530  76.970 115.264  0.00  0.00     0.028 C 
ATOM     10  C   LIG d   1      15.949  77.537 115.444  0.00  0.00     0.006 C 
ENDBRANCH   8   9
BRANCH   8  11
ATOM     11  C   LIG d   1      15.312  77.401 112.990  0.00  0.00     0.028 C 
ATOM     12  C   LIG d   1      14.959  78.315 111.806  0.00  0.00     0.006 C 
ENDBRANCH   8  11
ENDBRANCH   7   8
ENDBRANCH   1   7
BRANCH   6  13
ATOM     13  N   LIG d   1      13.218  80.170 115.657  0.00  0.00    -0.311 N 
ATOM     14  C   LIG d   1      14.133  80.810 114.931  0.00  0.00     0.210 C 
ATOM     15  C   LIG d   1      15.365  81.278 115.711  0.00  0.00     0.109 C 
ATOM     16  O   LIG d   1      14.025  81.063 113.722  0.00  0.00    -0.276 OA
ATOM     17  H   LIG d   1      13.371  80.036 116.637  0.00  0.00     0.149 HD
ENDBRANCH   6  13
BRANCH   5  18
ATOM     18  N   LIG d   1      10.427  81.299 116.176  0.00  0.00     0.381 N 
ATOM     19  H   LIG d   1       9.461  81.409 116.413  0.00  0.00    -0.090 HD
ATOM     20  H   LIG d   1      10.595  81.775 115.307  0.00  0.00    -0.090 HD
ATOM     21  H   LIG d   1      10.999  81.690 116.893  0.00  0.00    -0.090 HD
ENDBRANCH   5  18
BRANCH   3  22
ATOM     22  C   LIG d   1       8.642  76.987 115.101  0.00  0.00     0.382 C 
ATOM     23  O   LIG d   1       8.670  75.914 114.451  0.00  0.00    -0.241 OA
ATOM     24  O   LIG d   1       7.620  77.286 115.746  0.00  0.00    -0.241 OA
ENDBRANCH   3  22
TORSDOF 7
ENDMDL
MODEL 9
REMARK VINA RESULT:      -4.7      2.786      5.238
REMARK  7 active torsions:
REMARK  status: ('A' for Active; 'I' for Inactive)
REMARK    1  A    between atoms: C_2  and  C_3 
REMARK    2  A    between atoms: C_3  and  O_6 
REMARK    3  A    between atoms: C_3  and  C_4 
REMARK    4  A    between atoms: C_7  and  O_6 
REMARK    5  A    between atoms: C_9  and  C_10 
REMARK    6  A    between atoms: N_15  and  C_14 
REMARK    7  A    between atoms: N_20  and  C_19 
REMARK       I    between atoms: C_22  and  N_20 
ROOT
ATOM      1  C   LIG d   1      -3.582  77.521 116.672  0.00  0.00     0.161 C 
ATOM      2  C   LIG d   1      -4.741  78.226 117.039  0.00  0.00     0.016 C 
ATOM      3  C   LIG d   1      -6.049  77.722 116.855  0.00  0.00     0.038 C 
ATOM      4  C   LIG d   1      -6.283  76.406 116.427  0.00  0.00     0.028 C 
ATOM      5  C   LIG d   1      -5.157  75.839 115.570  0.00  0.00    -0.047 C 
ATOM      6  C   LIG d   1      -3.814  76.040 116.307  0.00  0.00     0.091 C 
ENDROOT
BRANCH   1   7
ATOM      7  O   LIG d   1      -2.593  77.631 117.715  0.00  0.00    -0.368 OA
BRANCH   7   8
ATOM      8  C   LIG d   1      -1.428  78.435 117.406  0.00  0.00     0.119 C 
BRANCH   8   9
ATOM      9  C   LIG d   1      -1.590  78.950 115.962  0.00  0.00     0.028 C 
ATOM     10  C   LIG d   1      -0.432  78.512 115.050  0.00  0.00     0.006 C 
ENDBRANCH   8   9
BRANCH   8  11
ATOM     11  C   LIG d   1      -0.153  77.587 117.393  0.00  0.00     0.028 C 
ATOM     12  C   LIG d   1      -0.095  76.580 118.553  0.00  0.00     0.006 C 
ENDBRANCH   8  11
ENDBRANCH   7   8
ENDBRANCH   1   7
BRANCH   6  13
ATOM     13  N   LIG d   1      -2.651  75.588 115.500  0.00  0.00    -0.311 N 
ATOM     14  C   LIG d   1      -1.811  74.633 115.895  0.00  0.00     0.210 C 
ATOM     15  C   LIG d   1      -0.667  74.334 114.921  0.00  0.00     0.109 C 
ATOM     16  O   LIG d   1      -1.924  73.982 116.945  0.00  0.00    -0.276 OA
ATOM     17  H   LIG d   1      -2.503  76.041 114.620  0.00  0.00     0.149 HD
ENDBRANCH   6  13
BRANCH   5  18
ATOM     18  N   LIG d   1      -5.467  74.420 115.310  0.00  0.00     0.381 N 
ATOM     19  H   LIG d   1      -6.250  74.137 115.864  0.00  0.00    -0.090 HD
ATOM     20  H   LIG d   1      -4.675  73.861 115.574  0.00  0.00    -0.090 HD
ATOM     21  H   LIG d   1      -5.670  74.287 114.343  0.00  0.00    -0.090 HD
ENDBRANCH   5  18
BRANCH   3  22
ATOM     22  C   LIG d   1      -7.140  78.552 117.062  0.00  0.00     0.382 C 
ATOM     23  O   LIG d   1      -6.987  79.797 117.079  0.00  0.00    -0.241 OA
ATOM     24  O   LIG d   1      -8.269  78.069 117.275  0.00  0.00    -0.241 OA
ENDBRANCH   3  22
TORSDOF 7
ENDMDL
