MODEL 1
REMARK VINA RESULT:      -4.9      0.000      0.000
REMARK  7 active torsions:
REMARK  status: ('A' for Active; 'I' for Inactive)
REMARK    1  A    between atoms: C_2  and  C_3 
REMARK    2  A    between atoms: C_3  and  O_6 
REMARK    3  A    between atoms: C_3  and  C_4 
REMARK    4  A    between atoms: C_7  and  O_6 
REMARK    5  A    between atoms: C_9  and  C_10 
REMARK    6  A    between atoms: N_15  and  C_14 
REMARK    7  A    between atoms: N_20  and  C_19 
REMARK       I    between atoms: C_22  and  N_20 
ROOT
ATOM      1  C   LIG d   1      -6.282  76.870 116.638  0.00  0.00     0.161 C 
ATOM      2  C   LIG d   1      -6.835  75.605 116.379  0.00  0.00     0.016 C 
ATOM      3  C   LIG d   1      -8.169  75.260 116.694  0.00  0.00     0.038 C 
ATOM      4  C   LIG d   1      -9.092  76.211 117.155  0.00  0.00     0.028 C 
ATOM      5  C   LIG d   1      -8.444  77.370 117.905  0.00  0.00    -0.047 C 
ATOM      6  C   LIG d   1      -7.305  77.954 117.038  0.00  0.00     0.091 C 
ENDROOT
BRANCH   1   7
ATOM      7  O   LIG d   1      -5.508  77.307 115.503  0.00  0.00    -0.368 OA
BRANCH   7   8
ATOM      8  C   LIG d   1      -4.070  77.326 115.681  0.00  0.00     0.119 C 
BRANCH   8   9
ATOM      9  C   LIG d   1      -3.487  76.159 114.861  0.00  0.00     0.028 C 
ATOM     10  C   LIG d   1      -3.108  74.956 115.740  0.00  0.00     0.006 C 
ENDBRANCH   8   9
BRANCH   8  11
ATOM     11  C   LIG d   1      -3.685  77.033 117.134  0.00  0.00     0.028 C 
ATOM     12  C   LIG d   1      -2.910  78.188 117.789  0.00  0.00     0.006 C 
ENDBRANCH   8  11
ENDBRANCH   7   8
ENDBRANCH   1   7
BRANCH   6  13
ATOM     13  N   LIG d   1      -6.563  79.038 117.733  0.00  0.00    -0.311 N 
ATOM     14  C   LIG d   1      -7.002  80.293 117.811  0.00  0.00     0.210 C 
ATOM     15  C   LIG d   1      -6.073  81.258 118.555  0.00  0.00     0.109 C 
ATOM     16  O   LIG d   1      -8.087  80.692 117.363  0.00  0.00    -0.276 OA
ATOM     17  H   LIG d   1      -5.687  78.795 118.152  0.00  0.00     0.149 HD
ENDBRANCH   6  13
BRANCH   5  18
ATOM     18  N   LIG d   1      -9.502  78.352 118.208  0.00  0.00     0.381 N 
ATOM     19  H   LIG d   1      -9.736  78.863 117.381  0.00  0.00    -0.090 HD
ATOM     20  H   LIG d   1      -9.156  79.001 118.893  0.00  0.00    -0.090 HD
ATOM     21  H   LIG d   1     -10.309  77.886 118.559  0.00  0.00    -0.090 HD
ENDBRANCH   5  18
BRANCH   3  22
ATOM     22  C   LIG d   1      -8.582  73.940 116.586  0.00  0.00     0.382 C 
ATOM     23  O   LIG d   1      -7.767  73.057 116.225  0.00  0.00    -0.241 OA
ATOM     24  O   LIG d   1      -9.768  73.630 116.803  0.00  0.00    -0.241 OA
ENDBRANCH   3  22
TORSDOF 7
ENDMDL
MODEL 2
REMARK VINA RESULT:      -4.8     17.158     19.759
REMARK  7 active torsions:
REMARK  status: ('A' for Active; 'I' for Inactive)
REMARK    1  A    between atoms: C_2  and  C_3 
REMARK    2  A    between atoms: C_3  and  O_6 
REMARK    3  A    between atoms: C_3  and  C_4 
REMARK    4  A    between atoms: C_7  and  O_6 
REMARK    5  A    between atoms: C_9  and  C_10 
REMARK    6  A    between atoms: N_15  and  C_14 
REMARK    7  A    between atoms: N_20  and  C_19 
REMARK       I    between atoms: C_22  and  N_20 
ROOT
ATOM      1  C   LIG d   1      12.745  78.200 114.328  0.00  0.00     0.161 C 
ATOM      2  C   LIG d   1      11.574  77.433 114.211  0.00  0.00     0.016 C 
ATOM      3  C   LIG d   1      10.328  77.828 114.751  0.00  0.00     0.038 C 
ATOM      4  C   LIG d   1      10.135  79.096 115.320  0.00  0.00     0.028 C 
ATOM      5  C   LIG d   1      11.407  79.696 115.909  0.00  0.00    -0.047 C 
ATOM      6  C   LIG d   1      12.528  79.637 114.847  0.00  0.00     0.091 C 
ENDROOT
BRANCH   1   7
ATOM      7  O   LIG d   1      13.442  78.223 113.067  0.00  0.00    -0.368 OA
BRANCH   7   8
ATOM      8  C   LIG d   1      14.567  77.318 112.943  0.00  0.00     0.119 C 
BRANCH   8   9
ATOM      9  C   LIG d   1      15.142  77.099 114.356  0.00  0.00     0.028 C 
ATOM     10  C   LIG d   1      15.203  75.611 114.741  0.00  0.00     0.006 C 
ENDBRANCH   8   9
BRANCH   8  11
ATOM     11  C   LIG d   1      15.705  77.950 112.136  0.00  0.00     0.028 C 
ATOM     12  C   LIG d   1      16.883  78.396 113.016  0.00  0.00     0.006 C 
ENDBRANCH   8  11
ENDBRANCH   7   8
ENDBRANCH   1   7
BRANCH   6  13
ATOM     13  N   LIG d   1      13.830  80.127 115.370  0.00  0.00    -0.311 N 
ATOM     14  C   LIG d   1      14.671  80.877 114.659  0.00  0.00     0.210 C 
ATOM     15  C   LIG d   1      15.967  81.257 115.381  0.00  0.00     0.109 C 
ATOM     16  O   LIG d   1      14.451  81.289 113.510  0.00  0.00    -0.276 OA
ATOM     17  H   LIG d   1      14.074  79.865 116.305  0.00  0.00     0.149 HD
ENDBRANCH   6  13
BRANCH   5  18
ATOM     18  N   LIG d   1      11.092  81.070 116.342  0.00  0.00     0.381 N 
ATOM     19  H   LIG d   1      11.593  81.284 117.181  0.00  0.00    -0.090 HD
ATOM     20  H   LIG d   1      10.108  81.132 116.538  0.00  0.00    -0.090 HD
ATOM     21  H   LIG d   1      11.337  81.718 115.626  0.00  0.00    -0.090 HD
ENDBRANCH   5  18
BRANCH   3  22
ATOM     22  C   LIG d   1       9.269  76.932 114.762  0.00  0.00     0.382 C 
ATOM     23  O   LIG d   1       9.492  75.698 114.788  0.00  0.00    -0.241 OA
ATOM     24  O   LIG d   1       8.095  77.342 114.702  0.00  0.00    -0.241 OA
ENDBRANCH   3  22
TORSDOF 7
ENDMDL
MODEL 3
REMARK VINA RESULT:      -4.8      1.742      2.305
REMARK  7 active torsions:
REMARK  status: ('A' for Active; 'I' for Inactive)
REMARK    1  A    between atoms: C_2  and  C_3 
REMARK    2  A    between atoms: C_3  and  O_6 
REMARK    3  A    between atoms: C_3  and  C_4 
REMARK    4  A    between atoms: C_7  and  O_6 
REMARK    5  A    between atoms: C_9  and  C_10 
REMARK    6  A    between atoms: N_15  and  C_14 
REMARK    7  A    between atoms: N_20  and  C_19 
REMARK       I    between atoms: C_22  and  N_20 
ROOT
ATOM      1  C   LIG d   1      -5.753  76.235 116.390  0.00  0.00     0.161 C 
ATOM      2  C   LIG d   1      -6.875  75.431 116.130  0.00  0.00     0.016 C 
ATOM      3  C   LIG d   1      -8.168  75.715 116.626  0.00  0.00     0.038 C 
ATOM      4  C   LIG d   1      -8.458  76.913 117.296  0.00  0.00     0.028 C 
ATOM      5  C   LIG d   1      -7.255  77.511 118.017  0.00  0.00    -0.047 C 
ATOM      6  C   LIG d   1      -6.072  77.605 117.026  0.00  0.00     0.091 C 
ENDROOT
BRANCH   1   7
ATOM      7  O   LIG d   1      -4.986  76.410 115.182  0.00  0.00    -0.368 OA
BRANCH   7   8
ATOM      8  C   LIG d   1      -3.762  75.642 115.087  0.00  0.00     0.119 C 
BRANCH   8   9
ATOM      9  C   LIG d   1      -3.320  75.296 116.523  0.00  0.00     0.028 C 
ATOM     10  C   LIG d   1      -2.046  74.435 116.553  0.00  0.00     0.006 C 
ENDBRANCH   8   9
BRANCH   8  11
ATOM     11  C   LIG d   1      -2.621  76.481 114.503  0.00  0.00     0.028 C 
ATOM     12  C   LIG d   1      -3.110  77.526 113.488  0.00  0.00     0.006 C 
ENDBRANCH   8  11
ENDBRANCH   7   8
ENDBRANCH   1   7
BRANCH   6  13
ATOM     13  N   LIG d   1      -4.829  78.101 117.672  0.00  0.00    -0.311 N 
ATOM     14  C   LIG d   1      -4.024  79.004 117.115  0.00  0.00     0.210 C 
ATOM     15  C   LIG d   1      -2.785  79.363 117.941  0.00  0.00     0.109 C 
ATOM     16  O   LIG d   1      -4.235  79.567 116.030  0.00  0.00    -0.276 OA
ATOM     17  H   LIG d   1      -4.598  77.721 118.569  0.00  0.00     0.149 HD
ENDBRANCH   6  13
BRANCH   5  18
ATOM     18  N   LIG d   1      -7.664  78.822 118.555  0.00  0.00     0.381 N 
ATOM     19  H   LIG d   1      -8.656  78.925 118.478  0.00  0.00    -0.090 HD
ATOM     20  H   LIG d   1      -7.228  79.547 118.011  0.00  0.00    -0.090 HD
ATOM     21  H   LIG d   1      -7.387  78.901 119.508  0.00  0.00    -0.090 HD
ENDBRANCH   5  18
BRANCH   3  22
ATOM     22  C   LIG d   1      -9.179  74.776 116.488  0.00  0.00     0.382 C 
ATOM     23  O   LIG d   1     -10.323  75.136 116.119  0.00  0.00    -0.241 OA
ATOM     24  O   LIG d   1      -8.973  73.581 116.772  0.00  0.00    -0.241 OA
ENDBRANCH   3  22
TORSDOF 7
ENDMDL
MODEL 4
REMARK VINA RESULT:      -4.7      2.817      5.173
REMARK  7 active torsions:
REMARK  status: ('A' for Active; 'I' for Inactive)
REMARK    1  A    between atoms: C_2  and  C_3 
REMARK    2  A    between atoms: C_3  and  O_6 
REMARK    3  A    between atoms: C_3  and  C_4 
REMARK    4  A    between atoms: C_7  and  O_6 
REMARK    5  A    between atoms: C_9  and  C_10 
REMARK    6  A    between atoms: N_15  and  C_14 
REMARK    7  A    between atoms: N_20  and  C_19 
REMARK       I    between atoms: C_22  and  N_20 
ROOT
ATOM      1  C   LIG d   1      -4.288  77.370 116.834  0.00  0.00     0.161 C 
ATOM      2  C   LIG d   1      -4.999  76.500 115.992  0.00  0.00     0.016 C 
ATOM      3  C   LIG d   1      -4.509  75.237 115.586  0.00  0.00     0.038 C 
ATOM      4  C   LIG d   1      -3.333  74.692 116.120  0.00  0.00     0.028 C 
ATOM      5  C   LIG d   1      -2.332  75.745 116.583  0.00  0.00    -0.047 C 
ATOM      6  C   LIG d   1      -3.053  76.745 117.516  0.00  0.00     0.091 C 
ENDROOT
BRANCH   1   7
ATOM      7  O   LIG d   1      -5.177  77.928 117.823  0.00  0.00    -0.368 OA
BRANCH   7   8
ATOM      8  C   LIG d   1      -6.222  78.798 117.322  0.00  0.00     0.119 C 
BRANCH   8   9
ATOM      9  C   LIG d   1      -5.836  80.244 117.689  0.00  0.00     0.028 C 
ATOM     10  C   LIG d   1      -7.049  81.189 117.701  0.00  0.00     0.006 C 
ENDBRANCH   8   9
BRANCH   8  11
ATOM     11  C   LIG d   1      -7.552  78.539 118.036  0.00  0.00     0.028 C 
ATOM     12  C   LIG d   1      -8.188  77.196 117.643  0.00  0.00     0.006 C 
ENDBRANCH   8  11
ENDBRANCH   7   8
ENDBRANCH   1   7
BRANCH   6  13
ATOM     13  N   LIG d   1      -2.166  77.858 117.947  0.00  0.00    -0.311 N 
ATOM     14  C   LIG d   1      -1.623  78.732 117.102  0.00  0.00     0.210 C 
ATOM     15  C   LIG d   1      -0.725  79.788 117.754  0.00  0.00     0.109 C 
ATOM     16  O   LIG d   1      -1.826  78.753 115.879  0.00  0.00    -0.276 OA
ATOM     17  H   LIG d   1      -1.974  77.934 118.927  0.00  0.00     0.149 HD
ENDBRANCH   6  13
BRANCH   5  18
ATOM     18  N   LIG d   1      -1.216  75.041 117.242  0.00  0.00     0.381 N 
ATOM     19  H   LIG d   1      -0.354  75.503 117.032  0.00  0.00    -0.090 HD
ATOM     20  H   LIG d   1      -1.167  74.103 116.884  0.00  0.00    -0.090 HD
ATOM     21  H   LIG d   1      -1.360  75.021 118.227  0.00  0.00    -0.090 HD
ENDBRANCH   5  18
BRANCH   3  22
ATOM     22  C   LIG d   1      -5.180  74.524 114.604  0.00  0.00     0.382 C 
ATOM     23  O   LIG d   1      -5.236  74.970 113.433  0.00  0.00    -0.241 OA
ATOM     24  O   LIG d   1      -5.767  73.461 114.885  0.00  0.00    -0.241 OA
ENDBRANCH   3  22
TORSDOF 7
ENDMDL
MODEL 5
REMARK VINA RESULT:      -4.6     16.371     18.986
REMARK  7 active torsions:
REMARK  status: ('A' for Active; 'I' for Inactive)
REMARK    1  A    between atoms: C_2  and  C_3 
REMARK    2  A    between atoms: C_3  and  O_6 
REMARK    3  A    between atoms: C_3  and  C_4 
REMARK    4  A    between atoms: C_7  and  O_6 
REMARK    5  A    between atoms: C_9  and  C_10 
REMARK    6  A    between atoms: N_15  and  C_14 
REMARK    7  A    between atoms: N_20  and  C_19 
REMARK       I    between atoms: C_22  and  N_20 
ROOT
ATOM      1  C   LIG d   1      12.467  78.442 115.524  0.00  0.00     0.161 C 
ATOM      2  C   LIG d   1      11.418  77.679 114.984  0.00  0.00     0.016 C 
ATOM      3  C   LIG d   1      10.052  77.998 115.164  0.00  0.00     0.038 C 
ATOM      4  C   LIG d   1       9.644  79.195 115.772  0.00  0.00     0.028 C 
ATOM      5  C   LIG d   1      10.656  79.742 116.773  0.00  0.00    -0.047 C 
ATOM      6  C   LIG d   1      12.044  79.811 116.096  0.00  0.00     0.091 C 
ENDROOT
BRANCH   1   7
ATOM      7  O   LIG d   1      13.506  78.610 114.539  0.00  0.00    -0.368 OA
BRANCH   7   8
ATOM      8  C   LIG d   1      13.325  79.699 113.601  0.00  0.00     0.119 C 
BRANCH   8   9
ATOM      9  C   LIG d   1      13.316  79.093 112.184  0.00  0.00     0.028 C 
ATOM     10  C   LIG d   1      14.097  77.771 112.106  0.00  0.00     0.006 C 
ENDBRANCH   8   9
BRANCH   8  11
ATOM     11  C   LIG d   1      14.518  80.659 113.624  0.00  0.00     0.028 C 
ATOM     12  C   LIG d   1      15.694  80.127 114.458  0.00  0.00     0.006 C 
ENDBRANCH   8  11
ENDBRANCH   7   8
ENDBRANCH   1   7
BRANCH   6  13
ATOM     13  N   LIG d   1      13.109  80.256 117.032  0.00  0.00    -0.311 N 
ATOM     14  C   LIG d   1      13.492  81.526 117.156  0.00  0.00     0.210 C 
ATOM     15  C   LIG d   1      14.621  81.765 118.164  0.00  0.00     0.109 C 
ATOM     16  O   LIG d   1      12.981  82.481 116.552  0.00  0.00    -0.276 OA
ATOM     17  H   LIG d   1      13.556  79.550 117.584  0.00  0.00     0.149 HD
ENDBRANCH   6  13
BRANCH   5  18
ATOM     18  N   LIG d   1      10.168  81.057 117.227  0.00  0.00     0.381 N 
ATOM     19  H   LIG d   1      10.387  81.185 118.195  0.00  0.00    -0.090 HD
ATOM     20  H   LIG d   1       9.169  81.087 117.123  0.00  0.00    -0.090 HD
ATOM     21  H   LIG d   1      10.586  81.782 116.686  0.00  0.00    -0.090 HD
ENDBRANCH   5  18
BRANCH   3  22
ATOM     22  C   LIG d   1       9.078  77.095 114.766  0.00  0.00     0.382 C 
ATOM     23  O   LIG d   1       7.899  77.484 114.585  0.00  0.00    -0.241 OA
ATOM     24  O   LIG d   1       9.353  75.888 114.630  0.00  0.00    -0.241 OA
ENDBRANCH   3  22
TORSDOF 7
ENDMDL
MODEL 6
REMARK VINA RESULT:      -4.6      3.136      4.750
REMARK  7 active torsions:
REMARK  status: ('A' for Active; 'I' for Inactive)
REMARK    1  A    between atoms: C_2  and  C_3 
REMARK    2  A    between atoms: C_3  and  O_6 
REMARK    3  A    between atoms: C_3  and  C_4 
REMARK    4  A    between atoms: C_7  and  O_6 
REMARK    5  A    between atoms: C_9  and  C_10 
REMARK    6  A    between atoms: N_15  and  C_14 
REMARK    7  A    between atoms: N_20  and  C_19 
REMARK       I    between atoms: C_22  and  N_20 
ROOT
ATOM      1  C   LIG d   1      -3.522  77.008 117.503  0.00  0.00     0.161 C 
ATOM      2  C   LIG d   1      -2.503  76.137 117.082  0.00  0.00     0.016 C 
ATOM      3  C   LIG d   1      -2.633  75.262 115.979  0.00  0.00     0.038 C 
ATOM      4  C   LIG d   1      -3.744  75.307 115.125  0.00  0.00     0.028 C 
ATOM      5  C   LIG d   1      -5.012  75.814 115.805  0.00  0.00    -0.047 C 
ATOM      6  C   LIG d   1      -4.700  77.150 116.516  0.00  0.00     0.091 C 
ENDROOT
BRANCH   1   7
ATOM      7  O   LIG d   1      -2.965  78.301 117.809  0.00  0.00    -0.368 OA
BRANCH   7   8
ATOM      8  C   LIG d   1      -1.727  78.637 117.135  0.00  0.00     0.119 C 
BRANCH   8   9
ATOM      9  C   LIG d   1      -1.070  79.788 117.921  0.00  0.00     0.028 C 
ATOM     10  C   LIG d   1       0.462  79.791 117.787  0.00  0.00     0.006 C 
ENDBRANCH   8   9
BRANCH   8  11
ATOM     11  C   LIG d   1      -1.989  79.200 115.735  0.00  0.00     0.028 C 
ATOM     12  C   LIG d   1      -1.142  78.517 114.650  0.00  0.00     0.006 C 
ENDBRANCH   8  11
ENDBRANCH   7   8
ENDBRANCH   1   7
BRANCH   6  13
ATOM     13  N   LIG d   1      -5.864  77.672 117.277  0.00  0.00    -0.311 N 
ATOM     14  C   LIG d   1      -6.215  78.957 117.290  0.00  0.00     0.210 C 
ATOM     15  C   LIG d   1      -7.436  79.285 118.156  0.00  0.00     0.109 C 
ATOM     16  O   LIG d   1      -5.651  79.851 116.641  0.00  0.00    -0.276 OA
ATOM     17  H   LIG d   1      -6.397  77.010 117.807  0.00  0.00     0.149 HD
ENDBRANCH   6  13
BRANCH   5  18
ATOM     18  N   LIG d   1      -6.054  75.940 114.768  0.00  0.00     0.381 N 
ATOM     19  H   LIG d   1      -5.760  75.473 113.934  0.00  0.00    -0.090 HD
ATOM     20  H   LIG d   1      -6.184  76.913 114.555  0.00  0.00    -0.090 HD
ATOM     21  H   LIG d   1      -6.909  75.546 115.094  0.00  0.00    -0.090 HD
ENDBRANCH   5  18
BRANCH   3  22
ATOM     22  C   LIG d   1      -1.661  74.302 115.746  0.00  0.00     0.382 C 
ATOM     23  O   LIG d   1      -1.255  73.579 116.688  0.00  0.00    -0.241 OA
ATOM     24  O   LIG d   1      -1.152  74.179 114.616  0.00  0.00    -0.241 OA
ENDBRANCH   3  22
TORSDOF 7
ENDMDL
MODEL 7
REMARK VINA RESULT:      -4.6      3.269      6.925
REMARK  7 active torsions:
REMARK  status: ('A' for Active; 'I' for Inactive)
REMARK    1  A    between atoms: C_2  and  C_3 
REMARK    2  A    between atoms: C_3  and  O_6 
REMARK    3  A    between atoms: C_3  and  C_4 
REMARK    4  A    between atoms: C_7  and  O_6 
REMARK    5  A    between atoms: C_9  and  C_10 
REMARK    6  A    between atoms: N_15  and  C_14 
REMARK    7  A    between atoms: N_20  and  C_19 
REMARK       I    between atoms: C_22  and  N_20 
ROOT
ATOM      1  C   LIG d   1      -3.099  77.245 117.098  0.00  0.00     0.161 C 
ATOM      2  C   LIG d   1      -2.138  78.174 117.533  0.00  0.00     0.016 C 
ATOM      3  C   LIG d   1      -1.228  78.816 116.663  0.00  0.00     0.038 C 
ATOM      4  C   LIG d   1      -1.317  78.686 115.269  0.00  0.00     0.028 C 
ATOM      5  C   LIG d   1      -1.945  77.370 114.822  0.00  0.00    -0.047 C 
ATOM      6  C   LIG d   1      -3.284  77.175 115.568  0.00  0.00     0.091 C 
ENDROOT
BRANCH   1   7
ATOM      7  O   LIG d   1      -4.360  77.508 117.744  0.00  0.00    -0.368 OA
BRANCH   7   8
ATOM      8  C   LIG d   1      -5.334  78.246 116.965  0.00  0.00     0.119 C 
BRANCH   8   9
ATOM      9  C   LIG d   1      -5.185  79.736 117.328  0.00  0.00     0.028 C 
ATOM     10  C   LIG d   1      -6.529  80.388 117.693  0.00  0.00     0.006 C 
ENDBRANCH   8   9
BRANCH   8  11
ATOM     11  C   LIG d   1      -6.765  77.872 117.363  0.00  0.00     0.028 C 
ATOM     12  C   LIG d   1      -7.248  76.573 116.700  0.00  0.00     0.006 C 
ENDBRANCH   8  11
ENDBRANCH   7   8
ENDBRANCH   1   7
BRANCH   6  13
ATOM     13  N   LIG d   1      -3.924  75.871 115.252  0.00  0.00    -0.311 N 
ATOM     14  C   LIG d   1      -4.759  75.693 114.230  0.00  0.00     0.210 C 
ATOM     15  C   LIG d   1      -5.322  74.274 114.095  0.00  0.00     0.109 C 
ATOM     16  O   LIG d   1      -5.063  76.566 113.404  0.00  0.00    -0.276 OA
ATOM     17  H   LIG d   1      -3.709  75.100 115.853  0.00  0.00     0.149 HD
ENDBRANCH   6  13
BRANCH   5  18
ATOM     18  N   LIG d   1      -2.102  77.426 113.356  0.00  0.00     0.381 N 
ATOM     19  H   LIG d   1      -2.984  77.838 113.126  0.00  0.00    -0.090 HD
ATOM     20  H   LIG d   1      -2.086  76.490 112.992  0.00  0.00    -0.090 HD
ATOM     21  H   LIG d   1      -1.363  77.960 112.954  0.00  0.00    -0.090 HD
ENDBRANCH   5  18
BRANCH   3  22
ATOM     22  C   LIG d   1      -0.189  79.569 117.189  0.00  0.00     0.382 C 
ATOM     23  O   LIG d   1       0.989  79.142 117.125  0.00  0.00    -0.241 OA
ATOM     24  O   LIG d   1      -0.420  80.648 117.767  0.00  0.00    -0.241 OA
ENDBRANCH   3  22
TORSDOF 7
ENDMDL
MODEL 8
REMARK VINA RESULT:      -4.6     11.652     14.400
REMARK  7 active torsions:
REMARK  status: ('A' for Active; 'I' for Inactive)
REMARK    1  A    between atoms: C_2  and  C_3 
REMARK    2  A    between atoms: C_3  and  O_6 
REMARK    3  A    between atoms: C_3  and  C_4 
REMARK    4  A    between atoms: C_7  and  O_6 
REMARK    5  A    between atoms: C_9  and  C_10 
REMARK    6  A    between atoms: N_15  and  C_14 
REMARK    7  A    between atoms: N_20  and  C_19 
REMARK       I    between atoms: C_22  and  N_20 
ROOT
ATOM      1  C   LIG d   1       2.830  85.808 113.374  0.00  0.00     0.161 C 
ATOM      2  C   LIG d   1       2.781  87.087 112.794  0.00  0.00     0.016 C 
ATOM      3  C   LIG d   1       3.258  88.252 113.438  0.00  0.00     0.038 C 
ATOM      4  C   LIG d   1       3.957  88.194 114.653  0.00  0.00     0.028 C 
ATOM      5  C   LIG d   1       3.583  86.990 115.510  0.00  0.00    -0.047 C 
ATOM      6  C   LIG d   1       3.690  85.709 114.651  0.00  0.00     0.091 C 
ENDROOT
BRANCH   1   7
ATOM      7  O   LIG d   1       3.271  84.845 112.397  0.00  0.00    -0.368 OA
BRANCH   7   8
ATOM      8  C   LIG d   1       2.284  83.875 111.967  0.00  0.00     0.119 C 
BRANCH   8   9
ATOM      9  C   LIG d   1       1.019  84.093 112.819  0.00  0.00     0.028 C 
ATOM     10  C   LIG d   1      -0.194  84.511 111.971  0.00  0.00     0.006 C 
ENDBRANCH   8   9
BRANCH   8  11
ATOM     11  C   LIG d   1       2.738  82.445 112.274  0.00  0.00     0.028 C 
ATOM     12  C   LIG d   1       1.714  81.661 113.109  0.00  0.00     0.006 C 
ENDBRANCH   8  11
ENDBRANCH   7   8
ENDBRANCH   1   7
BRANCH   6  13
ATOM     13  N   LIG d   1       3.260  84.493 115.390  0.00  0.00    -0.311 N 
ATOM     14  C   LIG d   1       4.066  83.462 115.637  0.00  0.00     0.210 C 
ATOM     15  C   LIG d   1       3.416  82.301 116.396  0.00  0.00     0.109 C 
ATOM     16  O   LIG d   1       5.266  83.413 115.328  0.00  0.00    -0.276 OA
ATOM     17  H   LIG d   1       2.310  84.463 115.704  0.00  0.00     0.149 HD
ENDBRANCH   6  13
BRANCH   5  18
ATOM     18  N   LIG d   1       4.483  86.978 116.679  0.00  0.00     0.381 N 
ATOM     19  H   LIG d   1       5.433  86.899 116.375  0.00  0.00    -0.090 HD
ATOM     20  H   LIG d   1       4.267  86.178 117.248  0.00  0.00    -0.090 HD
ATOM     21  H   LIG d   1       4.365  87.813 117.209  0.00  0.00    -0.090 HD
ENDBRANCH   5  18
BRANCH   3  22
ATOM     22  C   LIG d   1       3.000  89.497 112.885  0.00  0.00     0.382 C 
ATOM     23  O   LIG d   1       1.901  89.718 112.321  0.00  0.00    -0.241 OA
ATOM     24  O   LIG d   1       3.870  90.389 112.904  0.00  0.00    -0.241 OA
ENDBRANCH   3  22
TORSDOF 7
ENDMDL
MODEL 9
REMARK VINA RESULT:      -4.4     17.149     20.018
REMARK  7 active torsions:
REMARK  status: ('A' for Active; 'I' for Inactive)
REMARK    1  A    between atoms: C_2  and  C_3 
REMARK    2  A    between atoms: C_3  and  O_6 
REMARK    3  A    between atoms: C_3  and  C_4 
REMARK    4  A    between atoms: C_7  and  O_6 
REMARK    5  A    between atoms: C_9  and  C_10 
REMARK    6  A    between atoms: N_15  and  C_14 
REMARK    7  A    between atoms: N_20  and  C_19 
REMARK       I    between atoms: C_22  and  N_20 
ROOT
ATOM      1  C   LIG d   1      12.509  78.552 113.678  0.00  0.00     0.161 C 
ATOM      2  C   LIG d   1      11.146  78.546 114.017  0.00  0.00     0.016 C 
ATOM      3  C   LIG d   1      10.505  77.453 114.645  0.00  0.00     0.038 C 
ATOM      4  C   LIG d   1      11.223  76.343 115.116  0.00  0.00     0.028 C 
ATOM      5  C   LIG d   1      12.514  76.086 114.345  0.00  0.00    -0.047 C 
ATOM      6  C   LIG d   1      13.332  77.396 114.284  0.00  0.00     0.091 C 
ENDROOT
BRANCH   1   7
ATOM      7  O   LIG d   1      13.094  79.822 114.030  0.00  0.00    -0.368 OA
BRANCH   7   8
ATOM      8  C   LIG d   1      13.679  79.909 115.353  0.00  0.00     0.119 C 
BRANCH   8   9
ATOM      9  C   LIG d   1      12.845  80.922 116.161  0.00  0.00     0.028 C 
ATOM     10  C   LIG d   1      11.959  80.242 117.218  0.00  0.00     0.006 C 
ENDBRANCH   8   9
BRANCH   8  11
ATOM     11  C   LIG d   1      15.092  80.497 115.300  0.00  0.00     0.028 C 
ATOM     12  C   LIG d   1      15.567  80.778 113.865  0.00  0.00     0.006 C 
ENDBRANCH   8  11
ENDBRANCH   7   8
ENDBRANCH   1   7
BRANCH   6  13
ATOM     13  N   LIG d   1      14.570  77.253 113.475  0.00  0.00    -0.311 N 
ATOM     14  C   LIG d   1      15.768  77.009 114.005  0.00  0.00     0.210 C 
ATOM     15  C   LIG d   1      16.916  76.919 112.995  0.00  0.00     0.109 C 
ATOM     16  O   LIG d   1      15.983  76.827 115.213  0.00  0.00    -0.276 OA
ATOM     17  H   LIG d   1      14.482  77.356 112.483  0.00  0.00     0.149 HD
ENDBRANCH   6  13
BRANCH   5  18
ATOM     18  N   LIG d   1      13.228  74.989 115.026  0.00  0.00     0.381 N 
ATOM     19  H   LIG d   1      13.470  75.269 115.956  0.00  0.00    -0.090 HD
ATOM     20  H   LIG d   1      14.077  74.794 114.525  0.00  0.00    -0.090 HD
ATOM     21  H   LIG d   1      12.655  74.175 115.055  0.00  0.00    -0.090 HD
ENDBRANCH   5  18
BRANCH   3  22
ATOM     22  C   LIG d   1       9.124  77.446 114.771  0.00  0.00     0.382 C 
ATOM     23  O   LIG d   1       8.466  76.444 114.400  0.00  0.00    -0.241 OA
ATOM     24  O   LIG d   1       8.525  78.445 115.211  0.00  0.00    -0.241 OA
ENDBRANCH   3  22
TORSDOF 7
ENDMDL
