MODEL 1
REMARK VINA RESULT:      -5.3      0.000      0.000
REMARK  7 active torsions:
REMARK  status: ('A' for Active; 'I' for Inactive)
REMARK    1  A    between atoms: C_2  and  C_3 
REMARK    2  A    between atoms: C_3  and  O_6 
REMARK    3  A    between atoms: C_3  and  C_4 
REMARK    4  A    between atoms: C_7  and  O_6 
REMARK    5  A    between atoms: C_9  and  C_10 
REMARK    6  A    between atoms: N_15  and  C_14 
REMARK    7  A    between atoms: N_20  and  C_19 
REMARK       I    between atoms: C_22  and  N_20 
ROOT
ATOM      1  C   LIG d   1     -16.110  66.172 114.523  0.00  0.00     0.161 C 
ATOM      2  C   LIG d   1     -15.429  66.976 113.593  0.00  0.00     0.016 C 
ATOM      3  C   LIG d   1     -14.837  68.217 113.923  0.00  0.00     0.038 C 
ATOM      4  C   LIG d   1     -14.754  68.670 115.248  0.00  0.00     0.028 C 
ATOM      5  C   LIG d   1     -15.868  68.135 116.142  0.00  0.00    -0.047 C 
ATOM      6  C   LIG d   1     -15.934  66.597 115.996  0.00  0.00     0.091 C 
ENDROOT
BRANCH   1   7
ATOM      7  O   LIG d   1     -15.727  64.794 114.350  0.00  0.00    -0.368 OA
BRANCH   7   8
ATOM      8  C   LIG d   1     -16.668  63.955 113.636  0.00  0.00     0.119 C 
BRANCH   8   9
ATOM      9  C   LIG d   1     -17.725  64.882 113.002  0.00  0.00     0.028 C 
ATOM     10  C   LIG d   1     -19.155  64.529 113.444  0.00  0.00     0.006 C 
ENDBRANCH   8   9
BRANCH   8  11
ATOM     11  C   LIG d   1     -17.447  63.050 114.595  0.00  0.00     0.028 C 
ATOM     12  C   LIG d   1     -17.433  61.575 114.164  0.00  0.00     0.006 C 
ENDBRANCH   8  11
ENDBRANCH   7   8
ENDBRANCH   1   7
BRANCH   6  13
ATOM     13  N   LIG d   1     -17.052  66.001 116.772  0.00  0.00    -0.311 N 
ATOM     14  C   LIG d   1     -16.902  64.968 117.599  0.00  0.00     0.210 C 
ATOM     15  C   LIG d   1     -18.187  64.497 118.286  0.00  0.00     0.109 C 
ATOM     16  O   LIG d   1     -15.820  64.418 117.854  0.00  0.00    -0.276 OA
ATOM     17  H   LIG d   1     -17.959  66.406 116.649  0.00  0.00     0.149 HD
ENDBRANCH   6  13
BRANCH   5  18
ATOM     18  N   LIG d   1     -15.583  68.573 117.521  0.00  0.00     0.381 N 
ATOM     19  H   LIG d   1     -14.740  69.112 117.537  0.00  0.00    -0.090 HD
ATOM     20  H   LIG d   1     -15.449  67.762 118.099  0.00  0.00    -0.090 HD
ATOM     21  H   LIG d   1     -16.341  69.117 117.870  0.00  0.00    -0.090 HD
ENDBRANCH   5  18
BRANCH   3  22
ATOM     22  C   LIG d   1     -14.354  69.037 112.915  0.00  0.00     0.382 C 
ATOM     23  O   LIG d   1     -13.367  69.781 113.131  0.00  0.00    -0.241 OA
ATOM     24  O   LIG d   1     -14.920  69.076 111.807  0.00  0.00    -0.241 OA
ENDBRANCH   3  22
TORSDOF 7
ENDMDL
MODEL 2
REMARK VINA RESULT:      -5.1     24.930     27.956
REMARK  7 active torsions:
REMARK  status: ('A' for Active; 'I' for Inactive)
REMARK    1  A    between atoms: C_2  and  C_3 
REMARK    2  A    between atoms: C_3  and  O_6 
REMARK    3  A    between atoms: C_3  and  C_4 
REMARK    4  A    between atoms: C_7  and  O_6 
REMARK    5  A    between atoms: C_9  and  C_10 
REMARK    6  A    between atoms: N_15  and  C_14 
REMARK    7  A    between atoms: N_20  and  C_19 
REMARK       I    between atoms: C_22  and  N_20 
ROOT
ATOM      1  C   LIG d   1       4.363  85.867 115.238  0.00  0.00     0.161 C 
ATOM      2  C   LIG d   1       4.695  87.131 114.723  0.00  0.00     0.016 C 
ATOM      3  C   LIG d   1       4.625  87.455 113.349  0.00  0.00     0.038 C 
ATOM      4  C   LIG d   1       4.069  86.576 112.408  0.00  0.00     0.028 C 
ATOM      5  C   LIG d   1       4.191  85.108 112.804  0.00  0.00    -0.047 C 
ATOM      6  C   LIG d   1       3.650  84.930 114.241  0.00  0.00     0.091 C 
ENDROOT
BRANCH   1   7
ATOM      7  O   LIG d   1       3.575  86.018 116.435  0.00  0.00    -0.368 OA
BRANCH   7   8
ATOM      8  C   LIG d   1       2.139  85.916 116.270  0.00  0.00     0.119 C 
BRANCH   8   9
ATOM      9  C   LIG d   1       1.587  87.347 116.124  0.00  0.00     0.028 C 
ATOM     10  C   LIG d   1       1.984  88.253 117.302  0.00  0.00     0.006 C 
ENDBRANCH   8   9
BRANCH   8  11
ATOM     11  C   LIG d   1       1.473  85.351 117.528  0.00  0.00     0.028 C 
ATOM     12  C   LIG d   1       1.838  83.881 117.787  0.00  0.00     0.006 C 
ENDBRANCH   8  11
ENDBRANCH   7   8
ENDBRANCH   1   7
BRANCH   6  13
ATOM     13  N   LIG d   1       3.809  83.539 114.738  0.00  0.00    -0.311 N 
ATOM     14  C   LIG d   1       2.890  82.590 114.569  0.00  0.00     0.210 C 
ATOM     15  C   LIG d   1       3.245  81.230 115.178  0.00  0.00     0.109 C 
ATOM     16  O   LIG d   1       1.828  82.737 113.945  0.00  0.00    -0.276 OA
ATOM     17  H   LIG d   1       4.655  83.324 115.229  0.00  0.00     0.149 HD
ENDBRANCH   6  13
BRANCH   5  18
ATOM     18  N   LIG d   1       3.452  84.314 111.805  0.00  0.00     0.381 N 
ATOM     19  H   LIG d   1       2.779  84.892 111.342  0.00  0.00    -0.090 HD
ATOM     20  H   LIG d   1       2.960  83.575 112.276  0.00  0.00    -0.090 HD
ATOM     21  H   LIG d   1       4.085  83.929 111.139  0.00  0.00    -0.090 HD
ENDBRANCH   5  18
BRANCH   3  22
ATOM     22  C   LIG d   1       5.150  88.656 112.898  0.00  0.00     0.382 C 
ATOM     23  O   LIG d   1       6.369  88.739 112.612  0.00  0.00    -0.241 OA
ATOM     24  O   LIG d   1       4.431  89.670 112.816  0.00  0.00    -0.241 OA
ENDBRANCH   3  22
TORSDOF 7
ENDMDL
MODEL 3
REMARK VINA RESULT:      -5.0     25.233     27.508
REMARK  7 active torsions:
REMARK  status: ('A' for Active; 'I' for Inactive)
REMARK    1  A    between atoms: C_2  and  C_3 
REMARK    2  A    between atoms: C_3  and  O_6 
REMARK    3  A    between atoms: C_3  and  C_4 
REMARK    4  A    between atoms: C_7  and  O_6 
REMARK    5  A    between atoms: C_9  and  C_10 
REMARK    6  A    between atoms: N_15  and  C_14 
REMARK    7  A    between atoms: N_20  and  C_19 
REMARK       I    between atoms: C_22  and  N_20 
ROOT
ATOM      1  C   LIG d   1       3.797  84.800 113.676  0.00  0.00     0.161 C 
ATOM      2  C   LIG d   1       3.665  86.010 112.976  0.00  0.00     0.016 C 
ATOM      3  C   LIG d   1       3.990  87.270 113.530  0.00  0.00     0.038 C 
ATOM      4  C   LIG d   1       4.616  87.391 114.780  0.00  0.00     0.028 C 
ATOM      5  C   LIG d   1       4.304  86.237 115.727  0.00  0.00    -0.047 C 
ATOM      6  C   LIG d   1       4.583  84.902 115.001  0.00  0.00     0.091 C 
ENDROOT
BRANCH   1   7
ATOM      7  O   LIG d   1       4.386  83.801 112.820  0.00  0.00    -0.368 OA
BRANCH   7   8
ATOM      8  C   LIG d   1       3.459  82.985 112.062  0.00  0.00     0.119 C 
BRANCH   8   9
ATOM      9  C   LIG d   1       2.137  82.932 112.851  0.00  0.00     0.028 C 
ATOM     10  C   LIG d   1       0.906  83.097 111.944  0.00  0.00     0.006 C 
ENDBRANCH   8   9
BRANCH   8  11
ATOM     11  C   LIG d   1       3.938  81.533 111.975  0.00  0.00     0.028 C 
ATOM     12  C   LIG d   1       4.240  80.922 113.353  0.00  0.00     0.006 C 
ENDBRANCH   8  11
ENDBRANCH   7   8
ENDBRANCH   1   7
BRANCH   6  13
ATOM     13  N   LIG d   1       4.224  83.721 115.828  0.00  0.00    -0.311 N 
ATOM     14  C   LIG d   1       5.122  82.866 116.314  0.00  0.00     0.210 C 
ATOM     15  C   LIG d   1       4.537  81.705 117.126  0.00  0.00     0.109 C 
ATOM     16  O   LIG d   1       6.350  82.976 116.178  0.00  0.00    -0.276 OA
ATOM     17  H   LIG d   1       3.251  83.573 116.015  0.00  0.00     0.149 HD
ENDBRANCH   6  13
BRANCH   5  18
ATOM     18  N   LIG d   1       5.128  86.420 116.937  0.00  0.00     0.381 N 
ATOM     19  H   LIG d   1       5.005  85.640 117.551  0.00  0.00    -0.090 HD
ATOM     20  H   LIG d   1       4.823  87.249 117.416  0.00  0.00    -0.090 HD
ATOM     21  H   LIG d   1       6.088  86.507 116.686  0.00  0.00    -0.090 HD
ENDBRANCH   5  18
BRANCH   3  22
ATOM     22  C   LIG d   1       3.652  88.429 112.848  0.00  0.00     0.382 C 
ATOM     23  O   LIG d   1       2.657  88.439 112.084  0.00  0.00    -0.241 OA
ATOM     24  O   LIG d   1       4.355  89.452 112.953  0.00  0.00    -0.241 OA
ENDBRANCH   3  22
TORSDOF 7
ENDMDL
MODEL 4
REMARK VINA RESULT:      -4.9      2.478      3.930
REMARK  7 active torsions:
REMARK  status: ('A' for Active; 'I' for Inactive)
REMARK    1  A    between atoms: C_2  and  C_3 
REMARK    2  A    between atoms: C_3  and  O_6 
REMARK    3  A    between atoms: C_3  and  C_4 
REMARK    4  A    between atoms: C_7  and  O_6 
REMARK    5  A    between atoms: C_9  and  C_10 
REMARK    6  A    between atoms: N_15  and  C_14 
REMARK    7  A    between atoms: N_20  and  C_19 
REMARK       I    between atoms: C_22  and  N_20 
ROOT
ATOM      1  C   LIG d   1     -16.508  65.193 116.557  0.00  0.00     0.161 C 
ATOM      2  C   LIG d   1     -15.931  66.438 116.857  0.00  0.00     0.016 C 
ATOM      3  C   LIG d   1     -15.518  67.363 115.870  0.00  0.00     0.038 C 
ATOM      4  C   LIG d   1     -15.795  67.167 114.509  0.00  0.00     0.028 C 
ATOM      5  C   LIG d   1     -15.922  65.698 114.122  0.00  0.00    -0.047 C 
ATOM      6  C   LIG d   1     -16.920  65.010 115.081  0.00  0.00     0.091 C 
ENDROOT
BRANCH   1   7
ATOM      7  O   LIG d   1     -17.634  64.955 117.424  0.00  0.00    -0.368 OA
BRANCH   7   8
ATOM      8  C   LIG d   1     -18.944  65.158 116.839  0.00  0.00     0.119 C 
BRANCH   8   9
ATOM      9  C   LIG d   1     -19.475  66.511 117.352  0.00  0.00     0.028 C 
ATOM     10  C   LIG d   1     -19.741  67.507 116.211  0.00  0.00     0.006 C 
ENDBRANCH   8   9
BRANCH   8  11
ATOM     11  C   LIG d   1     -19.946  64.114 117.339  0.00  0.00     0.028 C 
ATOM     12  C   LIG d   1     -19.313  62.727 117.535  0.00  0.00     0.006 C 
ENDBRANCH   8  11
ENDBRANCH   7   8
ENDBRANCH   1   7
BRANCH   6  13
ATOM     13  N   LIG d   1     -17.038  63.551 114.825  0.00  0.00    -0.311 N 
ATOM     14  C   LIG d   1     -17.968  63.019 114.034  0.00  0.00     0.210 C 
ATOM     15  C   LIG d   1     -17.926  61.491 113.923  0.00  0.00     0.109 C 
ATOM     16  O   LIG d   1     -18.804  63.669 113.388  0.00  0.00    -0.276 OA
ATOM     17  H   LIG d   1     -16.381  62.952 115.285  0.00  0.00     0.149 HD
ENDBRANCH   6  13
BRANCH   5  18
ATOM     18  N   LIG d   1     -16.346  65.644 112.710  0.00  0.00     0.381 N 
ATOM     19  H   LIG d   1     -16.093  66.494 112.247  0.00  0.00    -0.090 HD
ATOM     20  H   LIG d   1     -17.346  65.551 112.675  0.00  0.00    -0.090 HD
ATOM     21  H   LIG d   1     -15.918  64.868 112.254  0.00  0.00    -0.090 HD
ENDBRANCH   5  18
BRANCH   3  22
ATOM     22  C   LIG d   1     -14.785  68.480 116.239  0.00  0.00     0.382 C 
ATOM     23  O   LIG d   1     -15.370  69.563 116.481  0.00  0.00    -0.241 OA
ATOM     24  O   LIG d   1     -13.541  68.431 116.290  0.00  0.00    -0.241 OA
ENDBRANCH   3  22
TORSDOF 7
ENDMDL
MODEL 5
REMARK VINA RESULT:      -4.8     26.979     29.743
REMARK  7 active torsions:
REMARK  status: ('A' for Active; 'I' for Inactive)
REMARK    1  A    between atoms: C_2  and  C_3 
REMARK    2  A    between atoms: C_3  and  O_6 
REMARK    3  A    between atoms: C_3  and  C_4 
REMARK    4  A    between atoms: C_7  and  O_6 
REMARK    5  A    between atoms: C_9  and  C_10 
REMARK    6  A    between atoms: N_15  and  C_14 
REMARK    7  A    between atoms: N_20  and  C_19 
REMARK       I    between atoms: C_22  and  N_20 
ROOT
ATOM      1  C   LIG d   1      10.929  78.030 114.741  0.00  0.00     0.161 C 
ATOM      2  C   LIG d   1      11.303  79.213 114.083  0.00  0.00     0.016 C 
ATOM      3  C   LIG d   1      12.511  79.355 113.362  0.00  0.00     0.038 C 
ATOM      4  C   LIG d   1      13.363  78.267 113.122  0.00  0.00     0.028 C 
ATOM      5  C   LIG d   1      13.276  77.182 114.191  0.00  0.00    -0.047 C 
ATOM      6  C   LIG d   1      11.793  76.798 114.397  0.00  0.00     0.091 C 
ENDROOT
BRANCH   1   7
ATOM      7  O   LIG d   1       9.537  77.750 114.492  0.00  0.00    -0.368 OA
BRANCH   7   8
ATOM      8  C   LIG d   1       8.586  78.460 115.324  0.00  0.00     0.119 C 
BRANCH   8   9
ATOM      9  C   LIG d   1       8.984  78.216 116.793  0.00  0.00     0.028 C 
ATOM     10  C   LIG d   1       9.290  79.524 117.543  0.00  0.00     0.006 C 
ENDBRANCH   8   9
BRANCH   8  11
ATOM     11  C   LIG d   1       7.178  77.875 115.183  0.00  0.00     0.028 C 
ATOM     12  C   LIG d   1       6.112  78.706 115.913  0.00  0.00     0.006 C 
ENDBRANCH   8  11
ENDBRANCH   7   8
ENDBRANCH   1   7
BRANCH   6  13
ATOM     13  N   LIG d   1      11.612  75.803 115.486  0.00  0.00    -0.311 N 
ATOM     14  C   LIG d   1      10.794  74.756 115.394  0.00  0.00     0.210 C 
ATOM     15  C   LIG d   1      10.741  73.865 116.639  0.00  0.00     0.109 C 
ATOM     16  O   LIG d   1      10.132  74.463 114.387  0.00  0.00    -0.276 OA
ATOM     17  H   LIG d   1      12.135  75.947 116.328  0.00  0.00     0.149 HD
ENDBRANCH   6  13
BRANCH   5  18
ATOM     18  N   LIG d   1      14.110  76.050 113.745  0.00  0.00     0.381 N 
ATOM     19  H   LIG d   1      14.881  75.931 114.371  0.00  0.00    -0.090 HD
ATOM     20  H   LIG d   1      14.474  76.254 112.831  0.00  0.00    -0.090 HD
ATOM     21  H   LIG d   1      13.565  75.216 113.715  0.00  0.00    -0.090 HD
ENDBRANCH   5  18
BRANCH   3  22
ATOM     22  C   LIG d   1      12.896  80.606 112.906  0.00  0.00     0.382 C 
ATOM     23  O   LIG d   1      12.243  81.170 111.995  0.00  0.00    -0.241 OA
ATOM     24  O   LIG d   1      13.914  81.159 113.363  0.00  0.00    -0.241 OA
ENDBRANCH   3  22
TORSDOF 7
ENDMDL
MODEL 6
REMARK VINA RESULT:      -4.8     27.650     30.753
REMARK  7 active torsions:
REMARK  status: ('A' for Active; 'I' for Inactive)
REMARK    1  A    between atoms: C_2  and  C_3 
REMARK    2  A    between atoms: C_3  and  O_6 
REMARK    3  A    between atoms: C_3  and  C_4 
REMARK    4  A    between atoms: C_7  and  O_6 
REMARK    5  A    between atoms: C_9  and  C_10 
REMARK    6  A    between atoms: N_15  and  C_14 
REMARK    7  A    between atoms: N_20  and  C_19 
REMARK       I    between atoms: C_22  and  N_20 
ROOT
ATOM      1  C   LIG d   1      11.043  78.913 113.796  0.00  0.00     0.161 C 
ATOM      2  C   LIG d   1       9.796  78.946 114.442  0.00  0.00     0.016 C 
ATOM      3  C   LIG d   1       9.263  77.852 115.162  0.00  0.00     0.038 C 
ATOM      4  C   LIG d   1      10.013  76.693 115.412  0.00  0.00     0.028 C 
ATOM      5  C   LIG d   1      11.077  76.420 114.354  0.00  0.00    -0.047 C 
ATOM      6  C   LIG d   1      11.923  77.697 114.151  0.00  0.00     0.091 C 
ENDROOT
BRANCH   1   7
ATOM      7  O   LIG d   1      11.757  80.139 114.048  0.00  0.00    -0.368 OA
BRANCH   7   8
ATOM      8  C   LIG d   1      12.351  80.272 115.362  0.00  0.00     0.119 C 
BRANCH   8   9
ATOM      9  C   LIG d   1      11.812  81.575 115.984  0.00  0.00     0.028 C 
ATOM     10  C   LIG d   1      10.788  81.312 117.102  0.00  0.00     0.006 C 
ENDBRANCH   8   9
BRANCH   8  11
ATOM     11  C   LIG d   1      13.868  80.464 115.271  0.00  0.00     0.028 C 
ATOM     12  C   LIG d   1      14.348  80.747 113.839  0.00  0.00     0.006 C 
ENDBRANCH   8  11
ENDBRANCH   7   8
ENDBRANCH   1   7
BRANCH   6  13
ATOM     13  N   LIG d   1      12.933  77.542 113.072  0.00  0.00    -0.311 N 
ATOM     14  C   LIG d   1      14.202  77.207 113.298  0.00  0.00     0.210 C 
ATOM     15  C   LIG d   1      15.081  77.121 112.046  0.00  0.00     0.109 C 
ATOM     16  O   LIG d   1      14.676  76.941 114.413  0.00  0.00    -0.276 OA
ATOM     17  H   LIG d   1      12.627  77.709 112.133  0.00  0.00     0.149 HD
ENDBRANCH   6  13
BRANCH   5  18
ATOM     18  N   LIG d   1      11.872  75.264 114.810  0.00  0.00     0.381 N 
ATOM     19  H   LIG d   1      11.489  74.420 114.435  0.00  0.00    -0.090 HD
ATOM     20  H   LIG d   1      11.827  75.214 115.812  0.00  0.00    -0.090 HD
ATOM     21  H   LIG d   1      12.819  75.366 114.517  0.00  0.00    -0.090 HD
ENDBRANCH   5  18
BRANCH   3  22
ATOM     22  C   LIG d   1       7.950  77.895 115.606  0.00  0.00     0.382 C 
ATOM     23  O   LIG d   1       7.694  78.297 116.766  0.00  0.00    -0.241 OA
ATOM     24  O   LIG d   1       7.023  77.495 114.876  0.00  0.00    -0.241 OA
ENDBRANCH   3  22
TORSDOF 7
ENDMDL
MODEL 7
REMARK VINA RESULT:      -4.7     27.324     30.318
REMARK  7 active torsions:
REMARK  status: ('A' for Active; 'I' for Inactive)
REMARK    1  A    between atoms: C_2  and  C_3 
REMARK    2  A    between atoms: C_3  and  O_6 
REMARK    3  A    between atoms: C_3  and  C_4 
REMARK    4  A    between atoms: C_7  and  O_6 
REMARK    5  A    between atoms: C_9  and  C_10 
REMARK    6  A    between atoms: N_15  and  C_14 
REMARK    7  A    between atoms: N_20  and  C_19 
REMARK       I    between atoms: C_22  and  N_20 
ROOT
ATOM      1  C   LIG d   1      11.063  79.089 114.824  0.00  0.00     0.161 C 
ATOM      2  C   LIG d   1      10.771  77.790 114.377  0.00  0.00     0.016 C 
ATOM      3  C   LIG d   1       9.671  77.034 114.845  0.00  0.00     0.038 C 
ATOM      4  C   LIG d   1       8.695  77.589 115.686  0.00  0.00     0.028 C 
ATOM      5  C   LIG d   1       9.220  78.726 116.557  0.00  0.00    -0.047 C 
ATOM      6  C   LIG d   1       9.946  79.752 115.658  0.00  0.00     0.091 C 
ENDROOT
BRANCH   1   7
ATOM      7  O   LIG d   1      11.413  79.924 113.703  0.00  0.00    -0.368 OA
BRANCH   7   8
ATOM      8  C   LIG d   1      12.810  80.296 113.597  0.00  0.00     0.119 C 
BRANCH   8   9
ATOM      9  C   LIG d   1      13.329  79.766 112.246  0.00  0.00     0.028 C 
ATOM     10  C   LIG d   1      13.942  78.360 112.363  0.00  0.00     0.006 C 
ENDBRANCH   8   9
BRANCH   8  11
ATOM     11  C   LIG d   1      13.656  79.591 114.661  0.00  0.00     0.028 C 
ATOM     12  C   LIG d   1      14.258  80.566 115.685  0.00  0.00     0.006 C 
ENDBRANCH   8  11
ENDBRANCH   7   8
ENDBRANCH   1   7
BRANCH   6  13
ATOM     13  N   LIG d   1      10.564  80.855 116.440  0.00  0.00    -0.311 N 
ATOM     14  C   LIG d   1       9.968  82.027 116.652  0.00  0.00     0.210 C 
ATOM     15  C   LIG d   1      10.788  83.031 117.468  0.00  0.00     0.109 C 
ATOM     16  O   LIG d   1       8.825  82.318 116.270  0.00  0.00    -0.276 OA
ATOM     17  H   LIG d   1      11.478  80.692 116.814  0.00  0.00     0.149 HD
ENDBRANCH   6  13
BRANCH   5  18
ATOM     18  N   LIG d   1       8.071  79.301 117.280  0.00  0.00     0.381 N 
ATOM     19  H   LIG d   1       7.348  78.615 117.368  0.00  0.00    -0.090 HD
ATOM     20  H   LIG d   1       7.709  80.075 116.752  0.00  0.00    -0.090 HD
ATOM     21  H   LIG d   1       8.356  79.611 118.183  0.00  0.00    -0.090 HD
ENDBRANCH   5  18
BRANCH   3  22
ATOM     22  C   LIG d   1       9.562  75.695 114.503  0.00  0.00     0.382 C 
ATOM     23  O   LIG d   1      10.554  74.936 114.616  0.00  0.00    -0.241 OA
ATOM     24  O   LIG d   1       8.495  75.246 114.042  0.00  0.00    -0.241 OA
ENDBRANCH   3  22
TORSDOF 7
ENDMDL
MODEL 8
REMARK VINA RESULT:      -4.7     27.441     29.483
REMARK  7 active torsions:
REMARK  status: ('A' for Active; 'I' for Inactive)
REMARK    1  A    between atoms: C_2  and  C_3 
REMARK    2  A    between atoms: C_3  and  O_6 
REMARK    3  A    between atoms: C_3  and  C_4 
REMARK    4  A    between atoms: C_7  and  O_6 
REMARK    5  A    between atoms: C_9  and  C_10 
REMARK    6  A    between atoms: N_15  and  C_14 
REMARK    7  A    between atoms: N_20  and  C_19 
REMARK       I    between atoms: C_22  and  N_20 
ROOT
ATOM      1  C   LIG d   1      10.997  76.099 115.046  0.00  0.00     0.161 C 
ATOM      2  C   LIG d   1       9.683  76.595 115.039  0.00  0.00     0.016 C 
ATOM      3  C   LIG d   1       9.350  77.911 114.644  0.00  0.00     0.038 C 
ATOM      4  C   LIG d   1      10.298  78.779 114.083  0.00  0.00     0.028 C 
ATOM      5  C   LIG d   1      11.724  78.496 114.541  0.00  0.00    -0.047 C 
ATOM      6  C   LIG d   1      12.030  76.996 114.331  0.00  0.00     0.091 C 
ENDROOT
BRANCH   1   7
ATOM      7  O   LIG d   1      11.021  74.769 114.492  0.00  0.00    -0.368 OA
BRANCH   7   8
ATOM      8  C   LIG d   1      10.849  73.683 115.436  0.00  0.00     0.119 C 
BRANCH   8   9
ATOM      9  C   LIG d   1      11.626  74.053 116.714  0.00  0.00     0.028 C 
ATOM     10  C   LIG d   1      10.853  73.696 117.995  0.00  0.00     0.006 C 
ENDBRANCH   8   9
BRANCH   8  11
ATOM     11  C   LIG d   1      11.498  72.393 114.926  0.00  0.00     0.028 C 
ATOM     12  C   LIG d   1      10.669  71.140 115.249  0.00  0.00     0.006 C 
ENDBRANCH   8  11
ENDBRANCH   7   8
ENDBRANCH   1   7
BRANCH   6  13
ATOM     13  N   LIG d   1      13.377  76.617 114.832  0.00  0.00    -0.311 N 
ATOM     14  C   LIG d   1      14.461  76.570 114.058  0.00  0.00     0.210 C 
ATOM     15  C   LIG d   1      15.746  76.136 114.770  0.00  0.00     0.109 C 
ATOM     16  O   LIG d   1      14.486  76.879 112.857  0.00  0.00    -0.276 OA
ATOM     17  H   LIG d   1      13.454  76.381 115.802  0.00  0.00     0.149 HD
ENDBRANCH   6  13
BRANCH   5  18
ATOM     18  N   LIG d   1      12.622  79.382 113.775  0.00  0.00     0.381 N 
ATOM     19  H   LIG d   1      12.334  80.334 113.885  0.00  0.00    -0.090 HD
ATOM     20  H   LIG d   1      12.560  79.144 112.801  0.00  0.00    -0.090 HD
ATOM     21  H   LIG d   1      13.560  79.273 114.092  0.00  0.00    -0.090 HD
ENDBRANCH   5  18
BRANCH   3  22
ATOM     22  C   LIG d   1       8.062  78.384 114.848  0.00  0.00     0.382 C 
ATOM     23  O   LIG d   1       7.876  79.591 115.136  0.00  0.00    -0.241 OA
ATOM     24  O   LIG d   1       7.088  77.610 114.791  0.00  0.00    -0.241 OA
ENDBRANCH   3  22
TORSDOF 7
ENDMDL
MODEL 9
REMARK VINA RESULT:      -4.6     27.732     30.747
REMARK  7 active torsions:
REMARK  status: ('A' for Active; 'I' for Inactive)
REMARK    1  A    between atoms: C_2  and  C_3 
REMARK    2  A    between atoms: C_3  and  O_6 
REMARK    3  A    between atoms: C_3  and  C_4 
REMARK    4  A    between atoms: C_7  and  O_6 
REMARK    5  A    between atoms: C_9  and  C_10 
REMARK    6  A    between atoms: N_15  and  C_14 
REMARK    7  A    between atoms: N_20  and  C_19 
REMARK       I    between atoms: C_22  and  N_20 
ROOT
ATOM      1  C   LIG d   1      12.216  77.832 115.545  0.00  0.00     0.161 C 
ATOM      2  C   LIG d   1      11.620  76.664 115.041  0.00  0.00     0.016 C 
ATOM      3  C   LIG d   1      10.229  76.530 114.828  0.00  0.00     0.038 C 
ATOM      4  C   LIG d   1       9.350  77.615 114.964  0.00  0.00     0.028 C 
ATOM      5  C   LIG d   1       9.836  78.668 115.954  0.00  0.00    -0.047 C 
ATOM      6  C   LIG d   1      11.287  79.063 115.594  0.00  0.00     0.091 C 
ENDROOT
BRANCH   1   7
ATOM      7  O   LIG d   1      13.409  78.135 114.795  0.00  0.00    -0.368 OA
BRANCH   7   8
ATOM      8  C   LIG d   1      13.468  77.603 113.449  0.00  0.00     0.119 C 
BRANCH   8   9
ATOM      9  C   LIG d   1      14.905  77.098 113.213  0.00  0.00     0.028 C 
ATOM     10  C   LIG d   1      15.173  75.748 113.898  0.00  0.00     0.006 C 
ENDBRANCH   8   9
BRANCH   8  11
ATOM     11  C   LIG d   1      13.248  78.702 112.406  0.00  0.00     0.028 C 
ATOM     12  C   LIG d   1      13.629  80.098 112.922  0.00  0.00     0.006 C 
ENDBRANCH   8  11
ENDBRANCH   7   8
ENDBRANCH   1   7
BRANCH   6  13
ATOM     13  N   LIG d   1      11.869  80.027 116.564  0.00  0.00    -0.311 N 
ATOM     14  C   LIG d   1      11.877  81.345 116.372  0.00  0.00     0.210 C 
ATOM     15  C   LIG d   1      12.545  82.157 117.486  0.00  0.00     0.109 C 
ATOM     16  O   LIG d   1      11.366  81.921 115.400  0.00  0.00    -0.276 OA
ATOM     17  H   LIG d   1      12.277  79.647 117.396  0.00  0.00     0.149 HD
ENDBRANCH   6  13
BRANCH   5  18
ATOM     18  N   LIG d   1       8.896  79.803 115.895  0.00  0.00     0.381 N 
ATOM     19  H   LIG d   1       9.328  80.577 115.431  0.00  0.00    -0.090 HD
ATOM     20  H   LIG d   1       8.668  80.085 116.832  0.00  0.00    -0.090 HD
ATOM     21  H   LIG d   1       8.068  79.535 115.409  0.00  0.00    -0.090 HD
ENDBRANCH   5  18
BRANCH   3  22
ATOM     22  C   LIG d   1       9.698  75.288 114.513  0.00  0.00     0.382 C 
ATOM     23  O   LIG d   1       8.532  75.201 114.059  0.00  0.00    -0.241 OA
ATOM     24  O   LIG d   1      10.355  74.250 114.718  0.00  0.00    -0.241 OA
ENDBRANCH   3  22
TORSDOF 7
ENDMDL
