MODEL 1
REMARK VINA RESULT:      -5.9      0.000      0.000
REMARK  7 active torsions:
REMARK  status: ('A' for Active; 'I' for Inactive)
REMARK    1  A    between atoms: C_2  and  C_3 
REMARK    2  A    between atoms: C_3  and  O_6 
REMARK    3  A    between atoms: C_3  and  C_4 
REMARK    4  A    between atoms: C_7  and  O_6 
REMARK    5  A    between atoms: C_9  and  C_10 
REMARK    6  A    between atoms: N_15  and  C_14 
REMARK    7  A    between atoms: N_20  and  C_19 
REMARK       I    between atoms: C_22  and  N_20 
ROOT
ATOM      1  C   LIG d   1      -6.686  77.077 117.177  0.00  0.00     0.161 C 
ATOM      2  C   LIG d   1      -8.029  77.404 117.426  0.00  0.00     0.016 C 
ATOM      3  C   LIG d   1      -8.459  78.697 117.802  0.00  0.00     0.038 C 
ATOM      4  C   LIG d   1      -7.586  79.796 117.807  0.00  0.00     0.028 C 
ATOM      5  C   LIG d   1      -6.131  79.412 118.053  0.00  0.00    -0.047 C 
ATOM      6  C   LIG d   1      -5.735  78.288 117.069  0.00  0.00     0.091 C 
ENDROOT
BRANCH   1   7
ATOM      7  O   LIG d   1      -6.593  76.260 115.993  0.00  0.00    -0.368 OA
BRANCH   7   8
ATOM      8  C   LIG d   1      -6.104  74.910 116.186  0.00  0.00     0.119 C 
BRANCH   8   9
ATOM      9  C   LIG d   1      -5.690  74.366 114.805  0.00  0.00     0.028 C 
ATOM     10  C   LIG d   1      -5.212  75.477 113.855  0.00  0.00     0.006 C 
ENDBRANCH   8   9
BRANCH   8  11
ATOM     11  C   LIG d   1      -7.217  73.978 116.673  0.00  0.00     0.028 C 
ATOM     12  C   LIG d   1      -6.965  72.507 116.306  0.00  0.00     0.006 C 
ENDBRANCH   8  11
ENDBRANCH   7   8
ENDBRANCH   1   7
BRANCH   6  13
ATOM     13  N   LIG d   1      -4.352  77.795 117.298  0.00  0.00    -0.311 N 
ATOM     14  C   LIG d   1      -3.403  77.813 116.363  0.00  0.00     0.210 C 
ATOM     15  C   LIG d   1      -2.052  77.239 116.802  0.00  0.00     0.109 C 
ATOM     16  O   LIG d   1      -3.543  78.279 115.222  0.00  0.00    -0.276 OA
ATOM     17  H   LIG d   1      -4.143  77.428 118.206  0.00  0.00     0.149 HD
ENDBRANCH   6  13
BRANCH   5  18
ATOM     18  N   LIG d   1      -5.316  80.632 117.895  0.00  0.00     0.381 N 
ATOM     19  H   LIG d   1      -5.902  81.440 117.952  0.00  0.00    -0.090 HD
ATOM     20  H   LIG d   1      -4.884  80.619 116.988  0.00  0.00    -0.090 HD
ATOM     21  H   LIG d   1      -4.617  80.669 118.604  0.00  0.00    -0.090 HD
ENDBRANCH   5  18
BRANCH   3  22
ATOM     22  C   LIG d   1      -9.767  78.893 118.217  0.00  0.00     0.382 C 
ATOM     23  O   LIG d   1     -10.575  77.934 118.217  0.00  0.00    -0.241 OA
ATOM     24  O   LIG d   1     -10.161  80.027 118.549  0.00  0.00    -0.241 OA
ENDBRANCH   3  22
TORSDOF 7
ENDMDL
MODEL 2
REMARK VINA RESULT:      -5.4      2.206      4.465
REMARK  7 active torsions:
REMARK  status: ('A' for Active; 'I' for Inactive)
REMARK    1  A    between atoms: C_2  and  C_3 
REMARK    2  A    between atoms: C_3  and  O_6 
REMARK    3  A    between atoms: C_3  and  C_4 
REMARK    4  A    between atoms: C_7  and  O_6 
REMARK    5  A    between atoms: C_9  and  C_10 
REMARK    6  A    between atoms: N_15  and  C_14 
REMARK    7  A    between atoms: N_20  and  C_19 
REMARK       I    between atoms: C_22  and  N_20 
ROOT
ATOM      1  C   LIG d   1      -5.853  77.495 116.681  0.00  0.00     0.161 C 
ATOM      2  C   LIG d   1      -7.194  77.566 117.093  0.00  0.00     0.016 C 
ATOM      3  C   LIG d   1      -8.059  76.448 117.122  0.00  0.00     0.038 C 
ATOM      4  C   LIG d   1      -7.595  75.145 116.882  0.00  0.00     0.028 C 
ATOM      5  C   LIG d   1      -6.372  75.096 115.973  0.00  0.00    -0.047 C 
ATOM      6  C   LIG d   1      -5.299  76.064 116.522  0.00  0.00     0.091 C 
ENDROOT
BRANCH   1   7
ATOM      7  O   LIG d   1      -5.024  78.256 117.582  0.00  0.00    -0.368 OA
BRANCH   7   8
ATOM      8  C   LIG d   1      -4.825  79.650 117.243  0.00  0.00     0.119 C 
BRANCH   8   9
ATOM      9  C   LIG d   1      -3.307  79.883 117.114  0.00  0.00     0.028 C 
ATOM     10  C   LIG d   1      -2.802  79.679 115.675  0.00  0.00     0.006 C 
ENDBRANCH   8   9
BRANCH   8  11
ATOM     11  C   LIG d   1      -5.282  80.571 118.378  0.00  0.00     0.028 C 
ATOM     12  C   LIG d   1      -6.693  81.136 118.156  0.00  0.00     0.006 C 
ENDBRANCH   8  11
ENDBRANCH   7   8
ENDBRANCH   1   7
BRANCH   6  13
ATOM     13  N   LIG d   1      -4.102  76.139 115.645  0.00  0.00    -0.311 N 
ATOM     14  C   LIG d   1      -2.901  75.689 116.003  0.00  0.00     0.210 C 
ATOM     15  C   LIG d   1      -1.799  75.883 114.957  0.00  0.00     0.109 C 
ATOM     16  O   LIG d   1      -2.651  75.117 117.075  0.00  0.00    -0.276 OA
ATOM     17  H   LIG d   1      -4.222  76.560 114.744  0.00  0.00     0.149 HD
ENDBRANCH   6  13
BRANCH   5  18
ATOM     18  N   LIG d   1      -5.913  73.695 115.919  0.00  0.00     0.381 N 
ATOM     19  H   LIG d   1      -5.188  73.550 116.593  0.00  0.00    -0.090 HD
ATOM     20  H   LIG d   1      -5.536  73.511 115.006  0.00  0.00    -0.090 HD
ATOM     21  H   LIG d   1      -6.675  73.079 116.102  0.00  0.00    -0.090 HD
ENDBRANCH   5  18
BRANCH   3  22
ATOM     22  C   LIG d   1      -9.413  76.632 117.354  0.00  0.00     0.382 C 
ATOM     23  O   LIG d   1      -9.827  77.723 117.816  0.00  0.00    -0.241 OA
ATOM     24  O   LIG d   1     -10.221  75.707 117.150  0.00  0.00    -0.241 OA
ENDBRANCH   3  22
TORSDOF 7
ENDMDL
MODEL 3
REMARK VINA RESULT:      -5.4      5.051      7.153
REMARK  7 active torsions:
REMARK  status: ('A' for Active; 'I' for Inactive)
REMARK    1  A    between atoms: C_2  and  C_3 
REMARK    2  A    between atoms: C_3  and  O_6 
REMARK    3  A    between atoms: C_3  and  C_4 
REMARK    4  A    between atoms: C_7  and  O_6 
REMARK    5  A    between atoms: C_9  and  C_10 
REMARK    6  A    between atoms: N_15  and  C_14 
REMARK    7  A    between atoms: N_20  and  C_19 
REMARK       I    between atoms: C_22  and  N_20 
ROOT
ATOM      1  C   LIG d   1      -0.556  79.627 115.113  0.00  0.00     0.161 C 
ATOM      2  C   LIG d   1      -0.798  80.963 114.751  0.00  0.00     0.016 C 
ATOM      3  C   LIG d   1      -1.561  81.336 113.621  0.00  0.00     0.038 C 
ATOM      4  C   LIG d   1      -2.263  80.394 112.855  0.00  0.00     0.028 C 
ATOM      5  C   LIG d   1      -1.637  79.003 112.884  0.00  0.00    -0.047 C 
ATOM      6  C   LIG d   1      -1.406  78.587 114.354  0.00  0.00     0.091 C 
ENDROOT
BRANCH   1   7
ATOM      7  O   LIG d   1      -0.722  79.469 116.536  0.00  0.00    -0.368 OA
BRANCH   7   8
ATOM      8  C   LIG d   1      -1.993  78.928 116.973  0.00  0.00     0.119 C 
BRANCH   8   9
ATOM      9  C   LIG d   1      -2.718  80.032 117.767  0.00  0.00     0.028 C 
ATOM     10  C   LIG d   1      -4.088  80.385 117.165  0.00  0.00     0.006 C 
ENDBRANCH   8   9
BRANCH   8  11
ATOM     11  C   LIG d   1      -1.798  77.777 117.964  0.00  0.00     0.028 C 
ATOM     12  C   LIG d   1      -2.918  76.727 117.886  0.00  0.00     0.006 C 
ENDBRANCH   8  11
ENDBRANCH   7   8
ENDBRANCH   1   7
BRANCH   6  13
ATOM     13  N   LIG d   1      -0.719  77.274 114.471  0.00  0.00    -0.311 N 
ATOM     14  C   LIG d   1      -1.365  76.110 114.514  0.00  0.00     0.210 C 
ATOM     15  C   LIG d   1      -0.467  74.877 114.655  0.00  0.00     0.109 C 
ATOM     16  O   LIG d   1      -2.594  75.980 114.416  0.00  0.00    -0.276 OA
ATOM     17  H   LIG d   1       0.281  77.285 114.524  0.00  0.00     0.149 HD
ENDBRANCH   6  13
BRANCH   5  18
ATOM     18  N   LIG d   1      -2.544  78.092 112.161  0.00  0.00     0.381 N 
ATOM     19  H   LIG d   1      -2.901  77.400 112.789  0.00  0.00    -0.090 HD
ATOM     20  H   LIG d   1      -2.025  77.623 111.438  0.00  0.00    -0.090 HD
ATOM     21  H   LIG d   1      -3.296  78.607 111.759  0.00  0.00    -0.090 HD
ENDBRANCH   5  18
BRANCH   3  22
ATOM     22  C   LIG d   1      -1.593  82.664 113.222  0.00  0.00     0.382 C 
ATOM     23  O   LIG d   1      -1.672  83.575 114.081  0.00  0.00    -0.241 OA
ATOM     24  O   LIG d   1      -1.589  82.961 112.012  0.00  0.00    -0.241 OA
ENDBRANCH   3  22
TORSDOF 7
ENDMDL
MODEL 4
REMARK VINA RESULT:      -5.3      3.619      6.938
REMARK  7 active torsions:
REMARK  status: ('A' for Active; 'I' for Inactive)
REMARK    1  A    between atoms: C_2  and  C_3 
REMARK    2  A    between atoms: C_3  and  O_6 
REMARK    3  A    between atoms: C_3  and  C_4 
REMARK    4  A    between atoms: C_7  and  O_6 
REMARK    5  A    between atoms: C_9  and  C_10 
REMARK    6  A    between atoms: N_15  and  C_14 
REMARK    7  A    between atoms: N_20  and  C_19 
REMARK       I    between atoms: C_22  and  N_20 
ROOT
ATOM      1  C   LIG d   1      -2.850  79.739 115.376  0.00  0.00     0.161 C 
ATOM      2  C   LIG d   1      -2.597  80.997 114.803  0.00  0.00     0.016 C 
ATOM      3  C   LIG d   1      -2.044  81.167 113.513  0.00  0.00     0.038 C 
ATOM      4  C   LIG d   1      -1.845  80.085 112.643  0.00  0.00     0.028 C 
ATOM      5  C   LIG d   1      -1.614  78.762 113.365  0.00  0.00    -0.047 C 
ATOM      6  C   LIG d   1      -2.743  78.550 114.399  0.00  0.00     0.091 C 
ENDROOT
BRANCH   1   7
ATOM      7  O   LIG d   1      -4.140  79.746 116.018  0.00  0.00    -0.368 OA
BRANCH   7   8
ATOM      8  C   LIG d   1      -4.173  80.246 117.378  0.00  0.00     0.119 C 
BRANCH   8   9
ATOM      9  C   LIG d   1      -3.176  79.411 118.203  0.00  0.00     0.028 C 
ATOM     10  C   LIG d   1      -1.900  80.196 118.553  0.00  0.00     0.006 C 
ENDBRANCH   8   9
BRANCH   8  11
ATOM     11  C   LIG d   1      -5.539  80.005 118.027  0.00  0.00     0.028 C 
ATOM     12  C   LIG d   1      -6.510  81.180 117.826  0.00  0.00     0.006 C 
ENDBRANCH   8  11
ENDBRANCH   7   8
ENDBRANCH   1   7
BRANCH   6  13
ATOM     13  N   LIG d   1      -2.547  77.319 115.208  0.00  0.00    -0.311 N 
ATOM     14  C   LIG d   1      -3.533  76.476 115.511  0.00  0.00     0.210 C 
ATOM     15  C   LIG d   1      -3.119  75.279 116.372  0.00  0.00     0.109 C 
ATOM     16  O   LIG d   1      -4.705  76.589 115.121  0.00  0.00    -0.276 OA
ATOM     17  H   LIG d   1      -1.621  77.134 115.539  0.00  0.00     0.149 HD
ENDBRANCH   6  13
BRANCH   5  18
ATOM     18  N   LIG d   1      -1.559  77.700 112.342  0.00  0.00     0.381 N 
ATOM     19  H   LIG d   1      -0.665  77.708 111.893  0.00  0.00    -0.090 HD
ATOM     20  H   LIG d   1      -2.263  77.881 111.648  0.00  0.00    -0.090 HD
ATOM     21  H   LIG d   1      -1.720  76.812 112.764  0.00  0.00    -0.090 HD
ENDBRANCH   5  18
BRANCH   3  22
ATOM     22  C   LIG d   1      -1.646  82.429 113.097  0.00  0.00     0.382 C 
ATOM     23  O   LIG d   1      -1.549  83.362 113.930  0.00  0.00    -0.241 OA
ATOM     24  O   LIG d   1      -1.426  82.656 111.893  0.00  0.00    -0.241 OA
ENDBRANCH   3  22
TORSDOF 7
ENDMDL
MODEL 5
REMARK VINA RESULT:      -5.3      3.443      6.030
REMARK  7 active torsions:
REMARK  status: ('A' for Active; 'I' for Inactive)
REMARK    1  A    between atoms: C_2  and  C_3 
REMARK    2  A    between atoms: C_3  and  O_6 
REMARK    3  A    between atoms: C_3  and  C_4 
REMARK    4  A    between atoms: C_7  and  O_6 
REMARK    5  A    between atoms: C_9  and  C_10 
REMARK    6  A    between atoms: N_15  and  C_14 
REMARK    7  A    between atoms: N_20  and  C_19 
REMARK       I    between atoms: C_22  and  N_20 
ROOT
ATOM      1  C   LIG d   1      -2.394  79.181 116.641  0.00  0.00     0.161 C 
ATOM      2  C   LIG d   1      -2.653  80.313 115.851  0.00  0.00     0.016 C 
ATOM      3  C   LIG d   1      -2.456  80.347 114.452  0.00  0.00     0.038 C 
ATOM      4  C   LIG d   1      -2.127  79.196 113.721  0.00  0.00     0.028 C 
ATOM      5  C   LIG d   1      -1.366  78.157 114.538  0.00  0.00    -0.047 C 
ATOM      6  C   LIG d   1      -2.141  77.882 115.847  0.00  0.00     0.091 C 
ENDROOT
BRANCH   1   7
ATOM      7  O   LIG d   1      -3.465  78.989 117.587  0.00  0.00    -0.368 OA
BRANCH   7   8
ATOM      8  C   LIG d   1      -4.809  79.077 117.054  0.00  0.00     0.119 C 
BRANCH   8   9
ATOM      9  C   LIG d   1      -5.521  80.233 117.782  0.00  0.00     0.028 C 
ATOM     10  C   LIG d   1      -7.045  80.039 117.842  0.00  0.00     0.006 C 
ENDBRANCH   8   9
BRANCH   8  11
ATOM     11  C   LIG d   1      -5.624  77.824 117.388  0.00  0.00     0.028 C 
ATOM     12  C   LIG d   1      -5.857  76.921 116.167  0.00  0.00     0.006 C 
ENDBRANCH   8  11
ENDBRANCH   7   8
ENDBRANCH   1   7
BRANCH   6  13
ATOM     13  N   LIG d   1      -1.422  76.939 116.744  0.00  0.00    -0.311 N 
ATOM     14  C   LIG d   1      -1.866  75.716 117.028  0.00  0.00     0.210 C 
ATOM     15  C   LIG d   1      -0.983  74.915 117.990  0.00  0.00     0.109 C 
ATOM     16  O   LIG d   1      -2.890  75.206 116.550  0.00  0.00    -0.276 OA
ATOM     17  H   LIG d   1      -0.565  77.260 117.150  0.00  0.00     0.149 HD
ENDBRANCH   6  13
BRANCH   5  18
ATOM     18  N   LIG d   1      -1.209  76.956 113.696  0.00  0.00     0.381 N 
ATOM     19  H   LIG d   1      -1.996  76.866 113.084  0.00  0.00    -0.090 HD
ATOM     20  H   LIG d   1      -1.176  76.145 114.289  0.00  0.00    -0.090 HD
ATOM     21  H   LIG d   1      -0.370  77.020 113.163  0.00  0.00    -0.090 HD
ENDBRANCH   5  18
BRANCH   3  22
ATOM     22  C   LIG d   1      -2.549  81.553 113.774  0.00  0.00     0.382 C 
ATOM     23  O   LIG d   1      -3.428  81.711 112.892  0.00  0.00    -0.241 OA
ATOM     24  O   LIG d   1      -1.737  82.470 114.002  0.00  0.00    -0.241 OA
ENDBRANCH   3  22
TORSDOF 7
ENDMDL
MODEL 6
REMARK VINA RESULT:      -5.0      6.899      9.666
REMARK  7 active torsions:
REMARK  status: ('A' for Active; 'I' for Inactive)
REMARK    1  A    between atoms: C_2  and  C_3 
REMARK    2  A    between atoms: C_3  and  O_6 
REMARK    3  A    between atoms: C_3  and  C_4 
REMARK    4  A    between atoms: C_7  and  O_6 
REMARK    5  A    between atoms: C_9  and  C_10 
REMARK    6  A    between atoms: N_15  and  C_14 
REMARK    7  A    between atoms: N_20  and  C_19 
REMARK       I    between atoms: C_22  and  N_20 
ROOT
ATOM      1  C   LIG d   1       0.863  81.670 113.904  0.00  0.00     0.161 C 
ATOM      2  C   LIG d   1      -0.395  81.629 113.281  0.00  0.00     0.016 C 
ATOM      3  C   LIG d   1      -1.542  81.061 113.880  0.00  0.00     0.038 C 
ATOM      4  C   LIG d   1      -1.544  80.628 115.215  0.00  0.00     0.028 C 
ATOM      5  C   LIG d   1      -0.171  80.188 115.711  0.00  0.00    -0.047 C 
ATOM      6  C   LIG d   1       0.855  81.303 115.403  0.00  0.00     0.091 C 
ENDROOT
BRANCH   1   7
ATOM      7  O   LIG d   1       1.463  82.966 113.710  0.00  0.00    -0.368 OA
BRANCH   7   8
ATOM      8  C   LIG d   1       1.022  84.014 114.607  0.00  0.00     0.119 C 
BRANCH   8   9
ATOM      9  C   LIG d   1       0.428  85.143 113.743  0.00  0.00     0.028 C 
ATOM     10  C   LIG d   1      -0.875  85.710 114.332  0.00  0.00     0.006 C 
ENDBRANCH   8   9
BRANCH   8  11
ATOM     11  C   LIG d   1       2.203  84.648 115.348  0.00  0.00     0.028 C 
ATOM     12  C   LIG d   1       3.563  84.248 114.754  0.00  0.00     0.006 C 
ENDBRANCH   8  11
ENDBRANCH   7   8
ENDBRANCH   1   7
BRANCH   6  13
ATOM     13  N   LIG d   1       2.240  80.918 115.780  0.00  0.00    -0.311 N 
ATOM     14  C   LIG d   1       2.813  81.275 116.928  0.00  0.00     0.210 C 
ATOM     15  C   LIG d   1       4.255  80.789 117.109  0.00  0.00     0.109 C 
ATOM     16  O   LIG d   1       2.253  81.920 117.828  0.00  0.00    -0.276 OA
ATOM     17  H   LIG d   1       2.756  80.368 115.122  0.00  0.00     0.149 HD
ENDBRANCH   6  13
BRANCH   5  18
ATOM     18  N   LIG d   1      -0.291  79.893 117.151  0.00  0.00     0.381 N 
ATOM     19  H   LIG d   1      -0.956  80.512 117.569  0.00  0.00    -0.090 HD
ATOM     20  H   LIG d   1       0.600  80.046 117.589  0.00  0.00    -0.090 HD
ATOM     21  H   LIG d   1      -0.577  78.948 117.283  0.00  0.00    -0.090 HD
ENDBRANCH   5  18
BRANCH   3  22
ATOM     22  C   LIG d   1      -2.695  80.886 113.129  0.00  0.00     0.382 C 
ATOM     23  O   LIG d   1      -2.928  79.778 112.589  0.00  0.00    -0.241 OA
ATOM     24  O   LIG d   1      -3.482  81.834 112.949  0.00  0.00    -0.241 OA
ENDBRANCH   3  22
TORSDOF 7
ENDMDL
MODEL 7
REMARK VINA RESULT:      -5.0     11.928     13.767
REMARK  7 active torsions:
REMARK  status: ('A' for Active; 'I' for Inactive)
REMARK    1  A    between atoms: C_2  and  C_3 
REMARK    2  A    between atoms: C_3  and  O_6 
REMARK    3  A    between atoms: C_3  and  C_4 
REMARK    4  A    between atoms: C_7  and  O_6 
REMARK    5  A    between atoms: C_9  and  C_10 
REMARK    6  A    between atoms: N_15  and  C_14 
REMARK    7  A    between atoms: N_20  and  C_19 
REMARK       I    between atoms: C_22  and  N_20 
ROOT
ATOM      1  C   LIG d   1       1.836  87.461 115.197  0.00  0.00     0.161 C 
ATOM      2  C   LIG d   1       0.627  87.421 115.913  0.00  0.00     0.016 C 
ATOM      3  C   LIG d   1       0.241  88.412 116.844  0.00  0.00     0.038 C 
ATOM      4  C   LIG d   1       0.973  89.597 117.012  0.00  0.00     0.028 C 
ATOM      5  C   LIG d   1       2.455  89.445 116.683  0.00  0.00    -0.047 C 
ATOM      6  C   LIG d   1       2.595  88.801 115.285  0.00  0.00     0.091 C 
ENDROOT
BRANCH   1   7
ATOM      7  O   LIG d   1       1.600  87.108 113.820  0.00  0.00    -0.368 OA
BRANCH   7   8
ATOM      8  C   LIG d   1       1.777  85.711 113.480  0.00  0.00     0.119 C 
BRANCH   8   9
ATOM      9  C   LIG d   1       3.174  85.562 112.847  0.00  0.00     0.028 C 
ATOM     10  C   LIG d   1       3.473  86.665 111.818  0.00  0.00     0.006 C 
ENDBRANCH   8   9
BRANCH   8  11
ATOM     11  C   LIG d   1       0.791  85.272 112.394  0.00  0.00     0.028 C 
ATOM     12  C   LIG d   1      -0.629  85.811 112.625  0.00  0.00     0.006 C 
ENDBRANCH   8  11
ENDBRANCH   7   8
ENDBRANCH   1   7
BRANCH   6  13
ATOM     13  N   LIG d   1       4.012  88.540 114.921  0.00  0.00    -0.311 N 
ATOM     14  C   LIG d   1       4.740  89.365 114.169  0.00  0.00     0.210 C 
ATOM     15  C   LIG d   1       6.173  88.896 113.897  0.00  0.00     0.109 C 
ATOM     16  O   LIG d   1       4.345  90.455 113.729  0.00  0.00    -0.276 OA
ATOM     17  H   LIG d   1       4.422  87.693 115.262  0.00  0.00     0.149 HD
ENDBRANCH   6  13
BRANCH   5  18
ATOM     18  N   LIG d   1       3.069  90.784 116.768  0.00  0.00     0.381 N 
ATOM     19  H   LIG d   1       4.054  90.715 116.608  0.00  0.00    -0.090 HD
ATOM     20  H   LIG d   1       2.925  91.150 117.692  0.00  0.00    -0.090 HD
ATOM     21  H   LIG d   1       2.657  91.391 116.094  0.00  0.00    -0.090 HD
ENDBRANCH   5  18
BRANCH   3  22
ATOM     22  C   LIG d   1      -0.869  88.204 117.648  0.00  0.00     0.382 C 
ATOM     23  O   LIG d   1      -1.477  89.184 118.143  0.00  0.00    -0.241 OA
ATOM     24  O   LIG d   1      -1.244  87.048 117.921  0.00  0.00    -0.241 OA
ENDBRANCH   3  22
TORSDOF 7
ENDMDL
MODEL 8
REMARK VINA RESULT:      -4.8      2.060      2.981
REMARK  7 active torsions:
REMARK  status: ('A' for Active; 'I' for Inactive)
REMARK    1  A    between atoms: C_2  and  C_3 
REMARK    2  A    between atoms: C_3  and  O_6 
REMARK    3  A    between atoms: C_3  and  C_4 
REMARK    4  A    between atoms: C_7  and  O_6 
REMARK    5  A    between atoms: C_9  and  C_10 
REMARK    6  A    between atoms: N_15  and  C_14 
REMARK    7  A    between atoms: N_20  and  C_19 
REMARK       I    between atoms: C_22  and  N_20 
ROOT
ATOM      1  C   LIG d   1      -4.737  77.324 117.601  0.00  0.00     0.161 C 
ATOM      2  C   LIG d   1      -5.830  78.207 117.591  0.00  0.00     0.016 C 
ATOM      3  C   LIG d   1      -5.694  79.614 117.577  0.00  0.00     0.038 C 
ATOM      4  C   LIG d   1      -4.447  80.237 117.420  0.00  0.00     0.028 C 
ATOM      5  C   LIG d   1      -3.281  79.398 117.934  0.00  0.00    -0.047 C 
ATOM      6  C   LIG d   1      -3.371  77.983 117.317  0.00  0.00     0.091 C 
ENDROOT
BRANCH   1   7
ATOM      7  O   LIG d   1      -4.973  76.243 116.677  0.00  0.00    -0.368 OA
BRANCH   7   8
ATOM      8  C   LIG d   1      -6.215  76.301 115.933  0.00  0.00     0.119 C 
BRANCH   8   9
ATOM      9  C   LIG d   1      -7.165  75.249 116.536  0.00  0.00     0.028 C 
ATOM     10  C   LIG d   1      -8.479  75.867 117.044  0.00  0.00     0.006 C 
ENDBRANCH   8   9
BRANCH   8  11
ATOM     11  C   LIG d   1      -6.011  75.875 114.476  0.00  0.00     0.028 C 
ATOM     12  C   LIG d   1      -4.557  75.485 114.167  0.00  0.00     0.006 C 
ENDBRANCH   8  11
ENDBRANCH   7   8
ENDBRANCH   1   7
BRANCH   6  13
ATOM     13  N   LIG d   1      -2.316  77.072 117.833  0.00  0.00    -0.311 N 
ATOM     14  C   LIG d   1      -1.504  76.371 117.044  0.00  0.00     0.210 C 
ATOM     15  C   LIG d   1      -0.500  75.477 117.781  0.00  0.00     0.109 C 
ATOM     16  O   LIG d   1      -1.497  76.428 115.805  0.00  0.00    -0.276 OA
ATOM     17  H   LIG d   1      -2.231  76.990 118.827  0.00  0.00     0.149 HD
ENDBRANCH   6  13
BRANCH   5  18
ATOM     18  N   LIG d   1      -2.035  80.104 117.583  0.00  0.00     0.381 N 
ATOM     19  H   LIG d   1      -1.870  80.032 116.598  0.00  0.00    -0.090 HD
ATOM     20  H   LIG d   1      -1.268  79.669 118.064  0.00  0.00    -0.090 HD
ATOM     21  H   LIG d   1      -2.100  81.063 117.846  0.00  0.00    -0.090 HD
ENDBRANCH   5  18
BRANCH   3  22
ATOM     22  C   LIG d   1      -6.811  80.414 117.763  0.00  0.00     0.382 C 
ATOM     23  O   LIG d   1      -7.932  80.030 117.353  0.00  0.00    -0.241 OA
ATOM     24  O   LIG d   1      -6.703  81.535 118.295  0.00  0.00    -0.241 OA
ENDBRANCH   3  22
TORSDOF 7
ENDMDL
MODEL 9
REMARK VINA RESULT:      -4.8      3.332      5.897
REMARK  7 active torsions:
REMARK  status: ('A' for Active; 'I' for Inactive)
REMARK    1  A    between atoms: C_2  and  C_3 
REMARK    2  A    between atoms: C_3  and  O_6 
REMARK    3  A    between atoms: C_3  and  C_4 
REMARK    4  A    between atoms: C_7  and  O_6 
REMARK    5  A    between atoms: C_9  and  C_10 
REMARK    6  A    between atoms: N_15  and  C_14 
REMARK    7  A    between atoms: N_20  and  C_19 
REMARK       I    between atoms: C_22  and  N_20 
ROOT
ATOM      1  C   LIG d   1      -3.066  76.656 114.419  0.00  0.00     0.161 C 
ATOM      2  C   LIG d   1      -2.586  77.862 113.882  0.00  0.00     0.016 C 
ATOM      3  C   LIG d   1      -2.707  79.108 114.538  0.00  0.00     0.038 C 
ATOM      4  C   LIG d   1      -3.185  79.211 115.853  0.00  0.00     0.028 C 
ATOM      5  C   LIG d   1      -4.145  78.090 116.237  0.00  0.00    -0.047 C 
ATOM      6  C   LIG d   1      -3.491  76.731 115.901  0.00  0.00     0.091 C 
ENDROOT
BRANCH   1   7
ATOM      7  O   LIG d   1      -2.088  75.613 114.231  0.00  0.00    -0.368 OA
BRANCH   7   8
ATOM      8  C   LIG d   1      -0.856  75.752 114.980  0.00  0.00     0.119 C 
BRANCH   8   9
ATOM      9  C   LIG d   1       0.299  75.319 114.056  0.00  0.00     0.028 C 
ATOM     10  C   LIG d   1       0.207  73.836 113.658  0.00  0.00     0.006 C 
ENDBRANCH   8   9
BRANCH   8  11
ATOM     11  C   LIG d   1      -0.813  74.783 116.165  0.00  0.00     0.028 C 
ATOM     12  C   LIG d   1      -0.495  75.483 117.496  0.00  0.00     0.006 C 
ENDBRANCH   8  11
ENDBRANCH   7   8
ENDBRANCH   1   7
BRANCH   6  13
ATOM     13  N   LIG d   1      -4.397  75.584 116.168  0.00  0.00    -0.311 N 
ATOM     14  C   LIG d   1      -5.579  75.430 115.574  0.00  0.00     0.210 C 
ATOM     15  C   LIG d   1      -6.364  74.188 116.008  0.00  0.00     0.109 C 
ATOM     16  O   LIG d   1      -6.038  76.187 114.706  0.00  0.00    -0.276 OA
ATOM     17  H   LIG d   1      -4.089  74.905 116.836  0.00  0.00     0.149 HD
ENDBRANCH   6  13
BRANCH   5  18
ATOM     18  N   LIG d   1      -4.457  78.243 117.671  0.00  0.00     0.381 N 
ATOM     19  H   LIG d   1      -3.608  78.314 118.196  0.00  0.00    -0.090 HD
ATOM     20  H   LIG d   1      -4.954  77.428 117.984  0.00  0.00    -0.090 HD
ATOM     21  H   LIG d   1      -5.014  79.056 117.814  0.00  0.00    -0.090 HD
ENDBRANCH   5  18
BRANCH   3  22
ATOM     22  C   LIG d   1      -2.383  80.275 113.862  0.00  0.00     0.382 C 
ATOM     23  O   LIG d   1      -1.373  80.937 114.202  0.00  0.00    -0.241 OA
ATOM     24  O   LIG d   1      -3.114  80.697 112.945  0.00  0.00    -0.241 OA
ENDBRANCH   3  22
TORSDOF 7
ENDMDL
