MODEL 1
REMARK VINA RESULT:      -5.2      0.000      0.000
REMARK  7 active torsions:
REMARK  status: ('A' for Active; 'I' for Inactive)
REMARK    1  A    between atoms: C_2  and  C_3 
REMARK    2  A    between atoms: C_3  and  O_6 
REMARK    3  A    between atoms: C_3  and  C_4 
REMARK    4  A    between atoms: C_7  and  O_6 
REMARK    5  A    between atoms: C_9  and  C_10 
REMARK    6  A    between atoms: N_15  and  C_14 
REMARK    7  A    between atoms: N_20  and  C_19 
REMARK       I    between atoms: C_22  and  N_20 
ROOT
ATOM      1  C   LIG d   1      -3.481  78.303 115.627  0.00  0.00     0.161 C 
ATOM      2  C   LIG d   1      -3.454  79.248 114.588  0.00  0.00     0.016 C 
ATOM      3  C   LIG d   1      -2.397  79.347 113.654  0.00  0.00     0.038 C 
ATOM      4  C   LIG d   1      -1.360  78.404 113.605  0.00  0.00     0.028 C 
ATOM      5  C   LIG d   1      -1.084  77.736 114.948  0.00  0.00    -0.047 C 
ATOM      6  C   LIG d   1      -2.414  77.194 115.521  0.00  0.00     0.091 C 
ENDROOT
BRANCH   1   7
ATOM      7  O   LIG d   1      -4.797  77.723 115.726  0.00  0.00    -0.368 OA
BRANCH   7   8
ATOM      8  C   LIG d   1      -5.305  77.520 117.067  0.00  0.00     0.119 C 
BRANCH   8   9
ATOM      9  C   LIG d   1      -6.047  76.169 117.082  0.00  0.00     0.028 C 
ATOM     10  C   LIG d   1      -5.563  75.222 115.971  0.00  0.00     0.006 C 
ENDBRANCH   8   9
BRANCH   8  11
ATOM     11  C   LIG d   1      -6.364  78.568 117.427  0.00  0.00     0.028 C 
ATOM     12  C   LIG d   1      -5.751  79.914 117.846  0.00  0.00     0.006 C 
ENDBRANCH   8  11
ENDBRANCH   7   8
ENDBRANCH   1   7
BRANCH   6  13
ATOM     13  N   LIG d   1      -2.247  76.599 116.873  0.00  0.00    -0.311 N 
ATOM     14  C   LIG d   1      -2.063  75.297 117.083  0.00  0.00     0.210 C 
ATOM     15  C   LIG d   1      -1.934  74.892 118.555  0.00  0.00     0.109 C 
ATOM     16  O   LIG d   1      -1.961  74.444 116.189  0.00  0.00    -0.276 OA
ATOM     17  H   LIG d   1      -2.285  77.224 117.654  0.00  0.00     0.149 HD
ENDBRANCH   6  13
BRANCH   5  18
ATOM     18  N   LIG d   1      -0.079  76.680 114.722  0.00  0.00     0.381 N 
ATOM     19  H   LIG d   1       0.027  76.517 113.741  0.00  0.00    -0.090 HD
ATOM     20  H   LIG d   1      -0.399  75.829 115.151  0.00  0.00    -0.090 HD
ATOM     21  H   LIG d   1       0.795  76.951 115.117  0.00  0.00    -0.090 HD
ENDBRANCH   5  18
BRANCH   3  22
ATOM     22  C   LIG d   1      -2.350  80.424 112.782  0.00  0.00     0.382 C 
ATOM     23  O   LIG d   1      -1.477  80.463 111.881  0.00  0.00    -0.241 OA
ATOM     24  O   LIG d   1      -3.140  81.378 112.912  0.00  0.00    -0.241 OA
ENDBRANCH   3  22
TORSDOF 7
ENDMDL
MODEL 2
REMARK VINA RESULT:      -5.1      2.440      4.567
REMARK  7 active torsions:
REMARK  status: ('A' for Active; 'I' for Inactive)
REMARK    1  A    between atoms: C_2  and  C_3 
REMARK    2  A    between atoms: C_3  and  O_6 
REMARK    3  A    between atoms: C_3  and  C_4 
REMARK    4  A    between atoms: C_7  and  O_6 
REMARK    5  A    between atoms: C_9  and  C_10 
REMARK    6  A    between atoms: N_15  and  C_14 
REMARK    7  A    between atoms: N_20  and  C_19 
REMARK       I    between atoms: C_22  and  N_20 
ROOT
ATOM      1  C   LIG d   1      -3.953  75.896 116.788  0.00  0.00     0.161 C 
ATOM      2  C   LIG d   1      -5.044  76.493 117.441  0.00  0.00     0.016 C 
ATOM      3  C   LIG d   1      -5.339  77.873 117.359  0.00  0.00     0.038 C 
ATOM      4  C   LIG d   1      -4.647  78.729 116.491  0.00  0.00     0.028 C 
ATOM      5  C   LIG d   1      -3.222  78.272 116.197  0.00  0.00    -0.047 C 
ATOM      6  C   LIG d   1      -3.252  76.794 115.747  0.00  0.00     0.091 C 
ENDROOT
BRANCH   1   7
ATOM      7  O   LIG d   1      -4.366  74.655 116.182  0.00  0.00    -0.368 OA
BRANCH   7   8
ATOM      8  C   LIG d   1      -5.697  74.636 115.610  0.00  0.00     0.119 C 
BRANCH   8   9
ATOM      9  C   LIG d   1      -6.328  73.273 115.951  0.00  0.00     0.028 C 
ATOM     10  C   LIG d   1      -7.600  73.412 116.805  0.00  0.00     0.006 C 
ENDBRANCH   8   9
BRANCH   8  11
ATOM     11  C   LIG d   1      -5.648  74.690 114.080  0.00  0.00     0.028 C 
ATOM     12  C   LIG d   1      -6.515  75.815 113.495  0.00  0.00     0.006 C 
ENDBRANCH   8  11
ENDBRANCH   7   8
ENDBRANCH   1   7
BRANCH   6  13
ATOM     13  N   LIG d   1      -1.891  76.242 115.521  0.00  0.00    -0.311 N 
ATOM     14  C   LIG d   1      -1.312  76.186 114.322  0.00  0.00     0.210 C 
ATOM     15  C   LIG d   1       0.087  75.561 114.308  0.00  0.00     0.109 C 
ATOM     16  O   LIG d   1      -1.811  76.624 113.275  0.00  0.00    -0.276 OA
ATOM     17  H   LIG d   1      -1.401  75.893 116.321  0.00  0.00     0.149 HD
ENDBRANCH   6  13
BRANCH   5  18
ATOM     18  N   LIG d   1      -2.664  79.177 115.175  0.00  0.00     0.381 N 
ATOM     19  H   LIG d   1      -1.756  78.859 114.900  0.00  0.00    -0.090 HD
ATOM     20  H   LIG d   1      -2.571  80.096 115.570  0.00  0.00    -0.090 HD
ATOM     21  H   LIG d   1      -3.267  79.208 114.382  0.00  0.00    -0.090 HD
ENDBRANCH   5  18
BRANCH   3  22
ATOM     22  C   LIG d   1      -6.313  78.417 118.183  0.00  0.00     0.382 C 
ATOM     23  O   LIG d   1      -7.284  77.715 118.555  0.00  0.00    -0.241 OA
ATOM     24  O   LIG d   1      -6.255  79.614 118.523  0.00  0.00    -0.241 OA
ENDBRANCH   3  22
TORSDOF 7
ENDMDL
MODEL 3
REMARK VINA RESULT:      -4.8     11.879     14.377
REMARK  7 active torsions:
REMARK  status: ('A' for Active; 'I' for Inactive)
REMARK    1  A    between atoms: C_2  and  C_3 
REMARK    2  A    between atoms: C_3  and  O_6 
REMARK    3  A    between atoms: C_3  and  C_4 
REMARK    4  A    between atoms: C_7  and  O_6 
REMARK    5  A    between atoms: C_9  and  C_10 
REMARK    6  A    between atoms: N_15  and  C_14 
REMARK    7  A    between atoms: N_20  and  C_19 
REMARK       I    between atoms: C_22  and  N_20 
ROOT
ATOM      1  C   LIG d   1      10.182  77.097 114.485  0.00  0.00     0.161 C 
ATOM      2  C   LIG d   1       9.654  75.981 115.155  0.00  0.00     0.016 C 
ATOM      3  C   LIG d   1      10.438  74.882 115.574  0.00  0.00     0.038 C 
ATOM      4  C   LIG d   1      11.838  74.894 115.486  0.00  0.00     0.028 C 
ATOM      5  C   LIG d   1      12.367  75.778 114.361  0.00  0.00    -0.047 C 
ATOM      6  C   LIG d   1      11.723  77.178 114.479  0.00  0.00     0.091 C 
ENDROOT
BRANCH   1   7
ATOM      7  O   LIG d   1       9.619  78.306 115.032  0.00  0.00    -0.368 OA
BRANCH   7   8
ATOM      8  C   LIG d   1       8.451  78.142 115.872  0.00  0.00     0.119 C 
BRANCH   8   9
ATOM      9  C   LIG d   1       7.286  78.892 115.197  0.00  0.00     0.028 C 
ATOM     10  C   LIG d   1       5.961  78.728 115.961  0.00  0.00     0.006 C 
ENDBRANCH   8   9
BRANCH   8  11
ATOM     11  C   LIG d   1       8.640  78.826 117.230  0.00  0.00     0.028 C 
ATOM     12  C   LIG d   1       9.557  78.032 118.174  0.00  0.00     0.006 C 
ENDBRANCH   8  11
ENDBRANCH   7   8
ENDBRANCH   1   7
BRANCH   6  13
ATOM     13  N   LIG d   1      12.122  78.081 113.368  0.00  0.00    -0.311 N 
ATOM     14  C   LIG d   1      12.295  79.393 113.515  0.00  0.00     0.210 C 
ATOM     15  C   LIG d   1      12.686  80.141 112.237  0.00  0.00     0.109 C 
ATOM     16  O   LIG d   1      12.193  80.003 114.590  0.00  0.00    -0.276 OA
ATOM     17  H   LIG d   1      12.256  77.664 112.467  0.00  0.00     0.149 HD
ENDBRANCH   6  13
BRANCH   5  18
ATOM     18  N   LIG d   1      13.838  75.806 114.470  0.00  0.00     0.381 N 
ATOM     19  H   LIG d   1      14.103  75.977 115.420  0.00  0.00    -0.090 HD
ATOM     20  H   LIG d   1      14.191  76.557 113.904  0.00  0.00    -0.090 HD
ATOM     21  H   LIG d   1      14.219  74.939 114.162  0.00  0.00    -0.090 HD
ENDBRANCH   5  18
BRANCH   3  22
ATOM     22  C   LIG d   1       9.818  73.738 116.053  0.00  0.00     0.382 C 
ATOM     23  O   LIG d   1       9.243  72.957 115.257  0.00  0.00    -0.241 OA
ATOM     24  O   LIG d   1       9.788  73.500 117.275  0.00  0.00    -0.241 OA
ENDBRANCH   3  22
TORSDOF 7
ENDMDL
MODEL 4
REMARK VINA RESULT:      -4.8      7.229     10.372
REMARK  7 active torsions:
REMARK  status: ('A' for Active; 'I' for Inactive)
REMARK    1  A    between atoms: C_2  and  C_3 
REMARK    2  A    between atoms: C_3  and  O_6 
REMARK    3  A    between atoms: C_3  and  C_4 
REMARK    4  A    between atoms: C_7  and  O_6 
REMARK    5  A    between atoms: C_9  and  C_10 
REMARK    6  A    between atoms: N_15  and  C_14 
REMARK    7  A    between atoms: N_20  and  C_19 
REMARK       I    between atoms: C_22  and  N_20 
ROOT
ATOM      1  C   LIG d   1       2.282  84.158 112.891  0.00  0.00     0.161 C 
ATOM      2  C   LIG d   1       1.466  83.074 112.528  0.00  0.00     0.016 C 
ATOM      3  C   LIG d   1       0.093  83.204 112.214  0.00  0.00     0.038 C 
ATOM      4  C   LIG d   1      -0.524  84.458 112.092  0.00  0.00     0.028 C 
ATOM      5  C   LIG d   1       0.134  85.542 112.940  0.00  0.00    -0.047 C 
ATOM      6  C   LIG d   1       1.654  85.548 112.656  0.00  0.00     0.091 C 
ENDROOT
BRANCH   1   7
ATOM      7  O   LIG d   1       3.551  84.062 112.215  0.00  0.00    -0.368 OA
BRANCH   7   8
ATOM      8  C   LIG d   1       4.683  83.678 113.034  0.00  0.00     0.119 C 
BRANCH   8   9
ATOM      9  C   LIG d   1       4.991  82.198 112.734  0.00  0.00     0.028 C 
ATOM     10  C   LIG d   1       4.870  81.308 113.982  0.00  0.00     0.006 C 
ENDBRANCH   8   9
BRANCH   8  11
ATOM     11  C   LIG d   1       4.332  83.724 114.525  0.00  0.00     0.028 C 
ATOM     12  C   LIG d   1       5.056  84.856 115.272  0.00  0.00     0.006 C 
ENDBRANCH   8  11
ENDBRANCH   7   8
ENDBRANCH   1   7
BRANCH   6  13
ATOM     13  N   LIG d   1       2.386  86.522 113.507  0.00  0.00    -0.311 N 
ATOM     14  C   LIG d   1       3.152  87.495 113.015  0.00  0.00     0.210 C 
ATOM     15  C   LIG d   1       3.832  88.376 114.067  0.00  0.00     0.109 C 
ATOM     16  O   LIG d   1       3.306  87.731 111.807  0.00  0.00    -0.276 OA
ATOM     17  H   LIG d   1       2.291  86.423 114.498  0.00  0.00     0.149 HD
ENDBRANCH   6  13
BRANCH   5  18
ATOM     18  N   LIG d   1      -0.520  86.823 112.613  0.00  0.00     0.381 N 
ATOM     19  H   LIG d   1      -0.678  86.880 111.627  0.00  0.00    -0.090 HD
ATOM     20  H   LIG d   1       0.088  87.576 112.880  0.00  0.00    -0.090 HD
ATOM     21  H   LIG d   1      -1.386  86.897 113.100  0.00  0.00    -0.090 HD
ENDBRANCH   5  18
BRANCH   3  22
ATOM     22  C   LIG d   1      -0.686  82.069 112.055  0.00  0.00     0.382 C 
ATOM     23  O   LIG d   1      -1.930  82.137 112.204  0.00  0.00    -0.241 OA
ATOM     24  O   LIG d   1      -0.157  80.968 111.809  0.00  0.00    -0.241 OA
ENDBRANCH   3  22
TORSDOF 7
ENDMDL
MODEL 5
REMARK VINA RESULT:      -4.8     12.279     14.115
REMARK  7 active torsions:
REMARK  status: ('A' for Active; 'I' for Inactive)
REMARK    1  A    between atoms: C_2  and  C_3 
REMARK    2  A    between atoms: C_3  and  O_6 
REMARK    3  A    between atoms: C_3  and  C_4 
REMARK    4  A    between atoms: C_7  and  O_6 
REMARK    5  A    between atoms: C_9  and  C_10 
REMARK    6  A    between atoms: N_15  and  C_14 
REMARK    7  A    between atoms: N_20  and  C_19 
REMARK       I    between atoms: C_22  and  N_20 
ROOT
ATOM      1  C   LIG d   1      10.813  77.773 115.159  0.00  0.00     0.161 C 
ATOM      2  C   LIG d   1      11.298  78.846 114.394  0.00  0.00     0.016 C 
ATOM      3  C   LIG d   1      12.484  78.781 113.627  0.00  0.00     0.038 C 
ATOM      4  C   LIG d   1      13.190  77.581 113.452  0.00  0.00     0.028 C 
ATOM      5  C   LIG d   1      13.017  76.603 114.610  0.00  0.00    -0.047 C 
ATOM      6  C   LIG d   1      11.509  76.422 114.893  0.00  0.00     0.091 C 
ENDROOT
BRANCH   1   7
ATOM      7  O   LIG d   1       9.389  77.647 114.977  0.00  0.00    -0.368 OA
BRANCH   7   8
ATOM      8  C   LIG d   1       8.566  78.577 115.725  0.00  0.00     0.119 C 
BRANCH   8   9
ATOM      9  C   LIG d   1       8.762  78.267 117.221  0.00  0.00     0.028 C 
ATOM     10  C   LIG d   1       8.886  79.542 118.073  0.00  0.00     0.006 C 
ENDBRANCH   8   9
BRANCH   8  11
ATOM     11  C   LIG d   1       7.077  78.345 115.454  0.00  0.00     0.028 C 
ATOM     12  C   LIG d   1       6.353  79.615 114.979  0.00  0.00     0.006 C 
ENDBRANCH   8  11
ENDBRANCH   7   8
ENDBRANCH   1   7
BRANCH   6  13
ATOM     13  N   LIG d   1      11.254  75.545 116.066  0.00  0.00    -0.311 N 
ATOM     14  C   LIG d   1      10.353  74.564 116.066  0.00  0.00     0.210 C 
ATOM     15  C   LIG d   1      10.235  73.795 117.385  0.00  0.00     0.109 C 
ATOM     16  O   LIG d   1       9.663  74.237 115.088  0.00  0.00    -0.276 OA
ATOM     17  H   LIG d   1      11.792  75.721 116.892  0.00  0.00     0.149 HD
ENDBRANCH   6  13
BRANCH   5  18
ATOM     18  N   LIG d   1      13.691  75.346 114.235  0.00  0.00     0.381 N 
ATOM     19  H   LIG d   1      14.182  75.469 113.372  0.00  0.00    -0.090 HD
ATOM     20  H   LIG d   1      12.997  74.631 114.104  0.00  0.00    -0.090 HD
ATOM     21  H   LIG d   1      14.328  75.073 114.951  0.00  0.00    -0.090 HD
ENDBRANCH   5  18
BRANCH   3  22
ATOM     22  C   LIG d   1      12.998  79.936 113.056  0.00  0.00     0.382 C 
ATOM     23  O   LIG d   1      14.083  80.411 113.471  0.00  0.00    -0.241 OA
ATOM     24  O   LIG d   1      12.369  80.533 112.163  0.00  0.00    -0.241 OA
ENDBRANCH   3  22
TORSDOF 7
ENDMDL
MODEL 6
REMARK VINA RESULT:      -4.7      9.669     11.793
REMARK  7 active torsions:
REMARK  status: ('A' for Active; 'I' for Inactive)
REMARK    1  A    between atoms: C_2  and  C_3 
REMARK    2  A    between atoms: C_3  and  O_6 
REMARK    3  A    between atoms: C_3  and  C_4 
REMARK    4  A    between atoms: C_7  and  O_6 
REMARK    5  A    between atoms: C_9  and  C_10 
REMARK    6  A    between atoms: N_15  and  C_14 
REMARK    7  A    between atoms: N_20  and  C_19 
REMARK       I    between atoms: C_22  and  N_20 
ROOT
ATOM      1  C   LIG d   1       4.432  85.867 113.822  0.00  0.00     0.161 C 
ATOM      2  C   LIG d   1       4.152  87.049 113.116  0.00  0.00     0.016 C 
ATOM      3  C   LIG d   1       4.295  88.341 113.673  0.00  0.00     0.038 C 
ATOM      4  C   LIG d   1       4.875  88.544 114.934  0.00  0.00     0.028 C 
ATOM      5  C   LIG d   1       4.703  87.359 115.879  0.00  0.00    -0.047 C 
ATOM      6  C   LIG d   1       5.171  86.073 115.160  0.00  0.00     0.091 C 
ENDROOT
BRANCH   1   7
ATOM      7  O   LIG d   1       5.165  84.957 112.979  0.00  0.00    -0.368 OA
BRANCH   7   8
ATOM      8  C   LIG d   1       4.396  83.888 112.375  0.00  0.00     0.119 C 
BRANCH   8   9
ATOM      9  C   LIG d   1       3.133  83.684 113.234  0.00  0.00     0.028 C 
ATOM     10  C   LIG d   1       1.842  83.730 112.399  0.00  0.00     0.006 C 
ENDBRANCH   8   9
BRANCH   8  11
ATOM     11  C   LIG d   1       5.149  82.555 112.438  0.00  0.00     0.028 C 
ATOM     12  C   LIG d   1       4.716  81.682 113.627  0.00  0.00     0.006 C 
ENDBRANCH   8  11
ENDBRANCH   7   8
ENDBRANCH   1   7
BRANCH   6  13
ATOM     13  N   LIG d   1       4.958  84.854 115.984  0.00  0.00    -0.311 N 
ATOM     14  C   LIG d   1       5.902  84.315 116.753  0.00  0.00     0.210 C 
ATOM     15  C   LIG d   1       5.479  83.049 117.504  0.00  0.00     0.109 C 
ATOM     16  O   LIG d   1       7.040  84.784 116.910  0.00  0.00    -0.276 OA
ATOM     17  H   LIG d   1       4.054  84.427 115.940  0.00  0.00     0.149 HD
ENDBRANCH   6  13
BRANCH   5  18
ATOM     18  N   LIG d   1       5.472  87.650 117.103  0.00  0.00     0.381 N 
ATOM     19  H   LIG d   1       5.753  88.610 117.107  0.00  0.00    -0.090 HD
ATOM     20  H   LIG d   1       6.299  87.079 117.112  0.00  0.00    -0.090 HD
ATOM     21  H   LIG d   1       4.917  87.456 117.908  0.00  0.00    -0.090 HD
ENDBRANCH   5  18
BRANCH   3  22
ATOM     22  C   LIG d   1       3.817  89.444 112.982  0.00  0.00     0.382 C 
ATOM     23  O   LIG d   1       4.433  90.536 113.041  0.00  0.00    -0.241 OA
ATOM     24  O   LIG d   1       2.754  89.374 112.337  0.00  0.00    -0.241 OA
ENDBRANCH   3  22
TORSDOF 7
ENDMDL
MODEL 7
REMARK VINA RESULT:      -4.6      2.493      5.959
REMARK  7 active torsions:
REMARK  status: ('A' for Active; 'I' for Inactive)
REMARK    1  A    between atoms: C_2  and  C_3 
REMARK    2  A    between atoms: C_3  and  O_6 
REMARK    3  A    between atoms: C_3  and  C_4 
REMARK    4  A    between atoms: C_7  and  O_6 
REMARK    5  A    between atoms: C_9  and  C_10 
REMARK    6  A    between atoms: N_15  and  C_14 
REMARK    7  A    between atoms: N_20  and  C_19 
REMARK       I    between atoms: C_22  and  N_20 
ROOT
ATOM      1  C   LIG d   1      -4.248  75.831 116.485  0.00  0.00     0.161 C 
ATOM      2  C   LIG d   1      -5.331  74.953 116.318  0.00  0.00     0.016 C 
ATOM      3  C   LIG d   1      -6.679  75.334 116.514  0.00  0.00     0.038 C 
ATOM      4  C   LIG d   1      -7.046  76.668 116.744  0.00  0.00     0.028 C 
ATOM      5  C   LIG d   1      -5.953  77.489 117.419  0.00  0.00    -0.047 C 
ATOM      6  C   LIG d   1      -4.636  77.318 116.628  0.00  0.00     0.091 C 
ENDROOT
BRANCH   1   7
ATOM      7  O   LIG d   1      -3.309  75.660 115.405  0.00  0.00    -0.368 OA
BRANCH   7   8
ATOM      8  C   LIG d   1      -2.117  74.896 115.712  0.00  0.00     0.119 C 
BRANCH   8   9
ATOM      9  C   LIG d   1      -2.016  74.791 117.246  0.00  0.00     0.028 C 
ATOM     10  C   LIG d   1      -1.029  75.810 117.840  0.00  0.00     0.006 C 
ENDBRANCH   8   9
BRANCH   8  11
ATOM     11  C   LIG d   1      -0.851  75.638 115.272  0.00  0.00     0.028 C 
ATOM     12  C   LIG d   1      -1.112  76.639 114.135  0.00  0.00     0.006 C 
ENDBRANCH   8  11
ENDBRANCH   7   8
ENDBRANCH   1   7
BRANCH   6  13
ATOM     13  N   LIG d   1      -3.494  78.021 117.268  0.00  0.00    -0.311 N 
ATOM     14  C   LIG d   1      -2.720  78.896 116.628  0.00  0.00     0.210 C 
ATOM     15  C   LIG d   1      -1.586  79.492 117.469  0.00  0.00     0.109 C 
ATOM     16  O   LIG d   1      -2.884  79.259 115.454  0.00  0.00    -0.276 OA
ATOM     17  H   LIG d   1      -3.309  77.810 118.229  0.00  0.00     0.149 HD
ENDBRANCH   6  13
BRANCH   5  18
ATOM     18  N   LIG d   1      -6.416  78.889 117.474  0.00  0.00     0.381 N 
ATOM     19  H   LIG d   1      -5.711  79.494 117.103  0.00  0.00    -0.090 HD
ATOM     20  H   LIG d   1      -6.576  79.141 118.433  0.00  0.00    -0.090 HD
ATOM     21  H   LIG d   1      -7.259  78.990 116.952  0.00  0.00    -0.090 HD
ENDBRANCH   5  18
BRANCH   3  22
ATOM     22  C   LIG d   1      -7.673  74.367 116.519  0.00  0.00     0.382 C 
ATOM     23  O   LIG d   1      -7.371  73.159 116.677  0.00  0.00    -0.241 OA
ATOM     24  O   LIG d   1      -8.862  74.682 116.324  0.00  0.00    -0.241 OA
ENDBRANCH   3  22
TORSDOF 7
ENDMDL
MODEL 8
REMARK VINA RESULT:      -4.6     21.055     22.681
REMARK  7 active torsions:
REMARK  status: ('A' for Active; 'I' for Inactive)
REMARK    1  A    between atoms: C_2  and  C_3 
REMARK    2  A    between atoms: C_3  and  O_6 
REMARK    3  A    between atoms: C_3  and  C_4 
REMARK    4  A    between atoms: C_7  and  O_6 
REMARK    5  A    between atoms: C_9  and  C_10 
REMARK    6  A    between atoms: N_15  and  C_14 
REMARK    7  A    between atoms: N_20  and  C_19 
REMARK       I    between atoms: C_22  and  N_20 
ROOT
ATOM      1  C   LIG d   1     -23.920  83.157 113.478  0.00  0.00     0.161 C 
ATOM      2  C   LIG d   1     -23.013  84.196 113.749  0.00  0.00     0.016 C 
ATOM      3  C   LIG d   1     -23.368  85.564 113.727  0.00  0.00     0.038 C 
ATOM      4  C   LIG d   1     -24.698  85.983 113.579  0.00  0.00     0.028 C 
ATOM      5  C   LIG d   1     -25.561  84.995 112.801  0.00  0.00    -0.047 C 
ATOM      6  C   LIG d   1     -25.400  83.590 113.424  0.00  0.00     0.091 C 
ENDROOT
BRANCH   1   7
ATOM      7  O   LIG d   1     -23.743  82.092 114.433  0.00  0.00    -0.368 OA
BRANCH   7   8
ATOM      8  C   LIG d   1     -24.358  82.291 115.730  0.00  0.00     0.119 C 
BRANCH   8   9
ATOM      9  C   LIG d   1     -23.223  82.492 116.754  0.00  0.00     0.028 C 
ATOM     10  C   LIG d   1     -23.259  83.886 117.403  0.00  0.00     0.006 C 
ENDBRANCH   8   9
BRANCH   8  11
ATOM     11  C   LIG d   1     -25.103  81.035 116.192  0.00  0.00     0.028 C 
ATOM     12  C   LIG d   1     -24.954  79.860 115.213  0.00  0.00     0.006 C 
ENDBRANCH   8  11
ENDBRANCH   7   8
ENDBRANCH   1   7
BRANCH   6  13
ATOM     13  N   LIG d   1     -26.146  82.547 112.671  0.00  0.00    -0.311 N 
ATOM     14  C   LIG d   1     -27.239  81.946 113.138  0.00  0.00     0.210 C 
ATOM     15  C   LIG d   1     -27.841  80.887 112.210  0.00  0.00     0.109 C 
ATOM     16  O   LIG d   1     -27.785  82.213 114.219  0.00  0.00    -0.276 OA
ATOM     17  H   LIG d   1     -25.790  82.292 111.771  0.00  0.00     0.149 HD
ENDBRANCH   6  13
BRANCH   5  18
ATOM     18  N   LIG d   1     -26.951  85.490 112.841  0.00  0.00     0.381 N 
ATOM     19  H   LIG d   1     -27.291  85.467 113.782  0.00  0.00    -0.090 HD
ATOM     20  H   LIG d   1     -27.527  84.885 112.283  0.00  0.00    -0.090 HD
ATOM     21  H   LIG d   1     -26.992  86.420 112.487  0.00  0.00    -0.090 HD
ENDBRANCH   5  18
BRANCH   3  22
ATOM     22  C   LIG d   1     -22.378  86.532 113.814  0.00  0.00     0.382 C 
ATOM     23  O   LIG d   1     -22.574  87.569 114.492  0.00  0.00    -0.241 OA
ATOM     24  O   LIG d   1     -21.310  86.401 113.188  0.00  0.00    -0.241 OA
ENDBRANCH   3  22
TORSDOF 7
ENDMDL
MODEL 9
REMARK VINA RESULT:      -4.5      1.837      4.487
REMARK  7 active torsions:
REMARK  status: ('A' for Active; 'I' for Inactive)
REMARK    1  A    between atoms: C_2  and  C_3 
REMARK    2  A    between atoms: C_3  and  O_6 
REMARK    3  A    between atoms: C_3  and  C_4 
REMARK    4  A    between atoms: C_7  and  O_6 
REMARK    5  A    between atoms: C_9  and  C_10 
REMARK    6  A    between atoms: N_15  and  C_14 
REMARK    7  A    between atoms: N_20  and  C_19 
REMARK       I    between atoms: C_22  and  N_20 
ROOT
ATOM      1  C   LIG d   1      -3.489  77.381 114.565  0.00  0.00     0.161 C 
ATOM      2  C   LIG d   1      -2.983  76.079 114.720  0.00  0.00     0.016 C 
ATOM      3  C   LIG d   1      -1.640  75.803 115.067  0.00  0.00     0.038 C 
ATOM      4  C   LIG d   1      -0.744  76.819 115.432  0.00  0.00     0.028 C 
ATOM      5  C   LIG d   1      -1.069  78.168 114.801  0.00  0.00    -0.047 C 
ATOM      6  C   LIG d   1      -2.555  78.502 115.067  0.00  0.00     0.091 C 
ENDROOT
BRANCH   1   7
ATOM      7  O   LIG d   1      -4.779  77.482 115.198  0.00  0.00    -0.368 OA
BRANCH   7   8
ATOM      8  C   LIG d   1      -5.146  76.389 116.075  0.00  0.00     0.119 C 
BRANCH   8   9
ATOM      9  C   LIG d   1      -6.566  75.936 115.682  0.00  0.00     0.028 C 
ATOM     10  C   LIG d   1      -6.955  74.597 116.330  0.00  0.00     0.006 C 
ENDBRANCH   8   9
BRANCH   8  11
ATOM     11  C   LIG d   1      -5.258  76.856 117.530  0.00  0.00     0.028 C 
ATOM     12  C   LIG d   1      -3.899  76.905 118.246  0.00  0.00     0.006 C 
ENDBRANCH   8  11
ENDBRANCH   7   8
ENDBRANCH   1   7
BRANCH   6  13
ATOM     13  N   LIG d   1      -2.978  79.767 114.412  0.00  0.00    -0.311 N 
ATOM     14  C   LIG d   1      -2.830  80.003 113.109  0.00  0.00     0.210 C 
ATOM     15  C   LIG d   1      -3.315  81.379 112.642  0.00  0.00     0.109 C 
ATOM     16  O   LIG d   1      -2.373  79.191 112.291  0.00  0.00    -0.276 OA
ATOM     17  H   LIG d   1      -3.388  80.469 114.997  0.00  0.00     0.149 HD
ENDBRANCH   6  13
BRANCH   5  18
ATOM     18  N   LIG d   1      -0.142  79.163 115.373  0.00  0.00     0.381 N 
ATOM     19  H   LIG d   1       0.457  78.722 116.043  0.00  0.00    -0.090 HD
ATOM     20  H   LIG d   1      -0.676  79.871 115.846  0.00  0.00    -0.090 HD
ATOM     21  H   LIG d   1       0.404  79.576 114.650  0.00  0.00    -0.090 HD
ENDBRANCH   5  18
BRANCH   3  22
ATOM     22  C   LIG d   1      -1.171  74.499 115.012  0.00  0.00     0.382 C 
ATOM     23  O   LIG d   1      -1.091  73.817 116.062  0.00  0.00    -0.241 OA
ATOM     24  O   LIG d   1      -0.785  74.011 113.933  0.00  0.00    -0.241 OA
ENDBRANCH   3  22
TORSDOF 7
ENDMDL
