MODEL 1
REMARK VINA RESULT:      -5.3      0.000      0.000
REMARK  7 active torsions:
REMARK  status: ('A' for Active; 'I' for Inactive)
REMARK    1  A    between atoms: C_2  and  C_3 
REMARK    2  A    between atoms: C_3  and  O_6 
REMARK    3  A    between atoms: C_3  and  C_4 
REMARK    4  A    between atoms: C_7  and  O_6 
REMARK    5  A    between atoms: C_9  and  C_10 
REMARK    6  A    between atoms: N_15  and  C_14 
REMARK    7  A    between atoms: N_20  and  C_19 
REMARK       I    between atoms: C_22  and  N_20 
ROOT
ATOM      1  C   LIG d   1      -2.808  79.862 114.986  0.00  0.00     0.161 C 
ATOM      2  C   LIG d   1      -2.334  81.021 114.351  0.00  0.00     0.016 C 
ATOM      3  C   LIG d   1      -1.673  81.009 113.101  0.00  0.00     0.038 C 
ATOM      4  C   LIG d   1      -1.575  79.845 112.325  0.00  0.00     0.028 C 
ATOM      5  C   LIG d   1      -1.592  78.563 113.151  0.00  0.00    -0.047 C 
ATOM      6  C   LIG d   1      -2.810  78.596 114.103  0.00  0.00     0.091 C 
ENDROOT
BRANCH   1   7
ATOM      7  O   LIG d   1      -4.125  80.101 115.521  0.00  0.00    -0.368 OA
BRANCH   7   8
ATOM      8  C   LIG d   1      -4.199  80.345 116.947  0.00  0.00     0.119 C 
BRANCH   8   9
ATOM      9  C   LIG d   1      -5.510  79.716 117.456  0.00  0.00     0.028 C 
ATOM     10  C   LIG d   1      -5.463  78.178 117.454  0.00  0.00     0.006 C 
ENDBRANCH   8   9
BRANCH   8  11
ATOM     11  C   LIG d   1      -4.323  81.841 117.251  0.00  0.00     0.028 C 
ATOM     12  C   LIG d   1      -3.105  82.399 118.004  0.00  0.00     0.006 C 
ENDBRANCH   8  11
ENDBRANCH   7   8
ENDBRANCH   1   7
BRANCH   6  13
ATOM     13  N   LIG d   1      -2.854  77.417 115.007  0.00  0.00    -0.311 N 
ATOM     14  C   LIG d   1      -3.549  76.313 114.739  0.00  0.00     0.210 C 
ATOM     15  C   LIG d   1      -3.475  75.224 115.814  0.00  0.00     0.109 C 
ATOM     16  O   LIG d   1      -4.193  76.118 113.697  0.00  0.00    -0.276 OA
ATOM     17  H   LIG d   1      -2.335  77.477 115.861  0.00  0.00     0.149 HD
ENDBRANCH   6  13
BRANCH   5  18
ATOM     18  N   LIG d   1      -1.624  77.427 112.211  0.00  0.00     0.381 N 
ATOM     19  H   LIG d   1      -0.697  77.226 111.892  0.00  0.00    -0.090 HD
ATOM     20  H   LIG d   1      -2.184  77.679 111.416  0.00  0.00    -0.090 HD
ATOM     21  H   LIG d   1      -2.011  76.625 112.658  0.00  0.00    -0.090 HD
ENDBRANCH   5  18
BRANCH   3  22
ATOM     22  C   LIG d   1      -1.065  82.165 112.634  0.00  0.00     0.382 C 
ATOM     23  O   LIG d   1      -1.661  82.895 111.805  0.00  0.00    -0.241 OA
ATOM     24  O   LIG d   1       0.088  82.463 112.996  0.00  0.00    -0.241 OA
ENDBRANCH   3  22
TORSDOF 7
ENDMDL
MODEL 2
REMARK VINA RESULT:      -4.8      1.517      2.265
REMARK  7 active torsions:
REMARK  status: ('A' for Active; 'I' for Inactive)
REMARK    1  A    between atoms: C_2  and  C_3 
REMARK    2  A    between atoms: C_3  and  O_6 
REMARK    3  A    between atoms: C_3  and  C_4 
REMARK    4  A    between atoms: C_7  and  O_6 
REMARK    5  A    between atoms: C_9  and  C_10 
REMARK    6  A    between atoms: N_15  and  C_14 
REMARK    7  A    between atoms: N_20  and  C_19 
REMARK       I    between atoms: C_22  and  N_20 
ROOT
ATOM      1  C   LIG d   1      -2.640  78.910 115.853  0.00  0.00     0.161 C 
ATOM      2  C   LIG d   1      -2.910  80.081 115.125  0.00  0.00     0.016 C 
ATOM      3  C   LIG d   1      -2.770  80.174 113.721  0.00  0.00     0.038 C 
ATOM      4  C   LIG d   1      -2.494  79.050 112.928  0.00  0.00     0.028 C 
ATOM      5  C   LIG d   1      -1.720  77.963 113.665  0.00  0.00    -0.047 C 
ATOM      6  C   LIG d   1      -2.445  77.644 114.993  0.00  0.00     0.091 C 
ENDROOT
BRANCH   1   7
ATOM      7  O   LIG d   1      -3.674  78.695 116.834  0.00  0.00    -0.368 OA
BRANCH   7   8
ATOM      8  C   LIG d   1      -4.462  79.856 117.194  0.00  0.00     0.119 C 
BRANCH   8   9
ATOM      9  C   LIG d   1      -3.947  80.362 118.555  0.00  0.00     0.028 C 
ATOM     10  C   LIG d   1      -3.235  81.721 118.444  0.00  0.00     0.006 C 
ENDBRANCH   8   9
BRANCH   8  11
ATOM     11  C   LIG d   1      -5.929  79.482 117.429  0.00  0.00     0.028 C 
ATOM     12  C   LIG d   1      -6.829  80.709 117.645  0.00  0.00     0.006 C 
ENDBRANCH   8  11
ENDBRANCH   7   8
ENDBRANCH   1   7
BRANCH   6  13
ATOM     13  N   LIG d   1      -1.708  76.650 115.816  0.00  0.00    -0.311 N 
ATOM     14  C   LIG d   1      -1.970  75.344 115.797  0.00  0.00     0.210 C 
ATOM     15  C   LIG d   1      -1.107  74.497 116.738  0.00  0.00     0.109 C 
ATOM     16  O   LIG d   1      -2.814  74.803 115.067  0.00  0.00    -0.276 OA
ATOM     17  H   LIG d   1      -0.985  76.999 116.415  0.00  0.00     0.149 HD
ENDBRANCH   6  13
BRANCH   5  18
ATOM     18  N   LIG d   1      -1.621  76.798 112.766  0.00  0.00     0.381 N 
ATOM     19  H   LIG d   1      -2.262  76.088 113.059  0.00  0.00    -0.090 HD
ATOM     20  H   LIG d   1      -0.690  76.424 112.820  0.00  0.00    -0.090 HD
ATOM     21  H   LIG d   1      -1.823  77.072 111.830  0.00  0.00    -0.090 HD
ENDBRANCH   5  18
BRANCH   3  22
ATOM     22  C   LIG d   1      -2.868  81.410 113.102  0.00  0.00     0.382 C 
ATOM     23  O   LIG d   1      -2.103  81.696 112.149  0.00  0.00    -0.241 OA
ATOM     24  O   LIG d   1      -3.681  82.260 113.512  0.00  0.00    -0.241 OA
ENDBRANCH   3  22
TORSDOF 7
ENDMDL
MODEL 3
REMARK VINA RESULT:      -4.6     18.327     21.843
REMARK  7 active torsions:
REMARK  status: ('A' for Active; 'I' for Inactive)
REMARK    1  A    between atoms: C_2  and  C_3 
REMARK    2  A    between atoms: C_3  and  O_6 
REMARK    3  A    between atoms: C_3  and  C_4 
REMARK    4  A    between atoms: C_7  and  O_6 
REMARK    5  A    between atoms: C_9  and  C_10 
REMARK    6  A    between atoms: N_15  and  C_14 
REMARK    7  A    between atoms: N_20  and  C_19 
REMARK       I    between atoms: C_22  and  N_20 
ROOT
ATOM      1  C   LIG d   1     -17.390  64.363 114.041  0.00  0.00     0.161 C 
ATOM      2  C   LIG d   1     -17.838  63.295 114.837  0.00  0.00     0.016 C 
ATOM      3  C   LIG d   1     -17.632  63.226 116.234  0.00  0.00     0.038 C 
ATOM      4  C   LIG d   1     -17.093  64.300 116.958  0.00  0.00     0.028 C 
ATOM      5  C   LIG d   1     -16.168  65.186 116.129  0.00  0.00    -0.047 C 
ATOM      6  C   LIG d   1     -16.898  65.595 114.829  0.00  0.00     0.091 C 
ENDROOT
BRANCH   1   7
ATOM      7  O   LIG d   1     -18.421  64.743 113.109  0.00  0.00    -0.368 OA
BRANCH   7   8
ATOM      8  C   LIG d   1     -19.725  64.148 113.322  0.00  0.00     0.119 C 
BRANCH   8   9
ATOM      9  C   LIG d   1     -20.173  63.523 111.987  0.00  0.00     0.028 C 
ATOM     10  C   LIG d   1     -20.553  62.040 112.131  0.00  0.00     0.006 C 
ENDBRANCH   8   9
BRANCH   8  11
ATOM     11  C   LIG d   1     -20.777  65.213 113.645  0.00  0.00     0.028 C 
ATOM     12  C   LIG d   1     -21.141  65.258 115.138  0.00  0.00     0.006 C 
ENDBRANCH   8  11
ENDBRANCH   7   8
ENDBRANCH   1   7
BRANCH   6  13
ATOM     13  N   LIG d   1     -16.034  66.394 113.921  0.00  0.00    -0.311 N 
ATOM     14  C   LIG d   1     -15.793  67.692 114.093  0.00  0.00     0.210 C 
ATOM     15  C   LIG d   1     -14.891  68.329 113.031  0.00  0.00     0.109 C 
ATOM     16  O   LIG d   1     -16.215  68.370 115.042  0.00  0.00    -0.276 OA
ATOM     17  H   LIG d   1     -15.625  65.915 113.142  0.00  0.00     0.149 HD
ENDBRANCH   6  13
BRANCH   5  18
ATOM     18  N   LIG d   1     -15.788  66.340 116.966  0.00  0.00     0.381 N 
ATOM     19  H   LIG d   1     -15.621  66.037 117.905  0.00  0.00    -0.090 HD
ATOM     20  H   LIG d   1     -16.547  66.998 116.977  0.00  0.00    -0.090 HD
ATOM     21  H   LIG d   1     -14.969  66.772 116.599  0.00  0.00    -0.090 HD
ENDBRANCH   5  18
BRANCH   3  22
ATOM     22  C   LIG d   1     -17.931  62.057 116.916  0.00  0.00     0.382 C 
ATOM     23  O   LIG d   1     -18.559  61.137 116.338  0.00  0.00    -0.241 OA
ATOM     24  O   LIG d   1     -17.619  61.927 118.115  0.00  0.00    -0.241 OA
ENDBRANCH   3  22
TORSDOF 7
ENDMDL
MODEL 4
REMARK VINA RESULT:      -4.5      1.370      2.209
REMARK  7 active torsions:
REMARK  status: ('A' for Active; 'I' for Inactive)
REMARK    1  A    between atoms: C_2  and  C_3 
REMARK    2  A    between atoms: C_3  and  O_6 
REMARK    3  A    between atoms: C_3  and  C_4 
REMARK    4  A    between atoms: C_7  and  O_6 
REMARK    5  A    between atoms: C_9  and  C_10 
REMARK    6  A    between atoms: N_15  and  C_14 
REMARK    7  A    between atoms: N_20  and  C_19 
REMARK       I    between atoms: C_22  and  N_20 
ROOT
ATOM      1  C   LIG d   1      -1.639  79.556 115.382  0.00  0.00     0.161 C 
ATOM      2  C   LIG d   1      -1.369  80.752 114.696  0.00  0.00     0.016 C 
ATOM      3  C   LIG d   1      -1.634  80.937 113.320  0.00  0.00     0.038 C 
ATOM      4  C   LIG d   1      -2.332  79.983 112.565  0.00  0.00     0.028 C 
ATOM      5  C   LIG d   1      -2.174  78.560 113.090  0.00  0.00    -0.047 C 
ATOM      6  C   LIG d   1      -2.502  78.543 114.600  0.00  0.00     0.091 C 
ENDROOT
BRANCH   1   7
ATOM      7  O   LIG d   1      -2.242  79.850 116.657  0.00  0.00    -0.368 OA
BRANCH   7   8
ATOM      8  C   LIG d   1      -2.365  81.253 116.996  0.00  0.00     0.119 C 
BRANCH   8   9
ATOM      9  C   LIG d   1      -1.486  81.508 118.236  0.00  0.00     0.028 C 
ATOM     10  C   LIG d   1      -0.743  82.853 118.161  0.00  0.00     0.006 C 
ENDBRANCH   8   9
BRANCH   8  11
ATOM     11  C   LIG d   1      -3.792  81.597 117.433  0.00  0.00     0.028 C 
ATOM     12  C   LIG d   1      -4.616  82.253 116.313  0.00  0.00     0.006 C 
ENDBRANCH   8  11
ENDBRANCH   7   8
ENDBRANCH   1   7
BRANCH   6  13
ATOM     13  N   LIG d   1      -2.290  77.206 115.212  0.00  0.00    -0.311 N 
ATOM     14  C   LIG d   1      -3.237  76.271 115.278  0.00  0.00     0.210 C 
ATOM     15  C   LIG d   1      -2.815  74.970 115.967  0.00  0.00     0.109 C 
ATOM     16  O   LIG d   1      -4.377  76.385 114.803  0.00  0.00    -0.276 OA
ATOM     17  H   LIG d   1      -1.384  77.017 115.594  0.00  0.00     0.149 HD
ENDBRANCH   6  13
BRANCH   5  18
ATOM     18  N   LIG d   1      -3.061  77.690 112.296  0.00  0.00     0.381 N 
ATOM     19  H   LIG d   1      -2.607  77.431 111.443  0.00  0.00    -0.090 HD
ATOM     20  H   LIG d   1      -3.896  78.200 112.066  0.00  0.00    -0.090 HD
ATOM     21  H   LIG d   1      -3.294  76.874 112.817  0.00  0.00    -0.090 HD
ENDBRANCH   5  18
BRANCH   3  22
ATOM     22  C   LIG d   1      -1.164  82.071 112.676  0.00  0.00     0.382 C 
ATOM     23  O   LIG d   1      -0.026  82.521 112.950  0.00  0.00    -0.241 OA
ATOM     24  O   LIG d   1      -1.881  82.675 111.856  0.00  0.00    -0.241 OA
ENDBRANCH   3  22
TORSDOF 7
ENDMDL
MODEL 5
REMARK VINA RESULT:      -4.5     20.309     21.630
REMARK  7 active torsions:
REMARK  status: ('A' for Active; 'I' for Inactive)
REMARK    1  A    between atoms: C_2  and  C_3 
REMARK    2  A    between atoms: C_3  and  O_6 
REMARK    3  A    between atoms: C_3  and  C_4 
REMARK    4  A    between atoms: C_7  and  O_6 
REMARK    5  A    between atoms: C_9  and  C_10 
REMARK    6  A    between atoms: N_15  and  C_14 
REMARK    7  A    between atoms: N_20  and  C_19 
REMARK       I    between atoms: C_22  and  N_20 
ROOT
ATOM      1  C   LIG d   1     -23.083  83.030 115.661  0.00  0.00     0.161 C 
ATOM      2  C   LIG d   1     -22.519  84.295 115.427  0.00  0.00     0.016 C 
ATOM      3  C   LIG d   1     -22.714  85.025 114.232  0.00  0.00     0.038 C 
ATOM      4  C   LIG d   1     -23.615  84.602 113.243  0.00  0.00     0.028 C 
ATOM      5  C   LIG d   1     -23.817  83.091 113.214  0.00  0.00    -0.047 C 
ATOM      6  C   LIG d   1     -24.158  82.603 114.640  0.00  0.00     0.091 C 
ENDROOT
BRANCH   1   7
ATOM      7  O   LIG d   1     -23.612  82.971 117.000  0.00  0.00    -0.368 OA
BRANCH   7   8
ATOM      8  C   LIG d   1     -24.990  83.390 117.161  0.00  0.00     0.119 C 
BRANCH   8   9
ATOM      9  C   LIG d   1     -24.985  84.690 117.987  0.00  0.00     0.028 C 
ATOM     10  C   LIG d   1     -25.374  85.920 117.149  0.00  0.00     0.006 C 
ENDBRANCH   8   9
BRANCH   8  11
ATOM     11  C   LIG d   1     -25.785  82.382 117.996  0.00  0.00     0.028 C 
ATOM     12  C   LIG d   1     -24.984  81.110 118.316  0.00  0.00     0.006 C 
ENDBRANCH   8  11
ENDBRANCH   7   8
ENDBRANCH   1   7
BRANCH   6  13
ATOM     13  N   LIG d   1     -24.289  81.124 114.717  0.00  0.00    -0.311 N 
ATOM     14  C   LIG d   1     -25.456  80.486 114.645  0.00  0.00     0.210 C 
ATOM     15  C   LIG d   1     -25.368  78.962 114.766  0.00  0.00     0.109 C 
ATOM     16  O   LIG d   1     -26.552  81.036 114.460  0.00  0.00    -0.276 OA
ATOM     17  H   LIG d   1     -23.446  80.597 114.836  0.00  0.00     0.149 HD
ENDBRANCH   6  13
BRANCH   5  18
ATOM     18  N   LIG d   1     -24.880  82.802 112.234  0.00  0.00     0.381 N 
ATOM     19  H   LIG d   1     -25.672  82.405 112.700  0.00  0.00    -0.090 HD
ATOM     20  H   LIG d   1     -24.537  82.131 111.569  0.00  0.00    -0.090 HD
ATOM     21  H   LIG d   1     -25.148  83.639 111.764  0.00  0.00    -0.090 HD
ENDBRANCH   5  18
BRANCH   3  22
ATOM     22  C   LIG d   1     -21.972  86.173 113.999  0.00  0.00     0.382 C 
ATOM     23  O   LIG d   1     -22.187  87.207 114.676  0.00  0.00    -0.241 OA
ATOM     24  O   LIG d   1     -21.120  86.201 113.090  0.00  0.00    -0.241 OA
ENDBRANCH   3  22
TORSDOF 7
ENDMDL
MODEL 6
REMARK VINA RESULT:      -4.5     17.892     21.047
REMARK  7 active torsions:
REMARK  status: ('A' for Active; 'I' for Inactive)
REMARK    1  A    between atoms: C_2  and  C_3 
REMARK    2  A    between atoms: C_3  and  O_6 
REMARK    3  A    between atoms: C_3  and  C_4 
REMARK    4  A    between atoms: C_7  and  O_6 
REMARK    5  A    between atoms: C_9  and  C_10 
REMARK    6  A    between atoms: N_15  and  C_14 
REMARK    7  A    between atoms: N_20  and  C_19 
REMARK       I    between atoms: C_22  and  N_20 
ROOT
ATOM      1  C   LIG d   1     -17.626  65.218 115.305  0.00  0.00     0.161 C 
ATOM      2  C   LIG d   1     -16.702  65.865 114.469  0.00  0.00     0.016 C 
ATOM      3  C   LIG d   1     -16.168  67.146 114.743  0.00  0.00     0.038 C 
ATOM      4  C   LIG d   1     -16.409  67.805 115.957  0.00  0.00     0.028 C 
ATOM      5  C   LIG d   1     -17.733  67.414 116.606  0.00  0.00    -0.047 C 
ATOM      6  C   LIG d   1     -17.815  65.873 116.689  0.00  0.00     0.091 C 
ENDROOT
BRANCH   1   7
ATOM      7  O   LIG d   1     -17.262  63.831 115.453  0.00  0.00    -0.368 OA
BRANCH   7   8
ATOM      8  C   LIG d   1     -18.044  62.882 114.686  0.00  0.00     0.119 C 
BRANCH   8   9
ATOM      9  C   LIG d   1     -19.370  63.571 114.311  0.00  0.00     0.028 C 
ATOM     10  C   LIG d   1     -19.605  63.603 112.791  0.00  0.00     0.006 C 
ENDBRANCH   8   9
BRANCH   8  11
ATOM     11  C   LIG d   1     -18.441  61.671 115.536  0.00  0.00     0.028 C 
ATOM     12  C   LIG d   1     -19.959  61.573 115.759  0.00  0.00     0.006 C 
ENDBRANCH   8  11
ENDBRANCH   7   8
ENDBRANCH   1   7
BRANCH   6  13
ATOM     13  N   LIG d   1     -19.115  65.403 117.235  0.00  0.00    -0.311 N 
ATOM     14  C   LIG d   1     -19.228  64.385 118.086  0.00  0.00     0.210 C 
ATOM     15  C   LIG d   1     -20.662  64.052 118.509  0.00  0.00     0.109 C 
ATOM     16  O   LIG d   1     -18.274  63.745 118.555  0.00  0.00    -0.276 OA
ATOM     17  H   LIG d   1     -19.938  65.886 116.932  0.00  0.00     0.149 HD
ENDBRANCH   6  13
BRANCH   5  18
ATOM     18  N   LIG d   1     -17.791  68.068 117.927  0.00  0.00     0.381 N 
ATOM     19  H   LIG d   1     -18.040  69.031 117.818  0.00  0.00    -0.090 HD
ATOM     20  H   LIG d   1     -16.882  68.023 118.353  0.00  0.00    -0.090 HD
ATOM     21  H   LIG d   1     -18.460  67.609 118.506  0.00  0.00    -0.090 HD
ENDBRANCH   5  18
BRANCH   3  22
ATOM     22  C   LIG d   1     -15.415  67.797 113.778  0.00  0.00     0.382 C 
ATOM     23  O   LIG d   1     -15.987  68.430 112.858  0.00  0.00    -0.241 OA
ATOM     24  O   LIG d   1     -14.172  67.723 113.790  0.00  0.00    -0.241 OA
ENDBRANCH   3  22
TORSDOF 7
ENDMDL
MODEL 7
REMARK VINA RESULT:      -4.4      3.476      6.821
REMARK  7 active torsions:
REMARK  status: ('A' for Active; 'I' for Inactive)
REMARK    1  A    between atoms: C_2  and  C_3 
REMARK    2  A    between atoms: C_3  and  O_6 
REMARK    3  A    between atoms: C_3  and  C_4 
REMARK    4  A    between atoms: C_7  and  O_6 
REMARK    5  A    between atoms: C_9  and  C_10 
REMARK    6  A    between atoms: N_15  and  C_14 
REMARK    7  A    between atoms: N_20  and  C_19 
REMARK       I    between atoms: C_22  and  N_20 
ROOT
ATOM      1  C   LIG d   1      -6.453  79.044 117.731  0.00  0.00     0.161 C 
ATOM      2  C   LIG d   1      -7.805  79.338 117.973  0.00  0.00     0.016 C 
ATOM      3  C   LIG d   1      -8.379  80.609 117.739  0.00  0.00     0.038 C 
ATOM      4  C   LIG d   1      -7.670  81.636 117.099  0.00  0.00     0.028 C 
ATOM      5  C   LIG d   1      -6.161  81.546 117.299  0.00  0.00    -0.047 C 
ATOM      6  C   LIG d   1      -5.691  80.120 116.929  0.00  0.00     0.091 C 
ENDROOT
BRANCH   1   7
ATOM      7  O   LIG d   1      -6.340  77.762 117.081  0.00  0.00    -0.368 OA
BRANCH   7   8
ATOM      8  C   LIG d   1      -5.889  76.664 117.912  0.00  0.00     0.119 C 
BRANCH   8   9
ATOM      9  C   LIG d   1      -4.437  76.345 117.509  0.00  0.00     0.028 C 
ATOM     10  C   LIG d   1      -4.323  75.871 116.050  0.00  0.00     0.006 C 
ENDBRANCH   8   9
BRANCH   8  11
ATOM     11  C   LIG d   1      -6.681  75.385 117.623  0.00  0.00     0.028 C 
ATOM     12  C   LIG d   1      -8.055  75.665 116.993  0.00  0.00     0.006 C 
ENDBRANCH   8  11
ENDBRANCH   7   8
ENDBRANCH   1   7
BRANCH   6  13
ATOM     13  N   LIG d   1      -4.239  79.920 117.176  0.00  0.00    -0.311 N 
ATOM     14  C   LIG d   1      -3.322  79.941 116.210  0.00  0.00     0.210 C 
ATOM     15  C   LIG d   1      -1.884  79.693 116.678  0.00  0.00     0.109 C 
ATOM     16  O   LIG d   1      -3.558  80.173 115.015  0.00  0.00    -0.276 OA
ATOM     17  H   LIG d   1      -3.955  79.757 118.122  0.00  0.00     0.149 HD
ENDBRANCH   6  13
BRANCH   5  18
ATOM     18  N   LIG d   1      -5.538  82.593 116.468  0.00  0.00     0.381 N 
ATOM     19  H   LIG d   1      -6.198  82.930 115.795  0.00  0.00    -0.090 HD
ATOM     20  H   LIG d   1      -4.759  82.196 115.974  0.00  0.00    -0.090 HD
ATOM     21  H   LIG d   1      -5.227  83.345 117.043  0.00  0.00    -0.090 HD
ENDBRANCH   5  18
BRANCH   3  22
ATOM     22  C   LIG d   1      -9.666  80.874 118.183  0.00  0.00     0.382 C 
ATOM     23  O   LIG d   1      -9.978  82.034 118.542  0.00  0.00    -0.241 OA
ATOM     24  O   LIG d   1     -10.505  79.957 118.270  0.00  0.00    -0.241 OA
ENDBRANCH   3  22
TORSDOF 7
ENDMDL
MODEL 8
REMARK VINA RESULT:      -4.4     21.253     23.148
REMARK  7 active torsions:
REMARK  status: ('A' for Active; 'I' for Inactive)
REMARK    1  A    between atoms: C_2  and  C_3 
REMARK    2  A    between atoms: C_3  and  O_6 
REMARK    3  A    between atoms: C_3  and  C_4 
REMARK    4  A    between atoms: C_7  and  O_6 
REMARK    5  A    between atoms: C_9  and  C_10 
REMARK    6  A    between atoms: N_15  and  C_14 
REMARK    7  A    between atoms: N_20  and  C_19 
REMARK       I    between atoms: C_22  and  N_20 
ROOT
ATOM      1  C   LIG d   1     -24.744  83.752 112.476  0.00  0.00     0.161 C 
ATOM      2  C   LIG d   1     -23.426  84.015 112.886  0.00  0.00     0.016 C 
ATOM      3  C   LIG d   1     -23.069  85.114 113.701  0.00  0.00     0.038 C 
ATOM      4  C   LIG d   1     -24.034  85.945 114.290  0.00  0.00     0.028 C 
ATOM      5  C   LIG d   1     -25.335  86.019 113.497  0.00  0.00    -0.047 C 
ATOM      6  C   LIG d   1     -25.824  84.583 113.200  0.00  0.00     0.091 C 
ENDROOT
BRANCH   1   7
ATOM      7  O   LIG d   1     -25.024  82.344 112.607  0.00  0.00    -0.368 OA
BRANCH   7   8
ATOM      8  C   LIG d   1     -25.370  81.883 113.936  0.00  0.00     0.119 C 
BRANCH   8   9
ATOM      9  C   LIG d   1     -24.363  80.782 114.321  0.00  0.00     0.028 C 
ATOM     10  C   LIG d   1     -24.975  79.728 115.258  0.00  0.00     0.006 C 
ENDBRANCH   8   9
BRANCH   8  11
ATOM     11  C   LIG d   1     -26.741  81.201 113.949  0.00  0.00     0.028 C 
ATOM     12  C   LIG d   1     -27.286  80.930 112.538  0.00  0.00     0.006 C 
ENDBRANCH   8  11
ENDBRANCH   7   8
ENDBRANCH   1   7
BRANCH   6  13
ATOM     13  N   LIG d   1     -27.047  84.564 112.356  0.00  0.00    -0.311 N 
ATOM     14  C   LIG d   1     -28.279  84.461 112.852  0.00  0.00     0.210 C 
ATOM     15  C   LIG d   1     -29.397  84.440 111.805  0.00  0.00     0.109 C 
ATOM     16  O   LIG d   1     -28.553  84.418 114.060  0.00  0.00    -0.276 OA
ATOM     17  H   LIG d   1     -26.918  84.626 111.365  0.00  0.00     0.149 HD
ENDBRANCH   6  13
BRANCH   5  18
ATOM     18  N   LIG d   1     -26.297  86.804 114.292  0.00  0.00     0.381 N 
ATOM     19  H   LIG d   1     -27.156  86.900 113.787  0.00  0.00    -0.090 HD
ATOM     20  H   LIG d   1     -25.918  87.722 114.447  0.00  0.00    -0.090 HD
ATOM     21  H   LIG d   1     -26.466  86.355 115.165  0.00  0.00    -0.090 HD
ENDBRANCH   5  18
BRANCH   3  22
ATOM     22  C   LIG d   1     -21.731  85.415 113.901  0.00  0.00     0.382 C 
ATOM     23  O   LIG d   1     -21.051  84.740 114.711  0.00  0.00    -0.241 OA
ATOM     24  O   LIG d   1     -21.206  86.381 113.316  0.00  0.00    -0.241 OA
ENDBRANCH   3  22
TORSDOF 7
ENDMDL
MODEL 9
REMARK VINA RESULT:      -4.3     20.618     22.264
REMARK  7 active torsions:
REMARK  status: ('A' for Active; 'I' for Inactive)
REMARK    1  A    between atoms: C_2  and  C_3 
REMARK    2  A    between atoms: C_3  and  O_6 
REMARK    3  A    between atoms: C_3  and  C_4 
REMARK    4  A    between atoms: C_7  and  O_6 
REMARK    5  A    between atoms: C_9  and  C_10 
REMARK    6  A    between atoms: N_15  and  C_14 
REMARK    7  A    between atoms: N_20  and  C_19 
REMARK       I    between atoms: C_22  and  N_20 
ROOT
ATOM      1  C   LIG d   1     -23.812  82.947 113.229  0.00  0.00     0.161 C 
ATOM      2  C   LIG d   1     -22.859  83.923 113.565  0.00  0.00     0.016 C 
ATOM      3  C   LIG d   1     -23.146  85.306 113.614  0.00  0.00     0.038 C 
ATOM      4  C   LIG d   1     -24.453  85.798 113.477  0.00  0.00     0.028 C 
ATOM      5  C   LIG d   1     -25.354  84.897 112.638  0.00  0.00    -0.047 C 
ATOM      6  C   LIG d   1     -25.269  83.454 113.184  0.00  0.00     0.091 C 
ENDROOT
BRANCH   1   7
ATOM      7  O   LIG d   1     -23.699  81.824 114.125  0.00  0.00    -0.368 OA
BRANCH   7   8
ATOM      8  C   LIG d   1     -24.346  81.970 115.413  0.00  0.00     0.119 C 
BRANCH   8   9
ATOM      9  C   LIG d   1     -23.238  82.105 116.476  0.00  0.00     0.028 C 
ATOM     10  C   LIG d   1     -23.258  83.475 117.173  0.00  0.00     0.006 C 
ENDBRANCH   8   9
BRANCH   8  11
ATOM     11  C   LIG d   1     -25.121  80.705 115.794  0.00  0.00     0.028 C 
ATOM     12  C   LIG d   1     -24.932  79.564 114.782  0.00  0.00     0.006 C 
ENDBRANCH   8  11
ENDBRANCH   7   8
ENDBRANCH   1   7
BRANCH   6  13
ATOM     13  N   LIG d   1     -26.055  82.492 112.368  0.00  0.00    -0.311 N 
ATOM     14  C   LIG d   1     -27.171  81.907 112.798  0.00  0.00     0.210 C 
ATOM     15  C   LIG d   1     -27.814  80.933 111.806  0.00  0.00     0.109 C 
ATOM     16  O   LIG d   1     -27.707  82.126 113.895  0.00  0.00    -0.276 OA
ATOM     17  H   LIG d   1     -25.708  82.280 111.453  0.00  0.00     0.149 HD
ENDBRANCH   6  13
BRANCH   5  18
ATOM     18  N   LIG d   1     -26.717  85.456 112.691  0.00  0.00     0.381 N 
ATOM     19  H   LIG d   1     -27.289  84.898 113.294  0.00  0.00    -0.090 HD
ATOM     20  H   LIG d   1     -27.115  85.433 111.769  0.00  0.00    -0.090 HD
ATOM     21  H   LIG d   1     -26.688  86.395 113.025  0.00  0.00    -0.090 HD
ENDBRANCH   5  18
BRANCH   3  22
ATOM     22  C   LIG d   1     -22.112  86.218 113.764  0.00  0.00     0.382 C 
ATOM     23  O   LIG d   1     -22.206  87.139 114.611  0.00  0.00    -0.241 OA
ATOM     24  O   LIG d   1     -21.106  86.158 113.032  0.00  0.00    -0.241 OA
ENDBRANCH   3  22
TORSDOF 7
ENDMDL
