MODEL 1
REMARK VINA RESULT:      -5.2      0.000      0.000
REMARK  7 active torsions:
REMARK  status: ('A' for Active; 'I' for Inactive)
REMARK    1  A    between atoms: C_2  and  C_3 
REMARK    2  A    between atoms: C_3  and  O_6 
REMARK    3  A    between atoms: C_3  and  C_4 
REMARK    4  A    between atoms: C_7  and  O_6 
REMARK    5  A    between atoms: C_9  and  C_10 
REMARK    6  A    between atoms: N_15  and  C_14 
REMARK    7  A    between atoms: N_20  and  C_19 
REMARK       I    between atoms: C_22  and  N_20 
ROOT
ATOM      1  C   LIG d   1      -3.273  75.468 116.419  0.00  0.00     0.161 C 
ATOM      2  C   LIG d   1      -4.236  76.410 116.818  0.00  0.00     0.016 C 
ATOM      3  C   LIG d   1      -4.193  77.773 116.443  0.00  0.00     0.038 C 
ATOM      4  C   LIG d   1      -3.262  78.257 115.512  0.00  0.00     0.028 C 
ATOM      5  C   LIG d   1      -1.967  77.452 115.476  0.00  0.00    -0.047 C 
ATOM      6  C   LIG d   1      -2.313  75.954 115.314  0.00  0.00     0.091 C 
ENDROOT
BRANCH   1   7
ATOM      7  O   LIG d   1      -3.924  74.246 116.016  0.00  0.00    -0.368 OA
BRANCH   7   8
ATOM      8  C   LIG d   1      -5.263  74.383 115.481  0.00  0.00     0.119 C 
BRANCH   8   9
ATOM      9  C   LIG d   1      -6.003  73.056 115.739  0.00  0.00     0.028 C 
ATOM     10  C   LIG d   1      -7.426  73.273 116.279  0.00  0.00     0.006 C 
ENDBRANCH   8   9
BRANCH   8  11
ATOM     11  C   LIG d   1      -5.241  74.546 113.959  0.00  0.00     0.028 C 
ATOM     12  C   LIG d   1      -6.032  75.774 113.479  0.00  0.00     0.006 C 
ENDBRANCH   8  11
ENDBRANCH   7   8
ENDBRANCH   1   7
BRANCH   6  13
ATOM     13  N   LIG d   1      -1.106  75.086 115.353  0.00  0.00    -0.311 N 
ATOM     14  C   LIG d   1      -0.459  74.680 114.263  0.00  0.00     0.210 C 
ATOM     15  C   LIG d   1       0.748  73.775 114.527  0.00  0.00     0.109 C 
ATOM     16  O   LIG d   1      -0.752  75.009 113.103  0.00  0.00    -0.276 OA
ATOM     17  H   LIG d   1      -0.782  74.798 116.256  0.00  0.00     0.149 HD
ENDBRANCH   6  13
BRANCH   5  18
ATOM     18  N   LIG d   1      -1.145  77.979 114.371  0.00  0.00     0.381 N 
ATOM     19  H   LIG d   1      -0.175  77.895 114.600  0.00  0.00    -0.090 HD
ATOM     20  H   LIG d   1      -1.357  78.953 114.244  0.00  0.00    -0.090 HD
ATOM     21  H   LIG d   1      -1.340  77.477 113.532  0.00  0.00    -0.090 HD
ENDBRANCH   5  18
BRANCH   3  22
ATOM     22  C   LIG d   1      -5.066  78.675 117.032  0.00  0.00     0.382 C 
ATOM     23  O   LIG d   1      -6.266  78.358 117.216  0.00  0.00    -0.241 OA
ATOM     24  O   LIG d   1      -4.679  79.819 117.340  0.00  0.00    -0.241 OA
ENDBRANCH   3  22
TORSDOF 7
ENDMDL
MODEL 2
REMARK VINA RESULT:      -5.1      2.942      6.050
REMARK  7 active torsions:
REMARK  status: ('A' for Active; 'I' for Inactive)
REMARK    1  A    between atoms: C_2  and  C_3 
REMARK    2  A    between atoms: C_3  and  O_6 
REMARK    3  A    between atoms: C_3  and  C_4 
REMARK    4  A    between atoms: C_7  and  O_6 
REMARK    5  A    between atoms: C_9  and  C_10 
REMARK    6  A    between atoms: N_15  and  C_14 
REMARK    7  A    between atoms: N_20  and  C_19 
REMARK       I    between atoms: C_22  and  N_20 
ROOT
ATOM      1  C   LIG d   1      -5.418  75.642 116.044  0.00  0.00     0.161 C 
ATOM      2  C   LIG d   1      -5.903  74.370 115.695  0.00  0.00     0.016 C 
ATOM      3  C   LIG d   1      -7.112  73.833 116.195  0.00  0.00     0.038 C 
ATOM      4  C   LIG d   1      -7.999  74.599 116.966  0.00  0.00     0.028 C 
ATOM      5  C   LIG d   1      -7.314  75.709 117.756  0.00  0.00    -0.047 C 
ATOM      6  C   LIG d   1      -6.428  76.534 116.796  0.00  0.00     0.091 C 
ENDROOT
BRANCH   1   7
ATOM      7  O   LIG d   1      -4.930  76.318 114.868  0.00  0.00    -0.368 OA
BRANCH   7   8
ATOM      8  C   LIG d   1      -3.496  76.285 114.664  0.00  0.00     0.119 C 
BRANCH   8   9
ATOM      9  C   LIG d   1      -2.841  75.979 116.025  0.00  0.00     0.028 C 
ATOM     10  C   LIG d   1      -1.530  75.189 115.881  0.00  0.00     0.006 C 
ENDBRANCH   8   9
BRANCH   8  11
ATOM     11  C   LIG d   1      -2.960  77.661 114.257  0.00  0.00     0.028 C 
ATOM     12  C   LIG d   1      -2.993  78.678 115.409  0.00  0.00     0.006 C 
ENDBRANCH   8  11
ENDBRANCH   7   8
ENDBRANCH   1   7
BRANCH   6  13
ATOM     13  N   LIG d   1      -5.656  77.589 117.502  0.00  0.00    -0.311 N 
ATOM     14  C   LIG d   1      -6.146  78.797 117.776  0.00  0.00     0.210 C 
ATOM     15  C   LIG d   1      -5.176  79.741 118.494  0.00  0.00     0.109 C 
ATOM     16  O   LIG d   1      -7.302  79.166 117.521  0.00  0.00    -0.276 OA
ATOM     17  H   LIG d   1      -4.719  77.364 117.774  0.00  0.00     0.149 HD
ENDBRANCH   6  13
BRANCH   5  18
ATOM     18  N   LIG d   1      -8.369  76.511 118.403  0.00  0.00     0.381 N 
ATOM     19  H   LIG d   1      -7.963  77.316 118.837  0.00  0.00    -0.090 HD
ATOM     20  H   LIG d   1      -8.808  75.956 119.117  0.00  0.00    -0.090 HD
ATOM     21  H   LIG d   1      -9.045  76.794 117.729  0.00  0.00    -0.090 HD
ENDBRANCH   5  18
BRANCH   3  22
ATOM     22  C   LIG d   1      -7.423  72.503 115.958  0.00  0.00     0.382 C 
ATOM     23  O   LIG d   1      -8.544  72.052 116.297  0.00  0.00    -0.241 OA
ATOM     24  O   LIG d   1      -6.582  71.738 115.450  0.00  0.00    -0.241 OA
ENDBRANCH   3  22
TORSDOF 7
ENDMDL
MODEL 3
REMARK VINA RESULT:      -5.0      2.241      4.476
REMARK  7 active torsions:
REMARK  status: ('A' for Active; 'I' for Inactive)
REMARK    1  A    between atoms: C_2  and  C_3 
REMARK    2  A    between atoms: C_3  and  O_6 
REMARK    3  A    between atoms: C_3  and  C_4 
REMARK    4  A    between atoms: C_7  and  O_6 
REMARK    5  A    between atoms: C_9  and  C_10 
REMARK    6  A    between atoms: N_15  and  C_14 
REMARK    7  A    between atoms: N_20  and  C_19 
REMARK       I    between atoms: C_22  and  N_20 
ROOT
ATOM      1  C   LIG d   1      -2.927  76.600 114.534  0.00  0.00     0.161 C 
ATOM      2  C   LIG d   1      -2.493  75.503 115.298  0.00  0.00     0.016 C 
ATOM      3  C   LIG d   1      -1.506  75.598 116.305  0.00  0.00     0.038 C 
ATOM      4  C   LIG d   1      -0.989  76.834 116.723  0.00  0.00     0.028 C 
ATOM      5  C   LIG d   1      -1.027  77.904 115.638  0.00  0.00    -0.047 C 
ATOM      6  C   LIG d   1      -2.455  77.975 115.052  0.00  0.00     0.091 C 
ENDROOT
BRANCH   1   7
ATOM      7  O   LIG d   1      -4.363  76.575 114.415  0.00  0.00    -0.368 OA
BRANCH   7   8
ATOM      8  C   LIG d   1      -5.078  75.882 115.468  0.00  0.00     0.119 C 
BRANCH   8   9
ATOM      9  C   LIG d   1      -6.148  74.999 114.797  0.00  0.00     0.028 C 
ATOM     10  C   LIG d   1      -5.992  73.512 115.158  0.00  0.00     0.006 C 
ENDBRANCH   8   9
BRANCH   8  11
ATOM     11  C   LIG d   1      -5.857  76.863 116.350  0.00  0.00     0.028 C 
ATOM     12  C   LIG d   1      -5.178  77.111 117.707  0.00  0.00     0.006 C 
ENDBRANCH   8  11
ENDBRANCH   7   8
ENDBRANCH   1   7
BRANCH   6  13
ATOM     13  N   LIG d   1      -2.559  78.939 113.925  0.00  0.00    -0.311 N 
ATOM     14  C   LIG d   1      -2.938  80.206 114.078  0.00  0.00     0.210 C 
ATOM     15  C   LIG d   1      -2.997  81.024 112.783  0.00  0.00     0.109 C 
ATOM     16  O   LIG d   1      -3.201  80.740 115.166  0.00  0.00    -0.276 OA
ATOM     17  H   LIG d   1      -2.334  78.598 113.011  0.00  0.00     0.149 HD
ENDBRANCH   6  13
BRANCH   5  18
ATOM     18  N   LIG d   1      -0.589  79.173 116.248  0.00  0.00     0.381 N 
ATOM     19  H   LIG d   1      -0.101  78.988 117.102  0.00  0.00    -0.090 HD
ATOM     20  H   LIG d   1      -1.399  79.728 116.462  0.00  0.00    -0.090 HD
ATOM     21  H   LIG d   1       0.004  79.668 115.619  0.00  0.00    -0.090 HD
ENDBRANCH   5  18
BRANCH   3  22
ATOM     22  C   LIG d   1      -0.995  74.443 116.878  0.00  0.00     0.382 C 
ATOM     23  O   LIG d   1       0.050  73.924 116.418  0.00  0.00    -0.241 OA
ATOM     24  O   LIG d   1      -1.592  73.889 117.821  0.00  0.00    -0.241 OA
ENDBRANCH   3  22
TORSDOF 7
ENDMDL
MODEL 4
REMARK VINA RESULT:      -4.8     12.592     15.986
REMARK  7 active torsions:
REMARK  status: ('A' for Active; 'I' for Inactive)
REMARK    1  A    between atoms: C_2  and  C_3 
REMARK    2  A    between atoms: C_3  and  O_6 
REMARK    3  A    between atoms: C_3  and  C_4 
REMARK    4  A    between atoms: C_7  and  O_6 
REMARK    5  A    between atoms: C_9  and  C_10 
REMARK    6  A    between atoms: N_15  and  C_14 
REMARK    7  A    between atoms: N_20  and  C_19 
REMARK       I    between atoms: C_22  and  N_20 
ROOT
ATOM      1  C   LIG d   1      11.283  78.981 114.037  0.00  0.00     0.161 C 
ATOM      2  C   LIG d   1       9.950  79.025 114.479  0.00  0.00     0.016 C 
ATOM      3  C   LIG d   1       9.282  77.917 115.049  0.00  0.00     0.038 C 
ATOM      4  C   LIG d   1       9.954  76.725 115.357  0.00  0.00     0.028 C 
ATOM      5  C   LIG d   1      11.166  76.465 114.469  0.00  0.00    -0.047 C 
ATOM      6  C   LIG d   1      12.065  77.723 114.467  0.00  0.00     0.091 C 
ENDROOT
BRANCH   1   7
ATOM      7  O   LIG d   1      11.977  80.172 114.460  0.00  0.00    -0.368 OA
BRANCH   7   8
ATOM      8  C   LIG d   1      12.412  81.064 113.405  0.00  0.00     0.119 C 
BRANCH   8   9
ATOM      9  C   LIG d   1      11.524  80.795 112.175  0.00  0.00     0.028 C 
ATOM     10  C   LIG d   1      10.531  81.938 111.906  0.00  0.00     0.006 C 
ENDBRANCH   8   9
BRANCH   8  11
ATOM     11  C   LIG d   1      13.839  80.740 112.954  0.00  0.00     0.028 C 
ATOM     12  C   LIG d   1      14.877  80.947 114.068  0.00  0.00     0.006 C 
ENDBRANCH   8  11
ENDBRANCH   7   8
ENDBRANCH   1   7
BRANCH   6  13
ATOM     13  N   LIG d   1      13.231  77.585 113.556  0.00  0.00    -0.311 N 
ATOM     14  C   LIG d   1      14.430  77.165 113.957  0.00  0.00     0.210 C 
ATOM     15  C   LIG d   1      15.498  77.115 112.860  0.00  0.00     0.109 C 
ATOM     16  O   LIG d   1      14.702  76.799 115.110  0.00  0.00    -0.276 OA
ATOM     17  H   LIG d   1      13.091  77.831 112.595  0.00  0.00     0.149 HD
ENDBRANCH   6  13
BRANCH   5  18
ATOM     18  N   LIG d   1      11.851  75.266 114.988  0.00  0.00     0.381 N 
ATOM     19  H   LIG d   1      11.375  74.443 114.676  0.00  0.00    -0.090 HD
ATOM     20  H   LIG d   1      11.824  75.285 115.992  0.00  0.00    -0.090 HD
ATOM     21  H   LIG d   1      12.796  75.250 114.674  0.00  0.00    -0.090 HD
ENDBRANCH   5  18
BRANCH   3  22
ATOM     22  C   LIG d   1       7.917  77.982 115.280  0.00  0.00     0.382 C 
ATOM     23  O   LIG d   1       7.164  77.077 114.847  0.00  0.00    -0.241 OA
ATOM     24  O   LIG d   1       7.423  78.956 115.879  0.00  0.00    -0.241 OA
ENDBRANCH   3  22
TORSDOF 7
ENDMDL
MODEL 5
REMARK VINA RESULT:      -4.7      2.853      3.751
REMARK  7 active torsions:
REMARK  status: ('A' for Active; 'I' for Inactive)
REMARK    1  A    between atoms: C_2  and  C_3 
REMARK    2  A    between atoms: C_3  and  O_6 
REMARK    3  A    between atoms: C_3  and  C_4 
REMARK    4  A    between atoms: C_7  and  O_6 
REMARK    5  A    between atoms: C_9  and  C_10 
REMARK    6  A    between atoms: N_15  and  C_14 
REMARK    7  A    between atoms: N_20  and  C_19 
REMARK       I    between atoms: C_22  and  N_20 
ROOT
ATOM      1  C   LIG d   1      -2.776  78.092 114.620  0.00  0.00     0.161 C 
ATOM      2  C   LIG d   1      -3.070  79.110 113.698  0.00  0.00     0.016 C 
ATOM      3  C   LIG d   1      -2.180  80.166 113.395  0.00  0.00     0.038 C 
ATOM      4  C   LIG d   1      -0.866  80.192 113.885  0.00  0.00     0.028 C 
ATOM      5  C   LIG d   1      -0.699  79.458 115.211  0.00  0.00    -0.047 C 
ATOM      6  C   LIG d   1      -1.304  78.042 115.081  0.00  0.00     0.091 C 
ENDROOT
BRANCH   1   7
ATOM      7  O   LIG d   1      -3.176  76.816 114.083  0.00  0.00    -0.368 OA
BRANCH   7   8
ATOM      8  C   LIG d   1      -4.058  76.022 114.915  0.00  0.00     0.119 C 
BRANCH   8   9
ATOM      9  C   LIG d   1      -5.081  75.339 113.987  0.00  0.00     0.028 C 
ATOM     10  C   LIG d   1      -5.969  74.329 114.733  0.00  0.00     0.006 C 
ENDBRANCH   8   9
BRANCH   8  11
ATOM     11  C   LIG d   1      -4.887  76.907 115.851  0.00  0.00     0.028 C 
ATOM     12  C   LIG d   1      -4.627  76.612 117.336  0.00  0.00     0.006 C 
ENDBRANCH   8  11
ENDBRANCH   7   8
ENDBRANCH   1   7
BRANCH   6  13
ATOM     13  N   LIG d   1      -1.258  77.286 116.359  0.00  0.00    -0.311 N 
ATOM     14  C   LIG d   1      -0.920  76.000 116.439  0.00  0.00     0.210 C 
ATOM     15  C   LIG d   1      -0.957  75.408 117.852  0.00  0.00     0.109 C 
ATOM     16  O   LIG d   1      -0.562  75.302 115.479  0.00  0.00    -0.276 OA
ATOM     17  H   LIG d   1      -1.503  77.784 117.193  0.00  0.00     0.149 HD
ENDBRANCH   6  13
BRANCH   5  18
ATOM     18  N   LIG d   1       0.740  79.445 115.535  0.00  0.00     0.381 N 
ATOM     19  H   LIG d   1       0.914  78.797 116.277  0.00  0.00    -0.090 HD
ATOM     20  H   LIG d   1       1.012  80.361 115.847  0.00  0.00    -0.090 HD
ATOM     21  H   LIG d   1       1.268  79.189 114.730  0.00  0.00    -0.090 HD
ENDBRANCH   5  18
BRANCH   3  22
ATOM     22  C   LIG d   1      -2.617  81.233 112.625  0.00  0.00     0.382 C 
ATOM     23  O   LIG d   1      -3.804  81.629 112.717  0.00  0.00    -0.241 OA
ATOM     24  O   LIG d   1      -1.852  81.776 111.806  0.00  0.00    -0.241 OA
ENDBRANCH   3  22
TORSDOF 7
ENDMDL
MODEL 6
REMARK VINA RESULT:      -4.4      1.740      2.210
REMARK  7 active torsions:
REMARK  status: ('A' for Active; 'I' for Inactive)
REMARK    1  A    between atoms: C_2  and  C_3 
REMARK    2  A    between atoms: C_3  and  O_6 
REMARK    3  A    between atoms: C_3  and  C_4 
REMARK    4  A    between atoms: C_7  and  O_6 
REMARK    5  A    between atoms: C_9  and  C_10 
REMARK    6  A    between atoms: N_15  and  C_14 
REMARK    7  A    between atoms: N_20  and  C_19 
REMARK       I    between atoms: C_22  and  N_20 
ROOT
ATOM      1  C   LIG d   1      -3.175  77.643 117.066  0.00  0.00     0.161 C 
ATOM      2  C   LIG d   1      -3.760  78.909 117.237  0.00  0.00     0.016 C 
ATOM      3  C   LIG d   1      -3.462  80.021 116.415  0.00  0.00     0.038 C 
ATOM      4  C   LIG d   1      -2.667  79.901 115.266  0.00  0.00     0.028 C 
ATOM      5  C   LIG d   1      -1.655  78.764 115.345  0.00  0.00    -0.047 C 
ATOM      6  C   LIG d   1      -2.390  77.465 115.750  0.00  0.00     0.091 C 
ENDROOT
BRANCH   1   7
ATOM      7  O   LIG d   1      -4.181  76.619 117.192  0.00  0.00    -0.368 OA
BRANCH   7   8
ATOM      8  C   LIG d   1      -5.241  76.643 116.205  0.00  0.00     0.119 C 
BRANCH   8   9
ATOM      9  C   LIG d   1      -6.578  76.763 116.963  0.00  0.00     0.028 C 
ATOM     10  C   LIG d   1      -7.546  75.615 116.630  0.00  0.00     0.006 C 
ENDBRANCH   8   9
BRANCH   8  11
ATOM     11  C   LIG d   1      -5.324  75.316 115.444  0.00  0.00     0.028 C 
ATOM     12  C   LIG d   1      -5.047  75.472 113.941  0.00  0.00     0.006 C 
ENDBRANCH   8  11
ENDBRANCH   7   8
ENDBRANCH   1   7
BRANCH   6  13
ATOM     13  N   LIG d   1      -1.460  76.321 115.932  0.00  0.00    -0.311 N 
ATOM     14  C   LIG d   1      -1.121  75.488 114.950  0.00  0.00     0.210 C 
ATOM     15  C   LIG d   1      -0.164  74.363 115.357  0.00  0.00     0.109 C 
ATOM     16  O   LIG d   1      -1.497  75.592 113.772  0.00  0.00    -0.276 OA
ATOM     17  H   LIG d   1      -1.083  76.181 116.849  0.00  0.00     0.149 HD
ENDBRANCH   6  13
BRANCH   5  18
ATOM     18  N   LIG d   1      -0.991  78.666 114.032  0.00  0.00     0.381 N 
ATOM     19  H   LIG d   1      -0.198  79.276 114.007  0.00  0.00    -0.090 HD
ATOM     20  H   LIG d   1      -1.635  78.958 113.318  0.00  0.00    -0.090 HD
ATOM     21  H   LIG d   1      -0.702  77.727 113.864  0.00  0.00    -0.090 HD
ENDBRANCH   5  18
BRANCH   3  22
ATOM     22  C   LIG d   1      -3.931  81.278 116.764  0.00  0.00     0.382 C 
ATOM     23  O   LIG d   1      -5.160  81.464 116.935  0.00  0.00    -0.241 OA
ATOM     24  O   LIG d   1      -3.145  82.239 116.867  0.00  0.00    -0.241 OA
ENDBRANCH   3  22
TORSDOF 7
ENDMDL
MODEL 7
REMARK VINA RESULT:      -4.3     11.921     15.139
REMARK  7 active torsions:
REMARK  status: ('A' for Active; 'I' for Inactive)
REMARK    1  A    between atoms: C_2  and  C_3 
REMARK    2  A    between atoms: C_3  and  O_6 
REMARK    3  A    between atoms: C_3  and  C_4 
REMARK    4  A    between atoms: C_7  and  O_6 
REMARK    5  A    between atoms: C_9  and  C_10 
REMARK    6  A    between atoms: N_15  and  C_14 
REMARK    7  A    between atoms: N_20  and  C_19 
REMARK       I    between atoms: C_22  and  N_20 
ROOT
ATOM      1  C   LIG d   1      10.353  79.225 115.103  0.00  0.00     0.161 C 
ATOM      2  C   LIG d   1       8.997  78.972 115.369  0.00  0.00     0.016 C 
ATOM      3  C   LIG d   1       8.451  77.671 115.460  0.00  0.00     0.038 C 
ATOM      4  C   LIG d   1       9.260  76.525 115.441  0.00  0.00     0.028 C 
ATOM      5  C   LIG d   1      10.562  76.715 114.670  0.00  0.00    -0.047 C 
ATOM      6  C   LIG d   1      11.271  77.987 115.189  0.00  0.00     0.091 C 
ENDROOT
BRANCH   1   7
ATOM      7  O   LIG d   1      10.836  80.268 115.973  0.00  0.00    -0.368 OA
BRANCH   7   8
ATOM      8  C   LIG d   1      10.763  81.617 115.451  0.00  0.00     0.119 C 
BRANCH   8   9
ATOM      9  C   LIG d   1      11.338  81.593 114.021  0.00  0.00     0.028 C 
ATOM     10  C   LIG d   1      10.322  82.075 112.972  0.00  0.00     0.006 C 
ENDBRANCH   8   9
BRANCH   8  11
ATOM     11  C   LIG d   1      11.671  82.568 116.237  0.00  0.00     0.028 C 
ATOM     12  C   LIG d   1      10.920  83.337 117.335  0.00  0.00     0.006 C 
ENDBRANCH   8  11
ENDBRANCH   7   8
ENDBRANCH   1   7
BRANCH   6  13
ATOM     13  N   LIG d   1      12.512  78.293 114.431  0.00  0.00    -0.311 N 
ATOM     14  C   LIG d   1      13.723  77.897 114.817  0.00  0.00     0.210 C 
ATOM     15  C   LIG d   1      14.870  78.337 113.901  0.00  0.00     0.109 C 
ATOM     16  O   LIG d   1      13.954  77.195 115.813  0.00  0.00    -0.276 OA
ATOM     17  H   LIG d   1      12.413  78.832 113.593  0.00  0.00     0.149 HD
ENDBRANCH   6  13
BRANCH   5  18
ATOM     18  N   LIG d   1      11.367  75.492 114.847  0.00  0.00     0.381 N 
ATOM     19  H   LIG d   1      10.855  74.825 115.390  0.00  0.00    -0.090 HD
ATOM     20  H   LIG d   1      12.208  75.725 115.344  0.00  0.00    -0.090 HD
ATOM     21  H   LIG d   1      11.594  75.102 113.959  0.00  0.00    -0.090 HD
ENDBRANCH   5  18
BRANCH   3  22
ATOM     22  C   LIG d   1       7.076  77.507 115.533  0.00  0.00     0.382 C 
ATOM     23  O   LIG d   1       6.339  77.988 114.639  0.00  0.00    -0.241 OA
ATOM     24  O   LIG d   1       6.561  76.921 116.504  0.00  0.00    -0.241 OA
ENDBRANCH   3  22
TORSDOF 7
ENDMDL
MODEL 8
REMARK VINA RESULT:      -4.2     11.908     15.223
REMARK  7 active torsions:
REMARK  status: ('A' for Active; 'I' for Inactive)
REMARK    1  A    between atoms: C_2  and  C_3 
REMARK    2  A    between atoms: C_3  and  O_6 
REMARK    3  A    between atoms: C_3  and  C_4 
REMARK    4  A    between atoms: C_7  and  O_6 
REMARK    5  A    between atoms: C_9  and  C_10 
REMARK    6  A    between atoms: N_15  and  C_14 
REMARK    7  A    between atoms: N_20  and  C_19 
REMARK       I    between atoms: C_22  and  N_20 
ROOT
ATOM      1  C   LIG d   1      10.575  78.336 114.801  0.00  0.00     0.161 C 
ATOM      2  C   LIG d   1       9.171  78.322 114.795  0.00  0.00     0.016 C 
ATOM      3  C   LIG d   1       8.394  77.763 115.836  0.00  0.00     0.038 C 
ATOM      4  C   LIG d   1       8.971  77.312 117.032  0.00  0.00     0.028 C 
ATOM      5  C   LIG d   1      10.414  76.845 116.870  0.00  0.00    -0.047 C 
ATOM      6  C   LIG d   1      11.220  77.949 116.149  0.00  0.00     0.091 C 
ENDROOT
BRANCH   1   7
ATOM      7  O   LIG d   1      11.053  79.626 114.370  0.00  0.00    -0.368 OA
BRANCH   7   8
ATOM      8  C   LIG d   1      11.397  79.741 112.967  0.00  0.00     0.119 C 
BRANCH   8   9
ATOM      9  C   LIG d   1      12.894  79.403 112.829  0.00  0.00     0.028 C 
ATOM     10  C   LIG d   1      13.800  80.591 113.193  0.00  0.00     0.006 C 
ENDBRANCH   8   9
BRANCH   8  11
ATOM     11  C   LIG d   1      11.261  81.186 112.477  0.00  0.00     0.028 C 
ATOM     12  C   LIG d   1      10.218  81.989 113.271  0.00  0.00     0.006 C 
ENDBRANCH   8  11
ENDBRANCH   7   8
ENDBRANCH   1   7
BRANCH   6  13
ATOM     13  N   LIG d   1      12.622  77.540 115.875  0.00  0.00    -0.311 N 
ATOM     14  C   LIG d   1      13.681  78.260 116.241  0.00  0.00     0.210 C 
ATOM     15  C   LIG d   1      15.036  77.666 115.843  0.00  0.00     0.109 C 
ATOM     16  O   LIG d   1      13.628  79.319 116.885  0.00  0.00    -0.276 OA
ATOM     17  H   LIG d   1      12.758  76.678 115.384  0.00  0.00     0.149 HD
ENDBRANCH   6  13
BRANCH   5  18
ATOM     18  N   LIG d   1      10.935  76.533 118.215  0.00  0.00     0.381 N 
ATOM     19  H   LIG d   1      10.669  77.253 118.856  0.00  0.00    -0.090 HD
ATOM     20  H   LIG d   1      11.938  76.501 118.175  0.00  0.00    -0.090 HD
ATOM     21  H   LIG d   1      10.579  75.655 118.523  0.00  0.00    -0.090 HD
ENDBRANCH   5  18
BRANCH   3  22
ATOM     22  C   LIG d   1       7.025  77.614 115.668  0.00  0.00     0.382 C 
ATOM     23  O   LIG d   1       6.346  77.027 116.544  0.00  0.00    -0.241 OA
ATOM     24  O   LIG d   1       6.468  78.020 114.630  0.00  0.00    -0.241 OA
ENDBRANCH   3  22
TORSDOF 7
ENDMDL
MODEL 9
REMARK VINA RESULT:      -4.2      2.449      3.733
REMARK  7 active torsions:
REMARK  status: ('A' for Active; 'I' for Inactive)
REMARK    1  A    between atoms: C_2  and  C_3 
REMARK    2  A    between atoms: C_3  and  O_6 
REMARK    3  A    between atoms: C_3  and  C_4 
REMARK    4  A    between atoms: C_7  and  O_6 
REMARK    5  A    between atoms: C_9  and  C_10 
REMARK    6  A    between atoms: N_15  and  C_14 
REMARK    7  A    between atoms: N_20  and  C_19 
REMARK       I    between atoms: C_22  and  N_20 
ROOT
ATOM      1  C   LIG d   1      -2.999  78.804 115.825  0.00  0.00     0.161 C 
ATOM      2  C   LIG d   1      -3.482  80.122 115.860  0.00  0.00     0.016 C 
ATOM      3  C   LIG d   1      -2.914  81.179 115.112  0.00  0.00     0.038 C 
ATOM      4  C   LIG d   1      -1.912  80.956 114.156  0.00  0.00     0.028 C 
ATOM      5  C   LIG d   1      -1.053  79.731 114.453  0.00  0.00    -0.047 C 
ATOM      6  C   LIG d   1      -1.978  78.519 114.703  0.00  0.00     0.091 C 
ENDROOT
BRANCH   1   7
ATOM      7  O   LIG d   1      -4.104  77.881 115.743  0.00  0.00    -0.368 OA
BRANCH   7   8
ATOM      8  C   LIG d   1      -4.241  76.952 116.845  0.00  0.00     0.119 C 
BRANCH   8   9
ATOM      9  C   LIG d   1      -5.711  76.993 117.306  0.00  0.00     0.028 C 
ATOM     10  C   LIG d   1      -6.626  76.126 116.426  0.00  0.00     0.006 C 
ENDBRANCH   8   9
BRANCH   8  11
ATOM     11  C   LIG d   1      -3.423  77.402 118.059  0.00  0.00     0.028 C 
ATOM     12  C   LIG d   1      -2.247  76.462 118.367  0.00  0.00     0.006 C 
ENDBRANCH   8  11
ENDBRANCH   7   8
ENDBRANCH   1   7
BRANCH   6  13
ATOM     13  N   LIG d   1      -1.221  77.297 115.084  0.00  0.00    -0.311 N 
ATOM     14  C   LIG d   1      -1.508  76.083 114.619  0.00  0.00     0.210 C 
ATOM     15  C   LIG d   1      -0.616  74.958 115.155  0.00  0.00     0.109 C 
ATOM     16  O   LIG d   1      -2.395  75.834 113.789  0.00  0.00    -0.276 OA
ATOM     17  H   LIG d   1      -0.465  77.412 115.730  0.00  0.00     0.149 HD
ENDBRANCH   6  13
BRANCH   5  18
ATOM     18  N   LIG d   1      -0.142  79.538 113.309  0.00  0.00     0.381 N 
ATOM     19  H   LIG d   1      -0.170  78.583 113.012  0.00  0.00    -0.090 HD
ATOM     20  H   LIG d   1       0.796  79.750 113.601  0.00  0.00    -0.090 HD
ATOM     21  H   LIG d   1      -0.407  80.135 112.557  0.00  0.00    -0.090 HD
ENDBRANCH   5  18
BRANCH   3  22
ATOM     22  C   LIG d   1      -3.321  82.484 115.347  0.00  0.00     0.382 C 
ATOM     23  O   LIG d   1      -2.666  83.441 114.868  0.00  0.00    -0.241 OA
ATOM     24  O   LIG d   1      -4.309  82.717 116.068  0.00  0.00    -0.241 OA
ENDBRANCH   3  22
TORSDOF 7
ENDMDL
