MODEL 1
REMARK VINA RESULT:      -5.3      0.000      0.000
REMARK  7 active torsions:
REMARK  status: ('A' for Active; 'I' for Inactive)
REMARK    1  A    between atoms: C_2  and  C_3 
REMARK    2  A    between atoms: C_3  and  O_6 
REMARK    3  A    between atoms: C_3  and  C_4 
REMARK    4  A    between atoms: C_7  and  O_6 
REMARK    5  A    between atoms: C_9  and  C_10 
REMARK    6  A    between atoms: N_15  and  C_14 
REMARK    7  A    between atoms: N_20  and  C_19 
REMARK       I    between atoms: C_22  and  N_20 
ROOT
ATOM      1  C   LIG d   1     -17.222  65.692 116.006  0.00  0.00     0.161 C 
ATOM      2  C   LIG d   1     -16.202  65.016 116.696  0.00  0.00     0.016 C 
ATOM      3  C   LIG d   1     -16.057  63.609 116.689  0.00  0.00     0.038 C 
ATOM      4  C   LIG d   1     -16.838  62.788 115.862  0.00  0.00     0.028 C 
ATOM      5  C   LIG d   1     -18.205  63.380 115.537  0.00  0.00    -0.047 C 
ATOM      6  C   LIG d   1     -18.015  64.821 115.009  0.00  0.00     0.091 C 
ENDROOT
BRANCH   1   7
ATOM      7  O   LIG d   1     -16.677  66.847 115.337  0.00  0.00    -0.368 OA
BRANCH   7   8
ATOM      8  C   LIG d   1     -15.307  66.732 114.881  0.00  0.00     0.119 C 
BRANCH   8   9
ATOM      9  C   LIG d   1     -14.572  68.023 115.292  0.00  0.00     0.028 C 
ATOM     10  C   LIG d   1     -15.184  68.673 116.544  0.00  0.00     0.006 C 
ENDBRANCH   8   9
BRANCH   8  11
ATOM     11  C   LIG d   1     -15.231  66.691 113.352  0.00  0.00     0.028 C 
ATOM     12  C   LIG d   1     -14.846  68.046 112.738  0.00  0.00     0.006 C 
ENDBRANCH   8  11
ENDBRANCH   7   8
ENDBRANCH   1   7
BRANCH   6  13
ATOM     13  N   LIG d   1     -19.309  65.503 114.747  0.00  0.00    -0.311 N 
ATOM     14  C   LIG d   1     -19.942  65.449 113.576  0.00  0.00     0.210 C 
ATOM     15  C   LIG d   1     -21.252  66.241 113.513  0.00  0.00     0.109 C 
ATOM     16  O   LIG d   1     -19.560  64.795 112.595  0.00  0.00    -0.276 OA
ATOM     17  H   LIG d   1     -19.707  66.031 115.499  0.00  0.00     0.149 HD
ENDBRANCH   6  13
BRANCH   5  18
ATOM     18  N   LIG d   1     -18.857  62.487 114.561  0.00  0.00     0.381 N 
ATOM     19  H   LIG d   1     -18.714  62.837 113.634  0.00  0.00    -0.090 HD
ATOM     20  H   LIG d   1     -19.845  62.473 114.742  0.00  0.00    -0.090 HD
ATOM     21  H   LIG d   1     -18.484  61.567 114.638  0.00  0.00    -0.090 HD
ENDBRANCH   5  18
BRANCH   3  22
ATOM     22  C   LIG d   1     -15.148  63.008 117.545  0.00  0.00     0.382 C 
ATOM     23  O   LIG d   1     -13.929  63.292 117.466  0.00  0.00    -0.241 OA
ATOM     24  O   LIG d   1     -15.526  62.151 118.367  0.00  0.00    -0.241 OA
ENDBRANCH   3  22
TORSDOF 7
ENDMDL
MODEL 2
REMARK VINA RESULT:      -5.2     17.239     20.041
REMARK  7 active torsions:
REMARK  status: ('A' for Active; 'I' for Inactive)
REMARK    1  A    between atoms: C_2  and  C_3 
REMARK    2  A    between atoms: C_3  and  O_6 
REMARK    3  A    between atoms: C_3  and  C_4 
REMARK    4  A    between atoms: C_7  and  O_6 
REMARK    5  A    between atoms: C_9  and  C_10 
REMARK    6  A    between atoms: N_15  and  C_14 
REMARK    7  A    between atoms: N_20  and  C_19 
REMARK       I    between atoms: C_22  and  N_20 
ROOT
ATOM      1  C   LIG d   1      -2.188  78.666 116.097  0.00  0.00     0.161 C 
ATOM      2  C   LIG d   1      -2.538  79.680 115.190  0.00  0.00     0.016 C 
ATOM      3  C   LIG d   1      -2.191  79.652 113.819  0.00  0.00     0.038 C 
ATOM      4  C   LIG d   1      -1.597  78.527 113.228  0.00  0.00     0.028 C 
ATOM      5  C   LIG d   1      -0.774  77.693 114.204  0.00  0.00    -0.047 C 
ATOM      6  C   LIG d   1      -1.637  77.379 115.448  0.00  0.00     0.091 C 
ENDROOT
BRANCH   1   7
ATOM      7  O   LIG d   1      -3.313  78.358 116.943  0.00  0.00    -0.368 OA
BRANCH   7   8
ATOM      8  C   LIG d   1      -4.577  78.139 116.268  0.00  0.00     0.119 C 
BRANCH   8   9
ATOM      9  C   LIG d   1      -5.683  78.755 117.146  0.00  0.00     0.028 C 
ATOM     10  C   LIG d   1      -5.379  80.211 117.538  0.00  0.00     0.006 C 
ENDBRANCH   8   9
BRANCH   8  11
ATOM     11  C   LIG d   1      -4.911  76.647 116.183  0.00  0.00     0.028 C 
ATOM     12  C   LIG d   1      -5.058  76.151 114.735  0.00  0.00     0.006 C 
ENDBRANCH   8  11
ENDBRANCH   7   8
ENDBRANCH   1   7
BRANCH   6  13
ATOM     13  N   LIG d   1      -0.880  76.638 116.490  0.00  0.00    -0.311 N 
ATOM     14  C   LIG d   1      -0.947  75.317 116.644  0.00  0.00     0.210 C 
ATOM     15  C   LIG d   1      -0.102  74.756 117.793  0.00  0.00     0.109 C 
ATOM     16  O   LIG d   1      -1.599  74.552 115.918  0.00  0.00    -0.276 OA
ATOM     17  H   LIG d   1      -0.301  77.177 117.104  0.00  0.00     0.149 HD
ENDBRANCH   6  13
BRANCH   5  18
ATOM     18  N   LIG d   1      -0.327  76.482 113.490  0.00  0.00     0.381 N 
ATOM     19  H   LIG d   1      -0.195  76.690 112.520  0.00  0.00    -0.090 HD
ATOM     20  H   LIG d   1      -1.040  75.778 113.567  0.00  0.00    -0.090 HD
ATOM     21  H   LIG d   1       0.524  76.148 113.884  0.00  0.00    -0.090 HD
ENDBRANCH   5  18
BRANCH   3  22
ATOM     22  C   LIG d   1      -2.403  80.774 113.033  0.00  0.00     0.382 C 
ATOM     23  O   LIG d   1      -1.445  81.293 112.410  0.00  0.00    -0.241 OA
ATOM     24  O   LIG d   1      -3.530  81.301 112.975  0.00  0.00    -0.241 OA
ENDBRANCH   3  22
TORSDOF 7
ENDMDL
MODEL 3
REMARK VINA RESULT:      -5.1      2.320      4.594
REMARK  7 active torsions:
REMARK  status: ('A' for Active; 'I' for Inactive)
REMARK    1  A    between atoms: C_2  and  C_3 
REMARK    2  A    between atoms: C_3  and  O_6 
REMARK    3  A    between atoms: C_3  and  C_4 
REMARK    4  A    between atoms: C_7  and  O_6 
REMARK    5  A    between atoms: C_9  and  C_10 
REMARK    6  A    between atoms: N_15  and  C_14 
REMARK    7  A    between atoms: N_20  and  C_19 
REMARK       I    between atoms: C_22  and  N_20 
ROOT
ATOM      1  C   LIG d   1     -15.986  64.478 116.149  0.00  0.00     0.161 C 
ATOM      2  C   LIG d   1     -15.336  65.691 116.434  0.00  0.00     0.016 C 
ATOM      3  C   LIG d   1     -15.167  66.725 115.484  0.00  0.00     0.038 C 
ATOM      4  C   LIG d   1     -15.773  66.677 114.220  0.00  0.00     0.028 C 
ATOM      5  C   LIG d   1     -16.011  65.258 113.716  0.00  0.00    -0.047 C 
ATOM      6  C   LIG d   1     -16.751  64.454 114.809  0.00  0.00     0.091 C 
ENDROOT
BRANCH   1   7
ATOM      7  O   LIG d   1     -16.867  64.129 117.235  0.00  0.00    -0.368 OA
BRANCH   7   8
ATOM      8  C   LIG d   1     -18.243  64.565 117.105  0.00  0.00     0.119 C 
BRANCH   8   9
ATOM      9  C   LIG d   1     -18.507  65.600 118.216  0.00  0.00     0.028 C 
ATOM     10  C   LIG d   1     -18.650  67.029 117.664  0.00  0.00     0.006 C 
ENDBRANCH   8   9
BRANCH   8  11
ATOM     11  C   LIG d   1     -19.219  63.417 117.380  0.00  0.00     0.028 C 
ATOM     12  C   LIG d   1     -18.510  62.072 117.603  0.00  0.00     0.006 C 
ENDBRANCH   8  11
ENDBRANCH   7   8
ENDBRANCH   1   7
BRANCH   6  13
ATOM     13  N   LIG d   1     -16.949  63.031 114.430  0.00  0.00    -0.311 N 
ATOM     14  C   LIG d   1     -18.077  62.564 113.897  0.00  0.00     0.210 C 
ATOM     15  C   LIG d   1     -18.078  61.061 113.599  0.00  0.00     0.109 C 
ATOM     16  O   LIG d   1     -19.065  63.257 113.613  0.00  0.00    -0.276 OA
ATOM     17  H   LIG d   1     -16.187  62.404 114.597  0.00  0.00     0.149 HD
ENDBRANCH   6  13
BRANCH   5  18
ATOM     18  N   LIG d   1     -16.771  65.355 112.455  0.00  0.00     0.381 N 
ATOM     19  H   LIG d   1     -16.151  65.254 111.677  0.00  0.00    -0.090 HD
ATOM     20  H   LIG d   1     -17.199  66.263 112.402  0.00  0.00    -0.090 HD
ATOM     21  H   LIG d   1     -17.472  64.647 112.424  0.00  0.00    -0.090 HD
ENDBRANCH   5  18
BRANCH   3  22
ATOM     22  C   LIG d   1     -14.350  67.804 115.783  0.00  0.00     0.382 C 
ATOM     23  O   LIG d   1     -14.393  68.838 115.073  0.00  0.00    -0.241 OA
ATOM     24  O   LIG d   1     -13.538  67.741 116.725  0.00  0.00    -0.241 OA
ENDBRANCH   3  22
TORSDOF 7
ENDMDL
MODEL 4
REMARK VINA RESULT:      -5.0     26.115     28.980
REMARK  7 active torsions:
REMARK  status: ('A' for Active; 'I' for Inactive)
REMARK    1  A    between atoms: C_2  and  C_3 
REMARK    2  A    between atoms: C_3  and  O_6 
REMARK    3  A    between atoms: C_3  and  C_4 
REMARK    4  A    between atoms: C_7  and  O_6 
REMARK    5  A    between atoms: C_9  and  C_10 
REMARK    6  A    between atoms: N_15  and  C_14 
REMARK    7  A    between atoms: N_20  and  C_19 
REMARK       I    between atoms: C_22  and  N_20 
ROOT
ATOM      1  C   LIG d   1       2.213  86.151 114.843  0.00  0.00     0.161 C 
ATOM      2  C   LIG d   1       2.892  87.064 114.020  0.00  0.00     0.016 C 
ATOM      3  C   LIG d   1       4.262  87.382 114.174  0.00  0.00     0.038 C 
ATOM      4  C   LIG d   1       5.086  86.689 115.073  0.00  0.00     0.028 C 
ATOM      5  C   LIG d   1       4.333  86.116 116.269  0.00  0.00    -0.047 C 
ATOM      6  C   LIG d   1       3.122  85.303 115.757  0.00  0.00     0.091 C 
ENDROOT
BRANCH   1   7
ATOM      7  O   LIG d   1       1.375  85.298 114.038  0.00  0.00    -0.368 OA
BRANCH   7   8
ATOM      8  C   LIG d   1       1.790  85.112 112.662  0.00  0.00     0.119 C 
BRANCH   8   9
ATOM      9  C   LIG d   1       0.514  85.000 111.805  0.00  0.00     0.028 C 
ATOM     10  C   LIG d   1      -0.536  86.060 112.176  0.00  0.00     0.006 C 
ENDBRANCH   8   9
BRANCH   8  11
ATOM     11  C   LIG d   1       2.521  83.779 112.476  0.00  0.00     0.028 C 
ATOM     12  C   LIG d   1       4.044  83.947 112.351  0.00  0.00     0.006 C 
ENDBRANCH   8  11
ENDBRANCH   7   8
ENDBRANCH   1   7
BRANCH   6  13
ATOM     13  N   LIG d   1       2.282  84.778 116.865  0.00  0.00    -0.311 N 
ATOM     14  C   LIG d   1       1.792  83.540 116.890  0.00  0.00     0.210 C 
ATOM     15  C   LIG d   1       0.934  83.209 118.115  0.00  0.00     0.109 C 
ATOM     16  O   LIG d   1       2.012  82.675 116.029  0.00  0.00    -0.276 OA
ATOM     17  H   LIG d   1       2.080  85.404 117.620  0.00  0.00     0.149 HD
ENDBRANCH   6  13
BRANCH   5  18
ATOM     18  N   LIG d   1       5.286  85.305 117.049  0.00  0.00     0.381 N 
ATOM     19  H   LIG d   1       6.210  85.674 116.944  0.00  0.00    -0.090 HD
ATOM     20  H   LIG d   1       5.279  84.365 116.694  0.00  0.00    -0.090 HD
ATOM     21  H   LIG d   1       5.027  85.307 118.011  0.00  0.00    -0.090 HD
ENDBRANCH   5  18
BRANCH   3  22
ATOM     22  C   LIG d   1       4.810  88.430 113.451  0.00  0.00     0.382 C 
ATOM     23  O   LIG d   1       4.164  89.496 113.305  0.00  0.00    -0.241 OA
ATOM     24  O   LIG d   1       5.923  88.308 112.907  0.00  0.00    -0.241 OA
ENDBRANCH   3  22
TORSDOF 7
ENDMDL
MODEL 5
REMARK VINA RESULT:      -4.9     16.960     19.620
REMARK  7 active torsions:
REMARK  status: ('A' for Active; 'I' for Inactive)
REMARK    1  A    between atoms: C_2  and  C_3 
REMARK    2  A    between atoms: C_3  and  O_6 
REMARK    3  A    between atoms: C_3  and  C_4 
REMARK    4  A    between atoms: C_7  and  O_6 
REMARK    5  A    between atoms: C_9  and  C_10 
REMARK    6  A    between atoms: N_15  and  C_14 
REMARK    7  A    between atoms: N_20  and  C_19 
REMARK       I    between atoms: C_22  and  N_20 
ROOT
ATOM      1  C   LIG d   1      -1.749  75.462 115.530  0.00  0.00     0.161 C 
ATOM      2  C   LIG d   1      -2.035  76.551 116.371  0.00  0.00     0.016 C 
ATOM      3  C   LIG d   1      -1.042  77.401 116.909  0.00  0.00     0.038 C 
ATOM      4  C   LIG d   1       0.302  77.312 116.517  0.00  0.00     0.028 C 
ATOM      5  C   LIG d   1       0.709  75.913 116.064  0.00  0.00    -0.047 C 
ATOM      6  C   LIG d   1      -0.299  75.416 115.003  0.00  0.00     0.091 C 
ENDROOT
BRANCH   1   7
ATOM      7  O   LIG d   1      -2.682  75.434 114.432  0.00  0.00    -0.368 OA
BRANCH   7   8
ATOM      8  C   LIG d   1      -3.625  76.533 114.369  0.00  0.00     0.119 C 
BRANCH   8   9
ATOM      9  C   LIG d   1      -5.024  75.929 114.139  0.00  0.00     0.028 C 
ATOM     10  C   LIG d   1      -5.706  75.512 115.453  0.00  0.00     0.006 C 
ENDBRANCH   8   9
BRANCH   8  11
ATOM     11  C   LIG d   1      -3.362  77.423 113.150  0.00  0.00     0.028 C 
ATOM     12  C   LIG d   1      -2.442  78.612 113.469  0.00  0.00     0.006 C 
ENDBRANCH   8  11
ENDBRANCH   7   8
ENDBRANCH   1   7
BRANCH   6  13
ATOM     13  N   LIG d   1      -0.023  74.022 114.568  0.00  0.00    -0.311 N 
ATOM     14  C   LIG d   1       0.332  73.699 113.326  0.00  0.00     0.210 C 
ATOM     15  C   LIG d   1       0.550  72.202 113.084  0.00  0.00     0.109 C 
ATOM     16  O   LIG d   1       0.518  74.513 112.409  0.00  0.00    -0.276 OA
ATOM     17  H   LIG d   1      -0.120  73.302 115.256  0.00  0.00     0.149 HD
ENDBRANCH   6  13
BRANCH   5  18
ATOM     18  N   LIG d   1       2.091  75.995 115.555  0.00  0.00     0.381 N 
ATOM     19  H   LIG d   1       2.384  75.096 115.226  0.00  0.00    -0.090 HD
ATOM     20  H   LIG d   1       2.699  76.268 116.307  0.00  0.00    -0.090 HD
ATOM     21  H   LIG d   1       2.144  76.661 114.817  0.00  0.00    -0.090 HD
ENDBRANCH   5  18
BRANCH   3  22
ATOM     22  C   LIG d   1      -1.385  78.330 117.880  0.00  0.00     0.382 C 
ATOM     23  O   LIG d   1      -2.582  78.454 118.234  0.00  0.00    -0.241 OA
ATOM     24  O   LIG d   1      -0.518  79.076 118.374  0.00  0.00    -0.241 OA
ENDBRANCH   3  22
TORSDOF 7
ENDMDL
MODEL 6
REMARK VINA RESULT:      -4.9     29.415     31.528
REMARK  7 active torsions:
REMARK  status: ('A' for Active; 'I' for Inactive)
REMARK    1  A    between atoms: C_2  and  C_3 
REMARK    2  A    between atoms: C_3  and  O_6 
REMARK    3  A    between atoms: C_3  and  C_4 
REMARK    4  A    between atoms: C_7  and  O_6 
REMARK    5  A    between atoms: C_9  and  C_10 
REMARK    6  A    between atoms: N_15  and  C_14 
REMARK    7  A    between atoms: N_20  and  C_19 
REMARK       I    between atoms: C_22  and  N_20 
ROOT
ATOM      1  C   LIG d   1       3.295  88.407 115.648  0.00  0.00     0.161 C 
ATOM      2  C   LIG d   1       2.568  87.724 114.658  0.00  0.00     0.016 C 
ATOM      3  C   LIG d   1       3.052  87.508 113.348  0.00  0.00     0.038 C 
ATOM      4  C   LIG d   1       4.367  87.829 112.980  0.00  0.00     0.028 C 
ATOM      5  C   LIG d   1       4.961  88.973 113.795  0.00  0.00    -0.047 C 
ATOM      6  C   LIG d   1       4.775  88.667 115.299  0.00  0.00     0.091 C 
ENDROOT
BRANCH   1   7
ATOM      7  O   LIG d   1       3.192  87.703 116.902  0.00  0.00    -0.368 OA
BRANCH   7   8
ATOM      8  C   LIG d   1       2.417  88.357 117.937  0.00  0.00     0.119 C 
BRANCH   8   9
ATOM      9  C   LIG d   1       1.092  87.584 118.080  0.00  0.00     0.028 C 
ATOM     10  C   LIG d   1      -0.130  88.442 117.712  0.00  0.00     0.006 C 
ENDBRANCH   8   9
BRANCH   8  11
ATOM     11  C   LIG d   1       2.017  89.775 117.522  0.00  0.00     0.028 C 
ATOM     12  C   LIG d   1       2.630  90.856 118.427  0.00  0.00     0.006 C 
ENDBRANCH   8  11
ENDBRANCH   7   8
ENDBRANCH   1   7
BRANCH   6  13
ATOM     13  N   LIG d   1       5.254  89.775 116.166  0.00  0.00    -0.311 N 
ATOM     14  C   LIG d   1       6.140  89.608 117.146  0.00  0.00     0.210 C 
ATOM     15  C   LIG d   1       6.482  90.878 117.932  0.00  0.00     0.109 C 
ATOM     16  O   LIG d   1       6.700  88.535 117.419  0.00  0.00    -0.276 OA
ATOM     17  H   LIG d   1       4.875  90.685 115.994  0.00  0.00     0.149 HD
ENDBRANCH   6  13
BRANCH   5  18
ATOM     18  N   LIG d   1       6.376  89.111 113.403  0.00  0.00     0.381 N 
ATOM     19  H   LIG d   1       6.851  88.240 113.536  0.00  0.00    -0.090 HD
ATOM     20  H   LIG d   1       6.811  89.799 113.992  0.00  0.00    -0.090 HD
ATOM     21  H   LIG d   1       6.440  89.391 112.449  0.00  0.00    -0.090 HD
ENDBRANCH   5  18
BRANCH   3  22
ATOM     22  C   LIG d   1       2.202  86.999 112.377  0.00  0.00     0.382 C 
ATOM     23  O   LIG d   1       1.150  87.615 112.080  0.00  0.00    -0.241 OA
ATOM     24  O   LIG d   1       2.452  85.911 111.826  0.00  0.00    -0.241 OA
ENDBRANCH   3  22
TORSDOF 7
ENDMDL
MODEL 7
REMARK VINA RESULT:      -4.9      2.214      4.659
REMARK  7 active torsions:
REMARK  status: ('A' for Active; 'I' for Inactive)
REMARK    1  A    between atoms: C_2  and  C_3 
REMARK    2  A    between atoms: C_3  and  O_6 
REMARK    3  A    between atoms: C_3  and  C_4 
REMARK    4  A    between atoms: C_7  and  O_6 
REMARK    5  A    between atoms: C_9  and  C_10 
REMARK    6  A    between atoms: N_15  and  C_14 
REMARK    7  A    between atoms: N_20  and  C_19 
REMARK       I    between atoms: C_22  and  N_20 
ROOT
ATOM      1  C   LIG d   1     -16.424  64.976 115.067  0.00  0.00     0.161 C 
ATOM      2  C   LIG d   1     -16.641  63.946 115.997  0.00  0.00     0.016 C 
ATOM      3  C   LIG d   1     -16.009  63.891 117.260  0.00  0.00     0.038 C 
ATOM      4  C   LIG d   1     -15.226  64.950 117.744  0.00  0.00     0.028 C 
ATOM      5  C   LIG d   1     -14.575  65.776 116.640  0.00  0.00    -0.047 C 
ATOM      6  C   LIG d   1     -15.660  66.197 115.622  0.00  0.00     0.091 C 
ENDROOT
BRANCH   1   7
ATOM      7  O   LIG d   1     -17.680  65.390 114.494  0.00  0.00    -0.368 OA
BRANCH   7   8
ATOM      8  C   LIG d   1     -18.846  65.246 115.341  0.00  0.00     0.119 C 
BRANCH   8   9
ATOM      9  C   LIG d   1     -20.034  64.871 114.435  0.00  0.00     0.028 C 
ATOM     10  C   LIG d   1     -19.643  64.816 112.948  0.00  0.00     0.006 C 
ENDBRANCH   8   9
BRANCH   8  11
ATOM     11  C   LIG d   1     -19.233  66.579 115.987  0.00  0.00     0.028 C 
ATOM     12  C   LIG d   1     -18.862  66.650 117.477  0.00  0.00     0.006 C 
ENDBRANCH   8  11
ENDBRANCH   7   8
ENDBRANCH   1   7
BRANCH   6  13
ATOM     13  N   LIG d   1     -15.094  66.938 114.464  0.00  0.00    -0.311 N 
ATOM     14  C   LIG d   1     -14.889  68.254 114.465  0.00  0.00     0.210 C 
ATOM     15  C   LIG d   1     -14.316  68.820 113.162  0.00  0.00     0.109 C 
ATOM     16  O   LIG d   1     -15.098  69.001 115.433  0.00  0.00    -0.276 OA
ATOM     17  H   LIG d   1     -14.867  66.404 113.648  0.00  0.00     0.149 HD
ENDBRANCH   6  13
BRANCH   5  18
ATOM     18  N   LIG d   1     -13.905  66.924 117.279  0.00  0.00     0.381 N 
ATOM     19  H   LIG d   1     -14.145  66.960 118.249  0.00  0.00    -0.090 HD
ATOM     20  H   LIG d   1     -14.226  67.771 116.843  0.00  0.00    -0.090 HD
ATOM     21  H   LIG d   1     -12.917  66.843 117.176  0.00  0.00    -0.090 HD
ENDBRANCH   5  18
BRANCH   3  22
ATOM     22  C   LIG d   1     -16.125  62.749 118.038  0.00  0.00     0.382 C 
ATOM     23  O   LIG d   1     -17.260  62.318 118.354  0.00  0.00    -0.241 OA
ATOM     24  O   LIG d   1     -15.108  62.169 118.464  0.00  0.00    -0.241 OA
ENDBRANCH   3  22
TORSDOF 7
ENDMDL
MODEL 8
REMARK VINA RESULT:      -4.8     29.060     31.348
REMARK  7 active torsions:
REMARK  status: ('A' for Active; 'I' for Inactive)
REMARK    1  A    between atoms: C_2  and  C_3 
REMARK    2  A    between atoms: C_3  and  O_6 
REMARK    3  A    between atoms: C_3  and  C_4 
REMARK    4  A    between atoms: C_7  and  O_6 
REMARK    5  A    between atoms: C_9  and  C_10 
REMARK    6  A    between atoms: N_15  and  C_14 
REMARK    7  A    between atoms: N_20  and  C_19 
REMARK       I    between atoms: C_22  and  N_20 
ROOT
ATOM      1  C   LIG d   1       3.543  88.358 115.889  0.00  0.00     0.161 C 
ATOM      2  C   LIG d   1       2.752  87.715 114.923  0.00  0.00     0.016 C 
ATOM      3  C   LIG d   1       3.125  87.597 113.564  0.00  0.00     0.038 C 
ATOM      4  C   LIG d   1       4.393  87.985 113.108  0.00  0.00     0.028 C 
ATOM      5  C   LIG d   1       5.024  89.094 113.942  0.00  0.00    -0.047 C 
ATOM      6  C   LIG d   1       4.979  88.689 115.433  0.00  0.00     0.091 C 
ENDROOT
BRANCH   1   7
ATOM      7  O   LIG d   1       3.570  87.574 117.099  0.00  0.00    -0.368 OA
BRANCH   7   8
ATOM      8  C   LIG d   1       3.087  86.213 116.987  0.00  0.00     0.119 C 
BRANCH   8   9
ATOM      9  C   LIG d   1       2.090  85.979 118.139  0.00  0.00     0.028 C 
ATOM     10  C   LIG d   1       0.967  87.030 118.165  0.00  0.00     0.006 C 
ENDBRANCH   8   9
BRANCH   8  11
ATOM     11  C   LIG d   1       4.214  85.201 117.216  0.00  0.00     0.028 C 
ATOM     12  C   LIG d   1       5.086  84.989 115.968  0.00  0.00     0.006 C 
ENDBRANCH   8  11
ENDBRANCH   7   8
ENDBRANCH   1   7
BRANCH   6  13
ATOM     13  N   LIG d   1       5.501  89.755 116.327  0.00  0.00    -0.311 N 
ATOM     14  C   LIG d   1       6.558  89.595 117.121  0.00  0.00     0.210 C 
ATOM     15  C   LIG d   1       6.916  90.815 117.976  0.00  0.00     0.109 C 
ATOM     16  O   LIG d   1       7.253  88.569 117.174  0.00  0.00    -0.276 OA
ATOM     17  H   LIG d   1       5.015  90.631 116.323  0.00  0.00     0.149 HD
ENDBRANCH   6  13
BRANCH   5  18
ATOM     18  N   LIG d   1       6.396  89.304 113.441  0.00  0.00     0.381 N 
ATOM     19  H   LIG d   1       6.740  90.189 113.755  0.00  0.00    -0.090 HD
ATOM     20  H   LIG d   1       6.377  89.311 112.436  0.00  0.00    -0.090 HD
ATOM     21  H   LIG d   1       6.992  88.574 113.764  0.00  0.00    -0.090 HD
ENDBRANCH   5  18
BRANCH   3  22
ATOM     22  C   LIG d   1       2.208  87.122 112.639  0.00  0.00     0.382 C 
ATOM     23  O   LIG d   1       2.062  85.887 112.478  0.00  0.00    -0.241 OA
ATOM     24  O   LIG d   1       1.557  87.914 111.931  0.00  0.00    -0.241 OA
ENDBRANCH   3  22
TORSDOF 7
ENDMDL
MODEL 9
REMARK VINA RESULT:      -4.8     17.231     20.072
REMARK  7 active torsions:
REMARK  status: ('A' for Active; 'I' for Inactive)
REMARK    1  A    between atoms: C_2  and  C_3 
REMARK    2  A    between atoms: C_3  and  O_6 
REMARK    3  A    between atoms: C_3  and  C_4 
REMARK    4  A    between atoms: C_7  and  O_6 
REMARK    5  A    between atoms: C_9  and  C_10 
REMARK    6  A    between atoms: N_15  and  C_14 
REMARK    7  A    between atoms: N_20  and  C_19 
REMARK       I    between atoms: C_22  and  N_20 
ROOT
ATOM      1  C   LIG d   1      -1.288  77.162 115.287  0.00  0.00     0.161 C 
ATOM      2  C   LIG d   1      -2.522  76.508 115.128  0.00  0.00     0.016 C 
ATOM      3  C   LIG d   1      -3.439  76.817 114.098  0.00  0.00     0.038 C 
ATOM      4  C   LIG d   1      -3.117  77.703 113.059  0.00  0.00     0.028 C 
ATOM      5  C   LIG d   1      -2.090  78.757 113.459  0.00  0.00    -0.047 C 
ATOM      6  C   LIG d   1      -0.872  78.053 114.098  0.00  0.00     0.091 C 
ENDROOT
BRANCH   1   7
ATOM      7  O   LIG d   1      -0.257  76.197 115.575  0.00  0.00    -0.368 OA
BRANCH   7   8
ATOM      8  C   LIG d   1      -0.465  74.865 115.044  0.00  0.00     0.119 C 
BRANCH   8   9
ATOM      9  C   LIG d   1      -0.020  73.861 116.126  0.00  0.00     0.028 C 
ATOM     10  C   LIG d   1      -0.682  74.134 117.487  0.00  0.00     0.006 C 
ENDBRANCH   8   9
BRANCH   8  11
ATOM     11  C   LIG d   1       0.446  74.596 113.842  0.00  0.00     0.028 C 
ATOM     12  C   LIG d   1       0.546  73.102 113.494  0.00  0.00     0.006 C 
ENDBRANCH   8  11
ENDBRANCH   7   8
ENDBRANCH   1   7
BRANCH   6  13
ATOM     13  N   LIG d   1       0.144  79.018 114.594  0.00  0.00    -0.311 N 
ATOM     14  C   LIG d   1      -0.109  79.933 115.528  0.00  0.00     0.210 C 
ATOM     15  C   LIG d   1       1.074  80.842 115.880  0.00  0.00     0.109 C 
ATOM     16  O   LIG d   1      -1.190  80.058 116.122  0.00  0.00    -0.276 OA
ATOM     17  H   LIG d   1       1.058  78.967 114.189  0.00  0.00     0.149 HD
ENDBRANCH   6  13
BRANCH   5  18
ATOM     18  N   LIG d   1      -1.745  79.524 112.247  0.00  0.00     0.381 N 
ATOM     19  H   LIG d   1      -0.793  79.827 112.297  0.00  0.00    -0.090 HD
ATOM     20  H   LIG d   1      -2.332  80.339 112.200  0.00  0.00    -0.090 HD
ATOM     21  H   LIG d   1      -1.880  78.961 111.437  0.00  0.00    -0.090 HD
ENDBRANCH   5  18
BRANCH   3  22
ATOM     22  C   LIG d   1      -4.712  76.266 114.123  0.00  0.00     0.382 C 
ATOM     23  O   LIG d   1      -4.939  75.186 113.525  0.00  0.00    -0.241 OA
ATOM     24  O   LIG d   1      -5.645  76.857 114.698  0.00  0.00    -0.241 OA
ENDBRANCH   3  22
TORSDOF 7
ENDMDL
