MODEL 1
REMARK VINA RESULT:      -5.2      0.000      0.000
REMARK  7 active torsions:
REMARK  status: ('A' for Active; 'I' for Inactive)
REMARK    1  A    between atoms: C_2  and  C_3 
REMARK    2  A    between atoms: C_3  and  O_6 
REMARK    3  A    between atoms: C_3  and  C_4 
REMARK    4  A    between atoms: C_7  and  O_6 
REMARK    5  A    between atoms: C_9  and  C_10 
REMARK    6  A    between atoms: N_15  and  C_14 
REMARK    7  A    between atoms: N_20  and  C_19 
REMARK       I    between atoms: C_22  and  N_20 
ROOT
ATOM      1  C   LIG d   1      -7.063  76.039 117.206  0.00  0.00     0.161 C 
ATOM      2  C   LIG d   1      -8.096  75.087 117.210  0.00  0.00     0.016 C 
ATOM      3  C   LIG d   1      -7.870  73.694 117.123  0.00  0.00     0.038 C 
ATOM      4  C   LIG d   1      -6.579  73.147 117.180  0.00  0.00     0.028 C 
ATOM      5  C   LIG d   1      -5.498  74.093 116.668  0.00  0.00    -0.047 C 
ATOM      6  C   LIG d   1      -5.645  75.456 117.381  0.00  0.00     0.091 C 
ENDROOT
BRANCH   1   7
ATOM      7  O   LIG d   1      -7.320  77.041 118.210  0.00  0.00    -0.368 OA
BRANCH   7   8
ATOM      8  C   LIG d   1      -7.769  78.330 117.723  0.00  0.00     0.119 C 
BRANCH   8   9
ATOM      9  C   LIG d   1      -6.621  79.334 117.945  0.00  0.00     0.028 C 
ATOM     10  C   LIG d   1      -7.124  80.783 118.063  0.00  0.00     0.006 C 
ENDBRANCH   8   9
BRANCH   8  11
ATOM     11  C   LIG d   1      -8.940  78.863 118.554  0.00  0.00     0.028 C 
ATOM     12  C   LIG d   1     -10.150  77.915 118.555  0.00  0.00     0.006 C 
ENDBRANCH   8  11
ENDBRANCH   7   8
ENDBRANCH   1   7
BRANCH   6  13
ATOM     13  N   LIG d   1      -4.679  76.466 116.878  0.00  0.00    -0.311 N 
ATOM     14  C   LIG d   1      -3.499  76.701 117.450  0.00  0.00     0.210 C 
ATOM     15  C   LIG d   1      -2.664  77.798 116.783  0.00  0.00     0.109 C 
ATOM     16  O   LIG d   1      -3.051  76.082 118.426  0.00  0.00    -0.276 OA
ATOM     17  H   LIG d   1      -4.948  76.993 116.070  0.00  0.00     0.149 HD
ENDBRANCH   6  13
BRANCH   5  18
ATOM     18  N   LIG d   1      -4.193  73.451 116.913  0.00  0.00     0.381 N 
ATOM     19  H   LIG d   1      -3.842  73.725 117.809  0.00  0.00    -0.090 HD
ATOM     20  H   LIG d   1      -3.542  73.759 116.212  0.00  0.00    -0.090 HD
ATOM     21  H   LIG d   1      -4.288  72.460 116.875  0.00  0.00    -0.090 HD
ENDBRANCH   5  18
BRANCH   3  22
ATOM     22  C   LIG d   1      -8.942  72.834 116.938  0.00  0.00     0.382 C 
ATOM     23  O   LIG d   1     -10.116  73.269 117.019  0.00  0.00    -0.241 OA
ATOM     24  O   LIG d   1      -8.750  71.620 116.734  0.00  0.00    -0.241 OA
ENDBRANCH   3  22
TORSDOF 7
ENDMDL
MODEL 2
REMARK VINA RESULT:      -5.1      1.712      3.008
REMARK  7 active torsions:
REMARK  status: ('A' for Active; 'I' for Inactive)
REMARK    1  A    between atoms: C_2  and  C_3 
REMARK    2  A    between atoms: C_3  and  O_6 
REMARK    3  A    between atoms: C_3  and  C_4 
REMARK    4  A    between atoms: C_7  and  O_6 
REMARK    5  A    between atoms: C_9  and  C_10 
REMARK    6  A    between atoms: N_15  and  C_14 
REMARK    7  A    between atoms: N_20  and  C_19 
REMARK       I    between atoms: C_22  and  N_20 
ROOT
ATOM      1  C   LIG d   1      -6.040  75.806 116.807  0.00  0.00     0.161 C 
ATOM      2  C   LIG d   1      -7.403  76.112 116.954  0.00  0.00     0.016 C 
ATOM      3  C   LIG d   1      -8.404  75.133 117.150  0.00  0.00     0.038 C 
ATOM      4  C   LIG d   1      -8.089  73.783 117.364  0.00  0.00     0.028 C 
ATOM      5  C   LIG d   1      -6.772  73.359 116.721  0.00  0.00    -0.047 C 
ATOM      6  C   LIG d   1      -5.664  74.349 117.148  0.00  0.00     0.091 C 
ENDROOT
BRANCH   1   7
ATOM      7  O   LIG d   1      -5.245  76.723 117.584  0.00  0.00    -0.368 OA
BRANCH   7   8
ATOM      8  C   LIG d   1      -4.785  77.911 116.894  0.00  0.00     0.119 C 
BRANCH   8   9
ATOM      9  C   LIG d   1      -3.270  77.754 116.661  0.00  0.00     0.028 C 
ATOM     10  C   LIG d   1      -2.830  78.284 115.286  0.00  0.00     0.006 C 
ENDBRANCH   8   9
BRANCH   8  11
ATOM     11  C   LIG d   1      -4.933  79.158 117.772  0.00  0.00     0.028 C 
ATOM     12  C   LIG d   1      -6.378  79.678 117.829  0.00  0.00     0.006 C 
ENDBRANCH   8  11
ENDBRANCH   7   8
ENDBRANCH   1   7
BRANCH   6  13
ATOM     13  N   LIG d   1      -4.361  74.056 116.496  0.00  0.00    -0.311 N 
ATOM     14  C   LIG d   1      -3.194  74.102 117.136  0.00  0.00     0.210 C 
ATOM     15  C   LIG d   1      -1.969  73.785 116.273  0.00  0.00     0.109 C 
ATOM     16  O   LIG d   1      -3.060  74.344 118.345  0.00  0.00    -0.276 OA
ATOM     17  H   LIG d   1      -4.380  73.819 115.523  0.00  0.00     0.149 HD
ENDBRANCH   6  13
BRANCH   5  18
ATOM     18  N   LIG d   1      -6.500  71.971 117.138  0.00  0.00     0.381 N 
ATOM     19  H   LIG d   1      -7.272  71.385 116.889  0.00  0.00    -0.090 HD
ATOM     20  H   LIG d   1      -6.394  71.946 118.137  0.00  0.00    -0.090 HD
ATOM     21  H   LIG d   1      -5.668  71.640 116.700  0.00  0.00    -0.090 HD
ENDBRANCH   5  18
BRANCH   3  22
ATOM     22  C   LIG d   1      -9.741  75.497 117.093  0.00  0.00     0.382 C 
ATOM     23  O   LIG d   1     -10.120  76.574 117.612  0.00  0.00    -0.241 OA
ATOM     24  O   LIG d   1     -10.579  74.740 116.569  0.00  0.00    -0.241 OA
ENDBRANCH   3  22
TORSDOF 7
ENDMDL
MODEL 3
REMARK VINA RESULT:      -4.9     15.794     18.198
REMARK  7 active torsions:
REMARK  status: ('A' for Active; 'I' for Inactive)
REMARK    1  A    between atoms: C_2  and  C_3 
REMARK    2  A    between atoms: C_3  and  O_6 
REMARK    3  A    between atoms: C_3  and  C_4 
REMARK    4  A    between atoms: C_7  and  O_6 
REMARK    5  A    between atoms: C_9  and  C_10 
REMARK    6  A    between atoms: N_15  and  C_14 
REMARK    7  A    between atoms: N_20  and  C_19 
REMARK       I    between atoms: C_22  and  N_20 
ROOT
ATOM      1  C   LIG d   1      10.919  78.673 114.736  0.00  0.00     0.161 C 
ATOM      2  C   LIG d   1      10.455  77.376 114.461  0.00  0.00     0.016 C 
ATOM      3  C   LIG d   1       9.407  76.756 115.180  0.00  0.00     0.038 C 
ATOM      4  C   LIG d   1       8.646  77.453 116.130  0.00  0.00     0.028 C 
ATOM      5  C   LIG d   1       9.406  78.597 116.793  0.00  0.00    -0.047 C 
ATOM      6  C   LIG d   1      10.028  79.489 115.695  0.00  0.00     0.091 C 
ENDROOT
BRANCH   1   7
ATOM      7  O   LIG d   1      11.119  79.392 113.503  0.00  0.00    -0.368 OA
BRANCH   7   8
ATOM      8  C   LIG d   1      12.476  79.815 113.225  0.00  0.00     0.119 C 
BRANCH   8   9
ATOM      9  C   LIG d   1      12.413  81.268 112.716  0.00  0.00     0.028 C 
ATOM     10  C   LIG d   1      11.100  81.575 111.976  0.00  0.00     0.006 C 
ENDBRANCH   8   9
BRANCH   8  11
ATOM     11  C   LIG d   1      13.086  79.009 112.074  0.00  0.00     0.028 C 
ATOM     12  C   LIG d   1      13.696  77.677 112.537  0.00  0.00     0.006 C 
ENDBRANCH   8  11
ENDBRANCH   7   8
ENDBRANCH   1   7
BRANCH   6  13
ATOM     13  N   LIG d   1      10.859  80.585 116.258  0.00  0.00    -0.311 N 
ATOM     14  C   LIG d   1      10.675  81.871 115.965  0.00  0.00     0.210 C 
ATOM     15  C   LIG d   1      11.655  82.835 116.639  0.00  0.00     0.109 C 
ATOM     16  O   LIG d   1       9.772  82.307 115.235  0.00  0.00    -0.276 OA
ATOM     17  H   LIG d   1      11.596  80.323 116.884  0.00  0.00     0.149 HD
ENDBRANCH   6  13
BRANCH   5  18
ATOM     18  N   LIG d   1       8.455  79.322 117.657  0.00  0.00     0.381 N 
ATOM     19  H   LIG d   1       8.907  79.589 118.509  0.00  0.00    -0.090 HD
ATOM     20  H   LIG d   1       7.691  78.710 117.885  0.00  0.00    -0.090 HD
ATOM     21  H   LIG d   1       8.114  80.130 117.186  0.00  0.00    -0.090 HD
ENDBRANCH   5  18
BRANCH   3  22
ATOM     22  C   LIG d   1       9.137  75.411 114.978  0.00  0.00     0.382 C 
ATOM     23  O   LIG d   1       8.166  75.067 114.262  0.00  0.00    -0.241 OA
ATOM     24  O   LIG d   1       9.825  74.537 115.539  0.00  0.00    -0.241 OA
ENDBRANCH   3  22
TORSDOF 7
ENDMDL
MODEL 4
REMARK VINA RESULT:      -4.8      5.442      8.374
REMARK  7 active torsions:
REMARK  status: ('A' for Active; 'I' for Inactive)
REMARK    1  A    between atoms: C_2  and  C_3 
REMARK    2  A    between atoms: C_3  and  O_6 
REMARK    3  A    between atoms: C_3  and  C_4 
REMARK    4  A    between atoms: C_7  and  O_6 
REMARK    5  A    between atoms: C_9  and  C_10 
REMARK    6  A    between atoms: N_15  and  C_14 
REMARK    7  A    between atoms: N_20  and  C_19 
REMARK       I    between atoms: C_22  and  N_20 
ROOT
ATOM      1  C   LIG d   1      -1.570  76.233 114.502  0.00  0.00     0.161 C 
ATOM      2  C   LIG d   1      -1.612  77.291 113.579  0.00  0.00     0.016 C 
ATOM      3  C   LIG d   1      -2.239  78.530 113.845  0.00  0.00     0.038 C 
ATOM      4  C   LIG d   1      -2.739  78.851 115.116  0.00  0.00     0.028 C 
ATOM      5  C   LIG d   1      -3.168  77.630 115.924  0.00  0.00    -0.047 C 
ATOM      6  C   LIG d   1      -2.012  76.604 115.933  0.00  0.00     0.091 C 
ENDROOT
BRANCH   1   7
ATOM      7  O   LIG d   1      -0.250  75.653 114.520  0.00  0.00    -0.368 OA
BRANCH   7   8
ATOM      8  C   LIG d   1      -0.080  74.433 113.757  0.00  0.00     0.119 C 
BRANCH   8   9
ATOM      9  C   LIG d   1      -0.356  73.251 114.707  0.00  0.00     0.028 C 
ATOM     10  C   LIG d   1      -0.067  71.891 114.050  0.00  0.00     0.006 C 
ENDBRANCH   8   9
BRANCH   8  11
ATOM     11  C   LIG d   1       1.372  74.258 113.303  0.00  0.00     0.028 C 
ATOM     12  C   LIG d   1       1.494  73.937 111.805  0.00  0.00     0.006 C 
ENDBRANCH   8  11
ENDBRANCH   7   8
ENDBRANCH   1   7
BRANCH   6  13
ATOM     13  N   LIG d   1      -2.379  75.344 116.631  0.00  0.00    -0.311 N 
ATOM     14  C   LIG d   1      -1.701  74.857 117.669  0.00  0.00     0.210 C 
ATOM     15  C   LIG d   1      -2.236  73.535 118.228  0.00  0.00     0.109 C 
ATOM     16  O   LIG d   1      -0.728  75.412 118.201  0.00  0.00    -0.276 OA
ATOM     17  H   LIG d   1      -3.175  74.845 116.284  0.00  0.00     0.149 HD
ENDBRANCH   6  13
BRANCH   5  18
ATOM     18  N   LIG d   1      -3.537  78.097 117.274  0.00  0.00     0.381 N 
ATOM     19  H   LIG d   1      -2.907  77.712 117.949  0.00  0.00    -0.090 HD
ATOM     20  H   LIG d   1      -4.464  77.774 117.487  0.00  0.00    -0.090 HD
ATOM     21  H   LIG d   1      -3.508  79.092 117.311  0.00  0.00    -0.090 HD
ENDBRANCH   5  18
BRANCH   3  22
ATOM     22  C   LIG d   1      -2.407  79.449 112.820  0.00  0.00     0.382 C 
ATOM     23  O   LIG d   1      -3.468  80.115 112.743  0.00  0.00    -0.241 OA
ATOM     24  O   LIG d   1      -1.530  79.589 111.947  0.00  0.00    -0.241 OA
ENDBRANCH   3  22
TORSDOF 7
ENDMDL
MODEL 5
REMARK VINA RESULT:      -4.7     12.052     15.377
REMARK  7 active torsions:
REMARK  status: ('A' for Active; 'I' for Inactive)
REMARK    1  A    between atoms: C_2  and  C_3 
REMARK    2  A    between atoms: C_3  and  O_6 
REMARK    3  A    between atoms: C_3  and  C_4 
REMARK    4  A    between atoms: C_7  and  O_6 
REMARK    5  A    between atoms: C_9  and  C_10 
REMARK    6  A    between atoms: N_15  and  C_14 
REMARK    7  A    between atoms: N_20  and  C_19 
REMARK       I    between atoms: C_22  and  N_20 
ROOT
ATOM      1  C   LIG d   1       2.876  86.158 113.927  0.00  0.00     0.161 C 
ATOM      2  C   LIG d   1       3.433  87.291 113.312  0.00  0.00     0.016 C 
ATOM      3  C   LIG d   1       4.454  88.073 113.899  0.00  0.00     0.038 C 
ATOM      4  C   LIG d   1       5.097  87.685 115.084  0.00  0.00     0.028 C 
ATOM      5  C   LIG d   1       4.224  86.826 115.993  0.00  0.00    -0.047 C 
ATOM      6  C   LIG d   1       3.642  85.655 115.169  0.00  0.00     0.091 C 
ENDROOT
BRANCH   1   7
ATOM      7  O   LIG d   1       2.735  85.098 112.962  0.00  0.00    -0.368 OA
BRANCH   7   8
ATOM      8  C   LIG d   1       1.387  84.828 112.503  0.00  0.00     0.119 C 
BRANCH   8   9
ATOM      9  C   LIG d   1       0.424  85.630 113.401  0.00  0.00     0.028 C 
ATOM     10  C   LIG d   1      -0.883  85.997 112.678  0.00  0.00     0.006 C 
ENDBRANCH   8   9
BRANCH   8  11
ATOM     11  C   LIG d   1       1.010  83.359 112.714  0.00  0.00     0.028 C 
ATOM     12  C   LIG d   1       2.211  82.410 112.575  0.00  0.00     0.006 C 
ENDBRANCH   8  11
ENDBRANCH   7   8
ENDBRANCH   1   7
BRANCH   6  13
ATOM     13  N   LIG d   1       2.708  84.813 115.962  0.00  0.00    -0.311 N 
ATOM     14  C   LIG d   1       2.860  83.500 116.121  0.00  0.00     0.210 C 
ATOM     15  C   LIG d   1       1.774  82.819 116.959  0.00  0.00     0.109 C 
ATOM     16  O   LIG d   1       3.810  82.838 115.674  0.00  0.00    -0.276 OA
ATOM     17  H   LIG d   1       1.927  85.274 116.386  0.00  0.00     0.149 HD
ENDBRANCH   6  13
BRANCH   5  18
ATOM     18  N   LIG d   1       5.061  86.378 117.122  0.00  0.00     0.381 N 
ATOM     19  H   LIG d   1       4.542  85.749 117.700  0.00  0.00    -0.090 HD
ATOM     20  H   LIG d   1       5.315  87.178 117.675  0.00  0.00    -0.090 HD
ATOM     21  H   LIG d   1       5.881  85.927 116.781  0.00  0.00    -0.090 HD
ENDBRANCH   5  18
BRANCH   3  22
ATOM     22  C   LIG d   1       4.815  89.281 113.320  0.00  0.00     0.382 C 
ATOM     23  O   LIG d   1       4.078  90.287 113.459  0.00  0.00    -0.241 OA
ATOM     24  O   LIG d   1       5.844  89.365 112.624  0.00  0.00    -0.241 OA
ENDBRANCH   3  22
TORSDOF 7
ENDMDL
MODEL 6
REMARK VINA RESULT:      -4.6     12.441     15.401
REMARK  7 active torsions:
REMARK  status: ('A' for Active; 'I' for Inactive)
REMARK    1  A    between atoms: C_2  and  C_3 
REMARK    2  A    between atoms: C_3  and  O_6 
REMARK    3  A    between atoms: C_3  and  C_4 
REMARK    4  A    between atoms: C_7  and  O_6 
REMARK    5  A    between atoms: C_9  and  C_10 
REMARK    6  A    between atoms: N_15  and  C_14 
REMARK    7  A    between atoms: N_20  and  C_19 
REMARK       I    between atoms: C_22  and  N_20 
ROOT
ATOM      1  C   LIG d   1       3.718  86.490 115.429  0.00  0.00     0.161 C 
ATOM      2  C   LIG d   1       3.433  85.261 114.811  0.00  0.00     0.016 C 
ATOM      3  C   LIG d   1       2.124  84.746 114.668  0.00  0.00     0.038 C 
ATOM      4  C   LIG d   1       0.990  85.502 115.001  0.00  0.00     0.028 C 
ATOM      5  C   LIG d   1       1.250  86.537 116.090  0.00  0.00    -0.047 C 
ATOM      6  C   LIG d   1       2.485  87.379 115.697  0.00  0.00     0.091 C 
ENDROOT
BRANCH   1   7
ATOM      7  O   LIG d   1       4.696  87.211 114.654  0.00  0.00    -0.368 OA
BRANCH   7   8
ATOM      8  C   LIG d   1       4.174  88.169 113.701  0.00  0.00     0.119 C 
BRANCH   8   9
ATOM      9  C   LIG d   1       4.174  87.492 112.316  0.00  0.00     0.028 C 
ATOM     10  C   LIG d   1       2.753  87.202 111.805  0.00  0.00     0.006 C 
ENDBRANCH   8   9
BRANCH   8  11
ATOM     11  C   LIG d   1       5.104  89.378 113.560  0.00  0.00     0.028 C 
ATOM     12  C   LIG d   1       5.765  89.779 114.889  0.00  0.00     0.006 C 
ENDBRANCH   8  11
ENDBRANCH   7   8
ENDBRANCH   1   7
BRANCH   6  13
ATOM     13  N   LIG d   1       2.860  88.361 116.748  0.00  0.00    -0.311 N 
ATOM     14  C   LIG d   1       2.475  89.636 116.731  0.00  0.00     0.210 C 
ATOM     15  C   LIG d   1       2.988  90.482 117.901  0.00  0.00     0.109 C 
ATOM     16  O   LIG d   1       1.731  90.139 115.875  0.00  0.00    -0.276 OA
ATOM     17  H   LIG d   1       3.436  88.030 117.497  0.00  0.00     0.149 HD
ENDBRANCH   6  13
BRANCH   5  18
ATOM     18  N   LIG d   1       0.024  87.344 116.239  0.00  0.00     0.381 N 
ATOM     19  H   LIG d   1      -0.629  87.105 115.520  0.00  0.00    -0.090 HD
ATOM     20  H   LIG d   1       0.260  88.316 116.140  0.00  0.00    -0.090 HD
ATOM     21  H   LIG d   1      -0.383  87.184 117.134  0.00  0.00    -0.090 HD
ENDBRANCH   5  18
BRANCH   3  22
ATOM     22  C   LIG d   1       1.942  83.445 114.225  0.00  0.00     0.382 C 
ATOM     23  O   LIG d   1       2.815  82.575 114.457  0.00  0.00    -0.241 OA
ATOM     24  O   LIG d   1       0.935  83.141 113.557  0.00  0.00    -0.241 OA
ENDBRANCH   3  22
TORSDOF 7
ENDMDL
MODEL 7
REMARK VINA RESULT:      -4.6     14.472     17.651
REMARK  7 active torsions:
REMARK  status: ('A' for Active; 'I' for Inactive)
REMARK    1  A    between atoms: C_2  and  C_3 
REMARK    2  A    between atoms: C_3  and  O_6 
REMARK    3  A    between atoms: C_3  and  C_4 
REMARK    4  A    between atoms: C_7  and  O_6 
REMARK    5  A    between atoms: C_9  and  C_10 
REMARK    6  A    between atoms: N_15  and  C_14 
REMARK    7  A    between atoms: N_20  and  C_19 
REMARK       I    between atoms: C_22  and  N_20 
ROOT
ATOM      1  C   LIG d   1      10.183  78.131 114.550  0.00  0.00     0.161 C 
ATOM      2  C   LIG d   1       8.957  78.218 115.230  0.00  0.00     0.016 C 
ATOM      3  C   LIG d   1       8.325  77.110 115.840  0.00  0.00     0.038 C 
ATOM      4  C   LIG d   1       8.954  75.861 115.942  0.00  0.00     0.028 C 
ATOM      5  C   LIG d   1       9.966  75.600 114.832  0.00  0.00    -0.047 C 
ATOM      6  C   LIG d   1      10.938  76.799 114.747  0.00  0.00     0.091 C 
ENDROOT
BRANCH   1   7
ATOM      7  O   LIG d   1      11.025  79.242 114.915  0.00  0.00    -0.368 OA
BRANCH   7   8
ATOM      8  C   LIG d   1      10.806  80.474 114.185  0.00  0.00     0.119 C 
BRANCH   8   9
ATOM      9  C   LIG d   1      11.515  80.338 112.823  0.00  0.00     0.028 C 
ATOM     10  C   LIG d   1      11.043  81.392 111.808  0.00  0.00     0.006 C 
ENDBRANCH   8   9
BRANCH   8  11
ATOM     11  C   LIG d   1      11.482  81.661 114.877  0.00  0.00     0.028 C 
ATOM     12  C   LIG d   1      10.475  82.673 115.445  0.00  0.00     0.006 C 
ENDBRANCH   8  11
ENDBRANCH   7   8
ENDBRANCH   1   7
BRANCH   6  13
ATOM     13  N   LIG d   1      11.909  76.664 113.630  0.00  0.00    -0.311 N 
ATOM     14  C   LIG d   1      13.199  76.977 113.738  0.00  0.00     0.210 C 
ATOM     15  C   LIG d   1      14.022  76.781 112.461  0.00  0.00     0.109 C 
ATOM     16  O   LIG d   1      13.747  77.367 114.780  0.00  0.00    -0.276 OA
ATOM     17  H   LIG d   1      11.556  76.324 112.757  0.00  0.00     0.149 HD
ENDBRANCH   6  13
BRANCH   5  18
ATOM     18  N   LIG d   1      10.645  74.327 115.137  0.00  0.00     0.381 N 
ATOM     19  H   LIG d   1      10.914  73.874 114.287  0.00  0.00    -0.090 HD
ATOM     20  H   LIG d   1      10.004  73.726 115.625  0.00  0.00    -0.090 HD
ATOM     21  H   LIG d   1      11.449  74.495 115.701  0.00  0.00    -0.090 HD
ENDBRANCH   5  18
BRANCH   3  22
ATOM     22  C   LIG d   1       7.031  77.237 116.322  0.00  0.00     0.382 C 
ATOM     23  O   LIG d   1       6.217  77.996 115.741  0.00  0.00    -0.241 OA
ATOM     24  O   LIG d   1       6.679  76.637 117.355  0.00  0.00    -0.241 OA
ENDBRANCH   3  22
TORSDOF 7
ENDMDL
MODEL 8
REMARK VINA RESULT:      -4.6     13.463     16.517
REMARK  7 active torsions:
REMARK  status: ('A' for Active; 'I' for Inactive)
REMARK    1  A    between atoms: C_2  and  C_3 
REMARK    2  A    between atoms: C_3  and  O_6 
REMARK    3  A    between atoms: C_3  and  C_4 
REMARK    4  A    between atoms: C_7  and  O_6 
REMARK    5  A    between atoms: C_9  and  C_10 
REMARK    6  A    between atoms: N_15  and  C_14 
REMARK    7  A    between atoms: N_20  and  C_19 
REMARK       I    between atoms: C_22  and  N_20 
ROOT
ATOM      1  C   LIG d   1       4.023  86.411 115.859  0.00  0.00     0.161 C 
ATOM      2  C   LIG d   1       3.641  87.615 115.244  0.00  0.00     0.016 C 
ATOM      3  C   LIG d   1       4.551  88.651 114.929  0.00  0.00     0.038 C 
ATOM      4  C   LIG d   1       5.937  88.488 115.070  0.00  0.00     0.028 C 
ATOM      5  C   LIG d   1       6.322  87.486 116.154  0.00  0.00    -0.047 C 
ATOM      6  C   LIG d   1       5.546  86.170 115.920  0.00  0.00     0.091 C 
ENDROOT
BRANCH   1   7
ATOM      7  O   LIG d   1       3.366  85.303 115.213  0.00  0.00    -0.368 OA
BRANCH   7   8
ATOM      8  C   LIG d   1       2.609  85.619 114.018  0.00  0.00     0.119 C 
BRANCH   8   9
ATOM      9  C   LIG d   1       1.310  84.792 114.061  0.00  0.00     0.028 C 
ATOM     10  C   LIG d   1       0.337  85.170 112.932  0.00  0.00     0.006 C 
ENDBRANCH   8   9
BRANCH   8  11
ATOM     11  C   LIG d   1       3.343  85.157 112.756  0.00  0.00     0.028 C 
ATOM     12  C   LIG d   1       3.681  86.317 111.805  0.00  0.00     0.006 C 
ENDBRANCH   8  11
ENDBRANCH   7   8
ENDBRANCH   1   7
BRANCH   6  13
ATOM     13  N   LIG d   1       5.800  85.165 116.984  0.00  0.00    -0.311 N 
ATOM     14  C   LIG d   1       6.757  84.241 116.906  0.00  0.00     0.210 C 
ATOM     15  C   LIG d   1       6.835  83.289 118.104  0.00  0.00     0.109 C 
ATOM     16  O   LIG d   1       7.568  84.139 115.974  0.00  0.00    -0.276 OA
ATOM     17  H   LIG d   1       5.208  85.195 117.791  0.00  0.00     0.149 HD
ENDBRANCH   6  13
BRANCH   5  18
ATOM     18  N   LIG d   1       7.786  87.312 116.100  0.00  0.00     0.381 N 
ATOM     19  H   LIG d   1       8.167  87.875 115.367  0.00  0.00    -0.090 HD
ATOM     20  H   LIG d   1       7.991  86.349 115.898  0.00  0.00    -0.090 HD
ATOM     21  H   LIG d   1       8.192  87.570 116.972  0.00  0.00    -0.090 HD
ENDBRANCH   5  18
BRANCH   3  22
ATOM     22  C   LIG d   1       4.072  89.880 114.503  0.00  0.00     0.382 C 
ATOM     23  O   LIG d   1       4.084  90.168 113.282  0.00  0.00    -0.241 OA
ATOM     24  O   LIG d   1       3.670  90.722 115.328  0.00  0.00    -0.241 OA
ENDBRANCH   3  22
TORSDOF 7
ENDMDL
MODEL 9
REMARK VINA RESULT:      -4.4      3.623      7.602
REMARK  7 active torsions:
REMARK  status: ('A' for Active; 'I' for Inactive)
REMARK    1  A    between atoms: C_2  and  C_3 
REMARK    2  A    between atoms: C_3  and  O_6 
REMARK    3  A    between atoms: C_3  and  C_4 
REMARK    4  A    between atoms: C_7  and  O_6 
REMARK    5  A    between atoms: C_9  and  C_10 
REMARK    6  A    between atoms: N_15  and  C_14 
REMARK    7  A    between atoms: N_20  and  C_19 
REMARK       I    between atoms: C_22  and  N_20 
ROOT
ATOM      1  C   LIG d   1      -2.622  75.922 115.049  0.00  0.00     0.161 C 
ATOM      2  C   LIG d   1      -2.201  76.990 114.240  0.00  0.00     0.016 C 
ATOM      3  C   LIG d   1      -2.557  78.337 114.480  0.00  0.00     0.038 C 
ATOM      4  C   LIG d   1      -3.239  78.727 115.642  0.00  0.00     0.028 C 
ATOM      5  C   LIG d   1      -4.118  77.627 116.226  0.00  0.00    -0.047 C 
ATOM      6  C   LIG d   1      -3.275  76.341 116.384  0.00  0.00     0.091 C 
ENDROOT
BRANCH   1   7
ATOM      7  O   LIG d   1      -1.519  75.027 115.291  0.00  0.00    -0.368 OA
BRANCH   7   8
ATOM      8  C   LIG d   1      -0.194  75.598 115.160  0.00  0.00     0.119 C 
BRANCH   8   9
ATOM      9  C   LIG d   1       0.679  74.576 114.405  0.00  0.00     0.028 C 
ATOM     10  C   LIG d   1      -0.025  73.219 114.232  0.00  0.00     0.006 C 
ENDBRANCH   8   9
BRANCH   8  11
ATOM     11  C   LIG d   1       0.476  75.772 116.526  0.00  0.00     0.028 C 
ATOM     12  C   LIG d   1       0.235  77.163 117.135  0.00  0.00     0.006 C 
ENDBRANCH   8  11
ENDBRANCH   7   8
ENDBRANCH   1   7
BRANCH   6  13
ATOM     13  N   LIG d   1      -4.080  75.191 116.871  0.00  0.00    -0.311 N 
ATOM     14  C   LIG d   1      -5.060  74.630 116.164  0.00  0.00     0.210 C 
ATOM     15  C   LIG d   1      -5.776  73.469 116.861  0.00  0.00     0.109 C 
ATOM     16  O   LIG d   1      -5.382  74.963 115.014  0.00  0.00    -0.276 OA
ATOM     17  H   LIG d   1      -3.864  74.837 117.782  0.00  0.00     0.149 HD
ENDBRANCH   6  13
BRANCH   5  18
ATOM     18  N   LIG d   1      -4.661  78.122 117.506  0.00  0.00     0.381 N 
ATOM     19  H   LIG d   1      -5.313  78.861 117.333  0.00  0.00    -0.090 HD
ATOM     20  H   LIG d   1      -3.906  78.490 118.058  0.00  0.00    -0.090 HD
ATOM     21  H   LIG d   1      -5.110  77.380 117.996  0.00  0.00    -0.090 HD
ENDBRANCH   5  18
BRANCH   3  22
ATOM     22  C   LIG d   1      -2.264  79.305 113.531  0.00  0.00     0.382 C 
ATOM     23  O   LIG d   1      -3.158  80.095 113.146  0.00  0.00    -0.241 OA
ATOM     24  O   LIG d   1      -1.128  79.369 113.024  0.00  0.00    -0.241 OA
ENDBRANCH   3  22
TORSDOF 7
ENDMDL
