MODEL 1
REMARK VINA RESULT:      -4.9      0.000      0.000
REMARK  7 active torsions:
REMARK  status: ('A' for Active; 'I' for Inactive)
REMARK    1  A    between atoms: C_2  and  C_3 
REMARK    2  A    between atoms: C_3  and  O_6 
REMARK    3  A    between atoms: C_3  and  C_4 
REMARK    4  A    between atoms: C_7  and  O_6 
REMARK    5  A    between atoms: C_9  and  C_10 
REMARK    6  A    between atoms: N_15  and  C_14 
REMARK    7  A    between atoms: N_20  and  C_19 
REMARK       I    between atoms: C_22  and  N_20 
ROOT
ATOM      1  C   LIG d   1      -1.223  75.715 114.690  0.00  0.00     0.161 C 
ATOM      2  C   LIG d   1      -1.016  74.778 115.716  0.00  0.00     0.016 C 
ATOM      3  C   LIG d   1      -0.312  75.071 116.907  0.00  0.00     0.038 C 
ATOM      4  C   LIG d   1       0.106  76.373 117.220  0.00  0.00     0.028 C 
ATOM      5  C   LIG d   1       0.362  77.239 115.991  0.00  0.00    -0.047 C 
ATOM      6  C   LIG d   1      -0.872  77.170 115.062  0.00  0.00     0.091 C 
ENDROOT
BRANCH   1   7
ATOM      7  O   LIG d   1      -2.584  75.632 114.221  0.00  0.00    -0.368 OA
BRANCH   7   8
ATOM      8  C   LIG d   1      -3.593  75.388 115.231  0.00  0.00     0.119 C 
BRANCH   8   9
ATOM      9  C   LIG d   1      -4.830  74.808 114.518  0.00  0.00     0.028 C 
ATOM     10  C   LIG d   1      -5.652  75.890 113.797  0.00  0.00     0.006 C 
ENDBRANCH   8   9
BRANCH   8  11
ATOM     11  C   LIG d   1      -4.069  76.695 115.871  0.00  0.00     0.028 C 
ATOM     12  C   LIG d   1      -3.832  76.736 117.389  0.00  0.00     0.006 C 
ENDBRANCH   8  11
ENDBRANCH   7   8
ENDBRANCH   1   7
BRANCH   6  13
ATOM     13  N   LIG d   1      -0.671  77.922 113.796  0.00  0.00    -0.311 N 
ATOM     14  C   LIG d   1      -1.125  79.159 113.598  0.00  0.00     0.210 C 
ATOM     15  C   LIG d   1      -0.826  79.743 112.214  0.00  0.00     0.109 C 
ATOM     16  O   LIG d   1      -1.719  79.839 114.449  0.00  0.00    -0.276 OA
ATOM     17  H   LIG d   1      -0.172  77.457 113.064  0.00  0.00     0.149 HD
ENDBRANCH   6  13
BRANCH   5  18
ATOM     18  N   LIG d   1       0.656  78.605 116.462  0.00  0.00     0.381 N 
ATOM     19  H   LIG d   1       0.329  78.717 117.401  0.00  0.00    -0.090 HD
ATOM     20  H   LIG d   1       0.169  79.262 115.878  0.00  0.00    -0.090 HD
ATOM     21  H   LIG d   1       1.637  78.777 116.421  0.00  0.00    -0.090 HD
ENDBRANCH   5  18
BRANCH   3  22
ATOM     22  C   LIG d   1       0.017  74.046 117.781  0.00  0.00     0.382 C 
ATOM     23  O   LIG d   1       1.163  73.997 118.287  0.00  0.00    -0.241 OA
ATOM     24  O   LIG d   1      -0.805  73.144 118.034  0.00  0.00    -0.241 OA
ENDBRANCH   3  22
TORSDOF 7
ENDMDL
MODEL 2
REMARK VINA RESULT:      -4.7      1.953      4.803
REMARK  7 active torsions:
REMARK  status: ('A' for Active; 'I' for Inactive)
REMARK    1  A    between atoms: C_2  and  C_3 
REMARK    2  A    between atoms: C_3  and  O_6 
REMARK    3  A    between atoms: C_3  and  C_4 
REMARK    4  A    between atoms: C_7  and  O_6 
REMARK    5  A    between atoms: C_9  and  C_10 
REMARK    6  A    between atoms: N_15  and  C_14 
REMARK    7  A    between atoms: N_20  and  C_19 
REMARK       I    between atoms: C_22  and  N_20 
ROOT
ATOM      1  C   LIG d   1      -2.651  76.220 116.280  0.00  0.00     0.161 C 
ATOM      2  C   LIG d   1      -2.864  77.464 115.663  0.00  0.00     0.016 C 
ATOM      3  C   LIG d   1      -2.032  77.979 114.643  0.00  0.00     0.038 C 
ATOM      4  C   LIG d   1      -1.012  77.212 114.060  0.00  0.00     0.028 C 
ATOM      5  C   LIG d   1      -0.443  76.150 114.995  0.00  0.00    -0.047 C 
ATOM      6  C   LIG d   1      -1.609  75.321 115.581  0.00  0.00     0.091 C 
ENDROOT
BRANCH   1   7
ATOM      7  O   LIG d   1      -3.904  75.521 116.416  0.00  0.00    -0.368 OA
BRANCH   7   8
ATOM      8  C   LIG d   1      -5.093  76.269 116.061  0.00  0.00     0.119 C 
BRANCH   8   9
ATOM      9  C   LIG d   1      -6.150  76.004 117.150  0.00  0.00     0.028 C 
ATOM     10  C   LIG d   1      -7.566  75.857 116.570  0.00  0.00     0.006 C 
ENDBRANCH   8   9
BRANCH   8  11
ATOM     11  C   LIG d   1      -5.711  75.748 114.760  0.00  0.00     0.028 C 
ATOM     12  C   LIG d   1      -4.906  74.597 114.137  0.00  0.00     0.006 C 
ENDBRANCH   8  11
ENDBRANCH   7   8
ENDBRANCH   1   7
BRANCH   6  13
ATOM     13  N   LIG d   1      -1.147  74.314 116.571  0.00  0.00    -0.311 N 
ATOM     14  C   LIG d   1      -0.480  74.629 117.680  0.00  0.00     0.210 C 
ATOM     15  C   LIG d   1      -0.080  73.436 118.555  0.00  0.00     0.109 C 
ATOM     16  O   LIG d   1      -0.211  75.785 118.039  0.00  0.00    -0.276 OA
ATOM     17  H   LIG d   1      -1.351  73.354 116.374  0.00  0.00     0.149 HD
ENDBRANCH   6  13
BRANCH   5  18
ATOM     18  N   LIG d   1       0.511  75.337 114.218  0.00  0.00     0.381 N 
ATOM     19  H   LIG d   1       0.119  74.433 114.039  0.00  0.00    -0.090 HD
ATOM     20  H   LIG d   1       1.350  75.215 114.757  0.00  0.00    -0.090 HD
ATOM     21  H   LIG d   1       0.724  75.791 113.357  0.00  0.00    -0.090 HD
ENDBRANCH   5  18
BRANCH   3  22
ATOM     22  C   LIG d   1      -2.192  79.290 114.222  0.00  0.00     0.382 C 
ATOM     23  O   LIG d   1      -1.189  79.973 113.901  0.00  0.00    -0.241 OA
ATOM     24  O   LIG d   1      -3.322  79.813 114.201  0.00  0.00    -0.241 OA
ENDBRANCH   3  22
TORSDOF 7
ENDMDL
MODEL 3
REMARK VINA RESULT:      -4.7      2.128      5.324
REMARK  7 active torsions:
REMARK  status: ('A' for Active; 'I' for Inactive)
REMARK    1  A    between atoms: C_2  and  C_3 
REMARK    2  A    between atoms: C_3  and  O_6 
REMARK    3  A    between atoms: C_3  and  C_4 
REMARK    4  A    between atoms: C_7  and  O_6 
REMARK    5  A    between atoms: C_9  and  C_10 
REMARK    6  A    between atoms: N_15  and  C_14 
REMARK    7  A    between atoms: N_20  and  C_19 
REMARK       I    between atoms: C_22  and  N_20 
ROOT
ATOM      1  C   LIG d   1      -2.431  78.138 116.244  0.00  0.00     0.161 C 
ATOM      2  C   LIG d   1      -2.712  79.087 115.248  0.00  0.00     0.016 C 
ATOM      3  C   LIG d   1      -2.187  79.019 113.937  0.00  0.00     0.038 C 
ATOM      4  C   LIG d   1      -1.460  77.907 113.487  0.00  0.00     0.028 C 
ATOM      5  C   LIG d   1      -0.730  77.168 114.603  0.00  0.00    -0.047 C 
ATOM      6  C   LIG d   1      -1.731  76.859 115.739  0.00  0.00     0.091 C 
ENDROOT
BRANCH   1   7
ATOM      7  O   LIG d   1      -3.640  77.801 116.952  0.00  0.00    -0.368 OA
BRANCH   7   8
ATOM      8  C   LIG d   1      -4.798  77.505 116.133  0.00  0.00     0.119 C 
BRANCH   8   9
ATOM      9  C   LIG d   1      -5.996  78.267 116.732  0.00  0.00     0.028 C 
ATOM     10  C   LIG d   1      -5.577  79.588 117.398  0.00  0.00     0.006 C 
ENDBRANCH   8   9
BRANCH   8  11
ATOM     11  C   LIG d   1      -5.177  76.023 116.217  0.00  0.00     0.028 C 
ATOM     12  C   LIG d   1      -6.671  75.806 116.500  0.00  0.00     0.006 C 
ENDBRANCH   8  11
ENDBRANCH   7   8
ENDBRANCH   1   7
BRANCH   6  13
ATOM     13  N   LIG d   1      -1.080  76.211 116.908  0.00  0.00    -0.311 N 
ATOM     14  C   LIG d   1      -1.369  74.977 117.318  0.00  0.00     0.210 C 
ATOM     15  C   LIG d   1      -0.597  74.509 118.555  0.00  0.00     0.109 C 
ATOM     16  O   LIG d   1      -2.169  74.214 116.755  0.00  0.00    -0.276 OA
ATOM     17  H   LIG d   1      -0.396  76.748 117.404  0.00  0.00     0.149 HD
ENDBRANCH   6  13
BRANCH   5  18
ATOM     18  N   LIG d   1      -0.129  75.956 114.016  0.00  0.00     0.381 N 
ATOM     19  H   LIG d   1      -0.840  75.274 113.844  0.00  0.00    -0.090 HD
ATOM     20  H   LIG d   1       0.527  75.568 114.671  0.00  0.00    -0.090 HD
ATOM     21  H   LIG d   1       0.336  76.183 113.165  0.00  0.00    -0.090 HD
ENDBRANCH   5  18
BRANCH   3  22
ATOM     22  C   LIG d   1      -2.353  80.091 113.073  0.00  0.00     0.382 C 
ATOM     23  O   LIG d   1      -3.496  80.380 112.646  0.00  0.00    -0.241 OA
ATOM     24  O   LIG d   1      -1.368  80.745 112.681  0.00  0.00    -0.241 OA
ENDBRANCH   3  22
TORSDOF 7
ENDMDL
MODEL 4
REMARK VINA RESULT:      -4.7     12.207     14.600
REMARK  7 active torsions:
REMARK  status: ('A' for Active; 'I' for Inactive)
REMARK    1  A    between atoms: C_2  and  C_3 
REMARK    2  A    between atoms: C_3  and  O_6 
REMARK    3  A    between atoms: C_3  and  C_4 
REMARK    4  A    between atoms: C_7  and  O_6 
REMARK    5  A    between atoms: C_9  and  C_10 
REMARK    6  A    between atoms: N_15  and  C_14 
REMARK    7  A    between atoms: N_20  and  C_19 
REMARK       I    between atoms: C_22  and  N_20 
ROOT
ATOM      1  C   LIG d   1      11.828  78.695 113.768  0.00  0.00     0.161 C 
ATOM      2  C   LIG d   1      10.472  78.924 114.053  0.00  0.00     0.016 C 
ATOM      3  C   LIG d   1       9.608  77.933 114.573  0.00  0.00     0.038 C 
ATOM      4  C   LIG d   1      10.082  76.679 114.988  0.00  0.00     0.028 C 
ATOM      5  C   LIG d   1      11.340  76.233 114.251  0.00  0.00    -0.047 C 
ATOM      6  C   LIG d   1      12.389  77.366 114.318  0.00  0.00     0.091 C 
ENDROOT
BRANCH   1   7
ATOM      7  O   LIG d   1      12.620  79.805 114.235  0.00  0.00    -0.368 OA
BRANCH   7   8
ATOM      8  C   LIG d   1      13.101  79.715 115.599  0.00  0.00     0.119 C 
BRANCH   8   9
ATOM      9  C   LIG d   1      12.389  80.812 116.414  0.00  0.00     0.028 C 
ATOM     10  C   LIG d   1      11.355  80.237 117.396  0.00  0.00     0.006 C 
ENDBRANCH   8   9
BRANCH   8  11
ATOM     11  C   LIG d   1      14.593  80.048 115.687  0.00  0.00     0.028 C 
ATOM     12  C   LIG d   1      15.234  80.278 114.309  0.00  0.00     0.006 C 
ENDBRANCH   8  11
ENDBRANCH   7   8
ENDBRANCH   1   7
BRANCH   6  13
ATOM     13  N   LIG d   1      13.620  77.046 113.549  0.00  0.00    -0.311 N 
ATOM     14  C   LIG d   1      14.725  76.553 114.107  0.00  0.00     0.210 C 
ATOM     15  C   LIG d   1      15.886  76.312 113.137  0.00  0.00     0.109 C 
ATOM     16  O   LIG d   1      14.842  76.262 115.307  0.00  0.00    -0.276 OA
ATOM     17  H   LIG d   1      13.601  77.222 112.564  0.00  0.00     0.149 HD
ENDBRANCH   6  13
BRANCH   5  18
ATOM     18  N   LIG d   1      11.802  74.980 114.876  0.00  0.00     0.381 N 
ATOM     19  H   LIG d   1      11.864  74.259 114.184  0.00  0.00    -0.090 HD
ATOM     20  H   LIG d   1      11.132  74.696 115.568  0.00  0.00    -0.090 HD
ATOM     21  H   LIG d   1      12.692  75.119 115.302  0.00  0.00    -0.090 HD
ENDBRANCH   5  18
BRANCH   3  22
ATOM     22  C   LIG d   1       8.245  78.179 114.645  0.00  0.00     0.382 C 
ATOM     23  O   LIG d   1       7.428  77.264 114.379  0.00  0.00    -0.241 OA
ATOM     24  O   LIG d   1       7.822  79.315 114.930  0.00  0.00    -0.241 OA
ENDBRANCH   3  22
TORSDOF 7
ENDMDL
MODEL 5
REMARK VINA RESULT:      -4.5      3.836      5.752
REMARK  7 active torsions:
REMARK  status: ('A' for Active; 'I' for Inactive)
REMARK    1  A    between atoms: C_2  and  C_3 
REMARK    2  A    between atoms: C_3  and  O_6 
REMARK    3  A    between atoms: C_3  and  C_4 
REMARK    4  A    between atoms: C_7  and  O_6 
REMARK    5  A    between atoms: C_9  and  C_10 
REMARK    6  A    between atoms: N_15  and  C_14 
REMARK    7  A    between atoms: N_20  and  C_19 
REMARK       I    between atoms: C_22  and  N_20 
ROOT
ATOM      1  C   LIG d   1      -4.875  75.737 115.809  0.00  0.00     0.161 C 
ATOM      2  C   LIG d   1      -5.301  74.410 115.638  0.00  0.00     0.016 C 
ATOM      3  C   LIG d   1      -6.367  73.835 116.369  0.00  0.00     0.038 C 
ATOM      4  C   LIG d   1      -7.181  74.599 117.218  0.00  0.00     0.028 C 
ATOM      5  C   LIG d   1      -6.472  75.817 117.801  0.00  0.00    -0.047 C 
ATOM      6  C   LIG d   1      -5.822  76.618 116.650  0.00  0.00     0.091 C 
ENDROOT
BRANCH   1   7
ATOM      7  O   LIG d   1      -4.637  76.343 114.523  0.00  0.00    -0.368 OA
BRANCH   7   8
ATOM      8  C   LIG d   1      -3.259  76.369 114.075  0.00  0.00     0.119 C 
BRANCH   8   9
ATOM      9  C   LIG d   1      -2.369  76.086 115.301  0.00  0.00     0.028 C 
ATOM     10  C   LIG d   1      -0.897  76.459 115.055  0.00  0.00     0.006 C 
ENDBRANCH   8   9
BRANCH   8  11
ATOM     11  C   LIG d   1      -2.856  77.767 113.595  0.00  0.00     0.028 C 
ATOM     12  C   LIG d   1      -2.886  77.902 112.064  0.00  0.00     0.006 C 
ENDBRANCH   8  11
ENDBRANCH   7   8
ENDBRANCH   1   7
BRANCH   6  13
ATOM     13  N   LIG d   1      -5.037  77.780 117.142  0.00  0.00    -0.311 N 
ATOM     14  C   LIG d   1      -5.554  78.997 117.307  0.00  0.00     0.210 C 
ATOM     15  C   LIG d   1      -4.566  80.057 117.804  0.00  0.00     0.109 C 
ATOM     16  O   LIG d   1      -6.744  79.291 117.119  0.00  0.00    -0.276 OA
ATOM     17  H   LIG d   1      -4.070  77.623 117.349  0.00  0.00     0.149 HD
ENDBRANCH   6  13
BRANCH   5  18
ATOM     18  N   LIG d   1      -7.473  76.596 118.554  0.00  0.00     0.381 N 
ATOM     19  H   LIG d   1      -7.012  77.247 119.158  0.00  0.00    -0.090 HD
ATOM     20  H   LIG d   1      -8.014  75.968 119.123  0.00  0.00    -0.090 HD
ATOM     21  H   LIG d   1      -8.072  77.083 117.924  0.00  0.00    -0.090 HD
ENDBRANCH   5  18
BRANCH   3  22
ATOM     22  C   LIG d   1      -6.601  72.471 116.283  0.00  0.00     0.382 C 
ATOM     23  O   LIG d   1      -6.101  71.806 115.343  0.00  0.00    -0.241 OA
ATOM     24  O   LIG d   1      -7.343  71.904 117.108  0.00  0.00    -0.241 OA
ENDBRANCH   3  22
TORSDOF 7
ENDMDL
MODEL 6
REMARK VINA RESULT:      -4.4     12.319     14.527
REMARK  7 active torsions:
REMARK  status: ('A' for Active; 'I' for Inactive)
REMARK    1  A    between atoms: C_2  and  C_3 
REMARK    2  A    between atoms: C_3  and  O_6 
REMARK    3  A    between atoms: C_3  and  C_4 
REMARK    4  A    between atoms: C_7  and  O_6 
REMARK    5  A    between atoms: C_9  and  C_10 
REMARK    6  A    between atoms: N_15  and  C_14 
REMARK    7  A    between atoms: N_20  and  C_19 
REMARK       I    between atoms: C_22  and  N_20 
ROOT
ATOM      1  C   LIG d   1      11.816  76.268 114.860  0.00  0.00     0.161 C 
ATOM      2  C   LIG d   1      10.445  76.561 114.774  0.00  0.00     0.016 C 
ATOM      3  C   LIG d   1       9.942  77.831 114.409  0.00  0.00     0.038 C 
ATOM      4  C   LIG d   1      10.782  78.859 113.957  0.00  0.00     0.028 C 
ATOM      5  C   LIG d   1      12.201  78.770 114.509  0.00  0.00    -0.047 C 
ATOM      6  C   LIG d   1      12.746  77.345 114.263  0.00  0.00     0.091 C 
ENDROOT
BRANCH   1   7
ATOM      7  O   LIG d   1      12.081  74.986 114.257  0.00  0.00    -0.368 OA
BRANCH   7   8
ATOM      8  C   LIG d   1      12.125  73.854 115.160  0.00  0.00     0.119 C 
BRANCH   8   9
ATOM      9  C   LIG d   1      13.504  73.862 115.846  0.00  0.00     0.028 C 
ATOM     10  C   LIG d   1      14.621  73.342 114.926  0.00  0.00     0.006 C 
ENDBRANCH   8   9
BRANCH   8  11
ATOM     11  C   LIG d   1      12.061  72.529 114.395  0.00  0.00     0.028 C 
ATOM     12  C   LIG d   1      11.497  71.377 115.243  0.00  0.00     0.006 C 
ENDBRANCH   8  11
ENDBRANCH   7   8
ENDBRANCH   1   7
BRANCH   6  13
ATOM     13  N   LIG d   1      14.098  77.146 114.848  0.00  0.00    -0.311 N 
ATOM     14  C   LIG d   1      15.176  76.856 114.122  0.00  0.00     0.210 C 
ATOM     15  C   LIG d   1      16.467  76.673 114.925  0.00  0.00     0.109 C 
ATOM     16  O   LIG d   1      15.192  76.766 112.885  0.00  0.00    -0.276 OA
ATOM     17  H   LIG d   1      14.182  77.232 115.842  0.00  0.00     0.149 HD
ENDBRANCH   6  13
BRANCH   5  18
ATOM     18  N   LIG d   1      13.003  79.818 113.850  0.00  0.00     0.381 N 
ATOM     19  H   LIG d   1      12.398  80.520 113.474  0.00  0.00    -0.090 HD
ATOM     20  H   LIG d   1      13.517  79.405 113.093  0.00  0.00    -0.090 HD
ATOM     21  H   LIG d   1      13.632  80.227 114.505  0.00  0.00    -0.090 HD
ENDBRANCH   5  18
BRANCH   3  22
ATOM     22  C   LIG d   1       8.586  78.095 114.534  0.00  0.00     0.382 C 
ATOM     23  O   LIG d   1       7.748  77.186 114.322  0.00  0.00    -0.241 OA
ATOM     24  O   LIG d   1       8.189  79.243 114.812  0.00  0.00    -0.241 OA
ENDBRANCH   3  22
TORSDOF 7
ENDMDL
MODEL 7
REMARK VINA RESULT:      -4.2     23.080     26.037
REMARK  7 active torsions:
REMARK  status: ('A' for Active; 'I' for Inactive)
REMARK    1  A    between atoms: C_2  and  C_3 
REMARK    2  A    between atoms: C_3  and  O_6 
REMARK    3  A    between atoms: C_3  and  C_4 
REMARK    4  A    between atoms: C_7  and  O_6 
REMARK    5  A    between atoms: C_9  and  C_10 
REMARK    6  A    between atoms: N_15  and  C_14 
REMARK    7  A    between atoms: N_20  and  C_19 
REMARK       I    between atoms: C_22  and  N_20 
ROOT
ATOM      1  C   LIG d   1     -25.628  85.552 113.333  0.00  0.00     0.161 C 
ATOM      2  C   LIG d   1     -24.540  86.440 113.364  0.00  0.00     0.016 C 
ATOM      3  C   LIG d   1     -23.204  86.026 113.572  0.00  0.00     0.038 C 
ATOM      4  C   LIG d   1     -22.845  84.671 113.612  0.00  0.00     0.028 C 
ATOM      5  C   LIG d   1     -23.971  83.760 114.090  0.00  0.00    -0.047 C 
ATOM      6  C   LIG d   1     -25.243  84.060 113.264  0.00  0.00     0.091 C 
ENDROOT
BRANCH   1   7
ATOM      7  O   LIG d   1     -26.506  85.894 112.243  0.00  0.00    -0.368 OA
BRANCH   7   8
ATOM      8  C   LIG d   1     -27.645  86.725 112.578  0.00  0.00     0.119 C 
BRANCH   8   9
ATOM      9  C   LIG d   1     -28.911  85.993 112.090  0.00  0.00     0.028 C 
ATOM     10  C   LIG d   1     -29.590  85.186 113.209  0.00  0.00     0.006 C 
ENDBRANCH   8   9
BRANCH   8  11
ATOM     11  C   LIG d   1     -27.618  88.047 111.805  0.00  0.00     0.028 C 
ATOM     12  C   LIG d   1     -27.020  89.202 112.623  0.00  0.00     0.006 C 
ENDBRANCH   8  11
ENDBRANCH   7   8
ENDBRANCH   1   7
BRANCH   6  13
ATOM     13  N   LIG d   1     -26.416  83.271 113.724  0.00  0.00    -0.311 N 
ATOM     14  C   LIG d   1     -27.048  82.383 112.958  0.00  0.00     0.210 C 
ATOM     15  C   LIG d   1     -28.246  81.695 113.621  0.00  0.00     0.109 C 
ATOM     16  O   LIG d   1     -26.711  82.076 111.805  0.00  0.00    -0.276 OA
ATOM     17  H   LIG d   1     -26.738  83.434 114.658  0.00  0.00     0.149 HD
ENDBRANCH   6  13
BRANCH   5  18
ATOM     18  N   LIG d   1     -23.507  82.367 113.952  0.00  0.00     0.381 N 
ATOM     19  H   LIG d   1     -22.522  82.320 114.122  0.00  0.00    -0.090 HD
ATOM     20  H   LIG d   1     -23.680  82.058 113.012  0.00  0.00    -0.090 HD
ATOM     21  H   LIG d   1     -23.991  81.781 114.596  0.00  0.00    -0.090 HD
ENDBRANCH   5  18
BRANCH   3  22
ATOM     22  C   LIG d   1     -22.215  86.975 113.782  0.00  0.00     0.382 C 
ATOM     23  O   LIG d   1     -22.430  87.947 114.547  0.00  0.00    -0.241 OA
ATOM     24  O   LIG d   1     -21.126  86.897 113.182  0.00  0.00    -0.241 OA
ENDBRANCH   3  22
TORSDOF 7
ENDMDL
MODEL 8
REMARK VINA RESULT:      -4.1     12.799     15.000
REMARK  7 active torsions:
REMARK  status: ('A' for Active; 'I' for Inactive)
REMARK    1  A    between atoms: C_2  and  C_3 
REMARK    2  A    between atoms: C_3  and  O_6 
REMARK    3  A    between atoms: C_3  and  C_4 
REMARK    4  A    between atoms: C_7  and  O_6 
REMARK    5  A    between atoms: C_9  and  C_10 
REMARK    6  A    between atoms: N_15  and  C_14 
REMARK    7  A    between atoms: N_20  and  C_19 
REMARK       I    between atoms: C_22  and  N_20 
ROOT
ATOM      1  C   LIG d   1      12.447  78.305 114.592  0.00  0.00     0.161 C 
ATOM      2  C   LIG d   1      11.178  77.707 114.514  0.00  0.00     0.016 C 
ATOM      3  C   LIG d   1      10.013  78.280 115.074  0.00  0.00     0.038 C 
ATOM      4  C   LIG d   1      10.011  79.571 115.623  0.00  0.00     0.028 C 
ATOM      5  C   LIG d   1      11.368  79.996 116.174  0.00  0.00    -0.047 C 
ATOM      6  C   LIG d   1      12.445  79.765 115.090  0.00  0.00     0.091 C 
ENDROOT
BRANCH   1   7
ATOM      7  O   LIG d   1      13.111  78.211 113.316  0.00  0.00    -0.368 OA
BRANCH   7   8
ATOM      8  C   LIG d   1      13.930  77.034 113.108  0.00  0.00     0.119 C 
BRANCH   8   9
ATOM      9  C   LIG d   1      14.660  76.738 114.432  0.00  0.00     0.028 C 
ATOM     10  C   LIG d   1      14.720  75.234 114.746  0.00  0.00     0.006 C 
ENDBRANCH   8   9
BRANCH   8  11
ATOM     11  C   LIG d   1      15.038  77.300 112.085  0.00  0.00     0.028 C 
ATOM     12  C   LIG d   1      16.125  78.248 112.616  0.00  0.00     0.006 C 
ENDBRANCH   8  11
ENDBRANCH   7   8
ENDBRANCH   1   7
BRANCH   6  13
ATOM     13  N   LIG d   1      13.815  80.076 115.576  0.00  0.00    -0.311 N 
ATOM     14  C   LIG d   1      14.689  80.806 114.886  0.00  0.00     0.210 C 
ATOM     15  C   LIG d   1      16.052  80.991 115.560  0.00  0.00     0.109 C 
ATOM     16  O   LIG d   1      14.455  81.345 113.794  0.00  0.00    -0.276 OA
ATOM     17  H   LIG d   1      14.078  79.705 116.468  0.00  0.00     0.149 HD
ENDBRANCH   6  13
BRANCH   5  18
ATOM     18  N   LIG d   1      11.258  81.407 116.588  0.00  0.00     0.381 N 
ATOM     19  H   LIG d   1      11.862  81.973 116.027  0.00  0.00    -0.090 HD
ATOM     20  H   LIG d   1      11.550  81.489 117.547  0.00  0.00    -0.090 HD
ATOM     21  H   LIG d   1      10.316  81.718 116.493  0.00  0.00    -0.090 HD
ENDBRANCH   5  18
BRANCH   3  22
ATOM     22  C   LIG d   1       8.840  77.542 115.123  0.00  0.00     0.382 C 
ATOM     23  O   LIG d   1       8.141  77.545 116.165  0.00  0.00    -0.241 OA
ATOM     24  O   LIG d   1       8.496  76.837 114.156  0.00  0.00    -0.241 OA
ENDBRANCH   3  22
TORSDOF 7
ENDMDL
MODEL 9
REMARK VINA RESULT:      -4.0      2.903      5.275
REMARK  7 active torsions:
REMARK  status: ('A' for Active; 'I' for Inactive)
REMARK    1  A    between atoms: C_2  and  C_3 
REMARK    2  A    between atoms: C_3  and  O_6 
REMARK    3  A    between atoms: C_3  and  C_4 
REMARK    4  A    between atoms: C_7  and  O_6 
REMARK    5  A    between atoms: C_9  and  C_10 
REMARK    6  A    between atoms: N_15  and  C_14 
REMARK    7  A    between atoms: N_20  and  C_19 
REMARK       I    between atoms: C_22  and  N_20 
ROOT
ATOM      1  C   LIG d   1      -3.492  76.499 116.871  0.00  0.00     0.161 C 
ATOM      2  C   LIG d   1      -4.664  75.756 116.653  0.00  0.00     0.016 C 
ATOM      3  C   LIG d   1      -5.949  76.338 116.564  0.00  0.00     0.038 C 
ATOM      4  C   LIG d   1      -6.133  77.728 116.535  0.00  0.00     0.028 C 
ATOM      5  C   LIG d   1      -5.033  78.500 117.257  0.00  0.00    -0.047 C 
ATOM      6  C   LIG d   1      -3.659  78.026 116.731  0.00  0.00     0.091 C 
ENDROOT
BRANCH   1   7
ATOM      7  O   LIG d   1      -2.445  76.027 116.000  0.00  0.00    -0.368 OA
BRANCH   7   8
ATOM      8  C   LIG d   1      -1.644  74.930 116.502  0.00  0.00     0.119 C 
BRANCH   8   9
ATOM      9  C   LIG d   1      -1.282  75.252 117.965  0.00  0.00     0.028 C 
ATOM     10  C   LIG d   1       0.012  76.073 118.083  0.00  0.00     0.006 C 
ENDBRANCH   8   9
BRANCH   8  11
ATOM     11  C   LIG d   1      -0.304  74.835 115.765  0.00  0.00     0.028 C 
ATOM     12  C   LIG d   1      -0.311  75.578 114.419  0.00  0.00     0.006 C 
ENDBRANCH   8  11
ENDBRANCH   7   8
ENDBRANCH   1   7
BRANCH   6  13
ATOM     13  N   LIG d   1      -2.526  78.670 117.446  0.00  0.00    -0.311 N 
ATOM     14  C   LIG d   1      -1.558  79.344 116.828  0.00  0.00     0.210 C 
ATOM     15  C   LIG d   1      -0.475  79.912 117.750  0.00  0.00     0.109 C 
ATOM     16  O   LIG d   1      -1.510  79.554 115.606  0.00  0.00    -0.276 OA
ATOM     17  H   LIG d   1      -2.503  78.577 118.442  0.00  0.00     0.149 HD
ENDBRANCH   6  13
BRANCH   5  18
ATOM     18  N   LIG d   1      -5.275  79.937 117.031  0.00  0.00     0.381 N 
ATOM     19  H   LIG d   1      -5.060  80.172 116.083  0.00  0.00    -0.090 HD
ATOM     20  H   LIG d   1      -4.669  80.467 117.633  0.00  0.00    -0.090 HD
ATOM     21  H   LIG d   1      -6.226  80.158 117.228  0.00  0.00    -0.090 HD
ENDBRANCH   5  18
BRANCH   3  22
ATOM     22  C   LIG d   1      -7.072  75.525 116.541  0.00  0.00     0.382 C 
ATOM     23  O   LIG d   1      -8.188  76.005 116.227  0.00  0.00    -0.241 OA
ATOM     24  O   LIG d   1      -6.991  74.327 116.875  0.00  0.00    -0.241 OA
ENDBRANCH   3  22
TORSDOF 7
ENDMDL
