MODEL 1
REMARK VINA RESULT:      -5.3      0.000      0.000
REMARK  7 active torsions:
REMARK  status: ('A' for Active; 'I' for Inactive)
REMARK    1  A    between atoms: C_2  and  C_3 
REMARK    2  A    between atoms: C_3  and  O_6 
REMARK    3  A    between atoms: C_3  and  C_4 
REMARK    4  A    between atoms: C_7  and  O_6 
REMARK    5  A    between atoms: C_9  and  C_10 
REMARK    6  A    between atoms: N_15  and  C_14 
REMARK    7  A    between atoms: N_20  and  C_19 
REMARK       I    between atoms: C_22  and  N_20 
ROOT
ATOM      1  C   LIG d   1      -4.513  75.812 117.578  0.00  0.00     0.161 C 
ATOM      2  C   LIG d   1      -5.737  76.484 117.733  0.00  0.00     0.016 C 
ATOM      3  C   LIG d   1      -5.954  77.814 117.303  0.00  0.00     0.038 C 
ATOM      4  C   LIG d   1      -5.001  78.514 116.549  0.00  0.00     0.028 C 
ATOM      5  C   LIG d   1      -3.569  78.058 116.807  0.00  0.00    -0.047 C 
ATOM      6  C   LIG d   1      -3.498  76.521 116.658  0.00  0.00     0.091 C 
ENDROOT
BRANCH   1   7
ATOM      7  O   LIG d   1      -4.750  74.466 117.119  0.00  0.00    -0.368 OA
BRANCH   7   8
ATOM      8  C   LIG d   1      -6.027  74.226 116.479  0.00  0.00     0.119 C 
BRANCH   8   9
ATOM      9  C   LIG d   1      -6.575  72.892 117.023  0.00  0.00     0.028 C 
ATOM     10  C   LIG d   1      -6.523  71.766 115.977  0.00  0.00     0.006 C 
ENDBRANCH   8   9
BRANCH   8  11
ATOM     11  C   LIG d   1      -5.864  74.012 114.971  0.00  0.00     0.028 C 
ATOM     12  C   LIG d   1      -6.159  75.280 114.154  0.00  0.00     0.006 C 
ENDBRANCH   8  11
ENDBRANCH   7   8
ENDBRANCH   1   7
BRANCH   6  13
ATOM     13  N   LIG d   1      -2.150  75.982 116.977  0.00  0.00    -0.311 N 
ATOM     14  C   LIG d   1      -1.475  75.167 116.167  0.00  0.00     0.210 C 
ATOM     15  C   LIG d   1      -0.111  74.713 116.697  0.00  0.00     0.109 C 
ATOM     16  O   LIG d   1      -1.863  74.803 115.047  0.00  0.00    -0.276 OA
ATOM     17  H   LIG d   1      -1.746  76.252 117.852  0.00  0.00     0.149 HD
ENDBRANCH   6  13
BRANCH   5  18
ATOM     18  N   LIG d   1      -2.695  78.772 115.858  0.00  0.00     0.381 N 
ATOM     19  H   LIG d   1      -2.530  78.201 115.054  0.00  0.00    -0.090 HD
ATOM     20  H   LIG d   1      -1.813  78.954 116.302  0.00  0.00    -0.090 HD
ATOM     21  H   LIG d   1      -3.120  79.631 115.583  0.00  0.00    -0.090 HD
ENDBRANCH   5  18
BRANCH   3  22
ATOM     22  C   LIG d   1      -7.121  78.470 117.664  0.00  0.00     0.382 C 
ATOM     23  O   LIG d   1      -8.071  77.827 118.171  0.00  0.00    -0.241 OA
ATOM     24  O   LIG d   1      -7.252  79.690 117.447  0.00  0.00    -0.241 OA
ENDBRANCH   3  22
TORSDOF 7
ENDMDL
MODEL 2
REMARK VINA RESULT:      -5.2      3.323      4.819
REMARK  7 active torsions:
REMARK  status: ('A' for Active; 'I' for Inactive)
REMARK    1  A    between atoms: C_2  and  C_3 
REMARK    2  A    between atoms: C_3  and  O_6 
REMARK    3  A    between atoms: C_3  and  C_4 
REMARK    4  A    between atoms: C_7  and  O_6 
REMARK    5  A    between atoms: C_9  and  C_10 
REMARK    6  A    between atoms: N_15  and  C_14 
REMARK    7  A    between atoms: N_20  and  C_19 
REMARK       I    between atoms: C_22  and  N_20 
ROOT
ATOM      1  C   LIG d   1      -3.267  78.289 115.391  0.00  0.00     0.161 C 
ATOM      2  C   LIG d   1      -3.299  79.487 114.659  0.00  0.00     0.016 C 
ATOM      3  C   LIG d   1      -2.647  79.658 113.416  0.00  0.00     0.038 C 
ATOM      4  C   LIG d   1      -2.040  78.587 112.744  0.00  0.00     0.028 C 
ATOM      5  C   LIG d   1      -1.549  77.486 113.678  0.00  0.00    -0.047 C 
ATOM      6  C   LIG d   1      -2.703  77.076 114.621  0.00  0.00     0.091 C 
ENDROOT
BRANCH   1   7
ATOM      7  O   LIG d   1      -4.582  77.992 115.900  0.00  0.00    -0.368 OA
BRANCH   7   8
ATOM      8  C   LIG d   1      -4.848  78.410 117.261  0.00  0.00     0.119 C 
BRANCH   8   9
ATOM      9  C   LIG d   1      -4.649  77.181 118.170  0.00  0.00     0.028 C 
ATOM     10  C   LIG d   1      -5.790  76.159 118.034  0.00  0.00     0.006 C 
ENDBRANCH   8   9
BRANCH   8  11
ATOM     11  C   LIG d   1      -6.314  78.815 117.443  0.00  0.00     0.028 C 
ATOM     12  C   LIG d   1      -6.483  80.309 117.761  0.00  0.00     0.006 C 
ENDBRANCH   8  11
ENDBRANCH   7   8
ENDBRANCH   1   7
BRANCH   6  13
ATOM     13  N   LIG d   1      -2.284  76.062 115.623  0.00  0.00    -0.311 N 
ATOM     14  C   LIG d   1      -2.934  74.918 115.825  0.00  0.00     0.210 C 
ATOM     15  C   LIG d   1      -2.345  74.024 116.921  0.00  0.00     0.109 C 
ATOM     16  O   LIG d   1      -3.925  74.544 115.179  0.00  0.00    -0.276 OA
ATOM     17  H   LIG d   1      -1.471  76.271 116.170  0.00  0.00     0.149 HD
ENDBRANCH   6  13
BRANCH   5  18
ATOM     18  N   LIG d   1      -1.065  76.373 112.839  0.00  0.00     0.381 N 
ATOM     19  H   LIG d   1      -0.368  75.853 113.335  0.00  0.00    -0.090 HD
ATOM     20  H   LIG d   1      -0.644  76.751 112.009  0.00  0.00    -0.090 HD
ATOM     21  H   LIG d   1      -1.823  75.776 112.594  0.00  0.00    -0.090 HD
ENDBRANCH   5  18
BRANCH   3  22
ATOM     22  C   LIG d   1      -2.563  80.922 112.852  0.00  0.00     0.382 C 
ATOM     23  O   LIG d   1      -3.537  81.709 112.930  0.00  0.00    -0.241 OA
ATOM     24  O   LIG d   1      -1.542  81.269 112.227  0.00  0.00    -0.241 OA
ENDBRANCH   3  22
TORSDOF 7
ENDMDL
MODEL 3
REMARK VINA RESULT:      -5.0      1.771      4.898
REMARK  7 active torsions:
REMARK  status: ('A' for Active; 'I' for Inactive)
REMARK    1  A    between atoms: C_2  and  C_3 
REMARK    2  A    between atoms: C_3  and  O_6 
REMARK    3  A    between atoms: C_3  and  C_4 
REMARK    4  A    between atoms: C_7  and  O_6 
REMARK    5  A    between atoms: C_9  and  C_10 
REMARK    6  A    between atoms: N_15  and  C_14 
REMARK    7  A    between atoms: N_20  and  C_19 
REMARK       I    between atoms: C_22  and  N_20 
ROOT
ATOM      1  C   LIG d   1      -3.846  75.314 116.444  0.00  0.00     0.161 C 
ATOM      2  C   LIG d   1      -2.743  74.731 115.800  0.00  0.00     0.016 C 
ATOM      3  C   LIG d   1      -1.410  75.161 115.996  0.00  0.00     0.038 C 
ATOM      4  C   LIG d   1      -1.074  76.112 116.971  0.00  0.00     0.028 C 
ATOM      5  C   LIG d   1      -2.206  77.084 117.286  0.00  0.00    -0.047 C 
ATOM      6  C   LIG d   1      -3.488  76.277 117.595  0.00  0.00     0.091 C 
ENDROOT
BRANCH   1   7
ATOM      7  O   LIG d   1      -4.739  74.284 116.913  0.00  0.00    -0.368 OA
BRANCH   7   8
ATOM      8  C   LIG d   1      -5.680  73.765 115.940  0.00  0.00     0.119 C 
BRANCH   8   9
ATOM      9  C   LIG d   1      -6.475  74.961 115.382  0.00  0.00     0.028 C 
ATOM     10  C   LIG d   1      -7.694  75.312 116.252  0.00  0.00     0.006 C 
ENDBRANCH   8   9
BRANCH   8  11
ATOM     11  C   LIG d   1      -6.721  72.858 116.602  0.00  0.00     0.028 C 
ATOM     12  C   LIG d   1      -6.689  71.420 116.060  0.00  0.00     0.006 C 
ENDBRANCH   8  11
ENDBRANCH   7   8
ENDBRANCH   1   7
BRANCH   6  13
ATOM     13  N   LIG d   1      -4.665  77.153 117.831  0.00  0.00    -0.311 N 
ATOM     14  C   LIG d   1      -5.112  78.037 116.941  0.00  0.00     0.210 C 
ATOM     15  C   LIG d   1      -6.327  78.853 117.393  0.00  0.00     0.109 C 
ATOM     16  O   LIG d   1      -4.636  78.201 115.807  0.00  0.00    -0.276 OA
ATOM     17  H   LIG d   1      -5.130  77.064 118.714  0.00  0.00     0.149 HD
ENDBRANCH   6  13
BRANCH   5  18
ATOM     18  N   LIG d   1      -1.768  77.928 118.413  0.00  0.00     0.381 N 
ATOM     19  H   LIG d   1      -2.348  77.758 119.210  0.00  0.00    -0.090 HD
ATOM     20  H   LIG d   1      -1.866  78.894 118.152  0.00  0.00    -0.090 HD
ATOM     21  H   LIG d   1      -0.817  77.732 118.637  0.00  0.00    -0.090 HD
ENDBRANCH   5  18
BRANCH   3  22
ATOM     22  C   LIG d   1      -0.402  74.668 115.182  0.00  0.00     0.382 C 
ATOM     23  O   LIG d   1       0.761  75.130 115.274  0.00  0.00    -0.241 OA
ATOM     24  O   LIG d   1      -0.650  73.797 114.327  0.00  0.00    -0.241 OA
ENDBRANCH   3  22
TORSDOF 7
ENDMDL
MODEL 4
REMARK VINA RESULT:      -4.5     10.643     12.487
REMARK  7 active torsions:
REMARK  status: ('A' for Active; 'I' for Inactive)
REMARK    1  A    between atoms: C_2  and  C_3 
REMARK    2  A    between atoms: C_3  and  O_6 
REMARK    3  A    between atoms: C_3  and  C_4 
REMARK    4  A    between atoms: C_7  and  O_6 
REMARK    5  A    between atoms: C_9  and  C_10 
REMARK    6  A    between atoms: N_15  and  C_14 
REMARK    7  A    between atoms: N_20  and  C_19 
REMARK       I    between atoms: C_22  and  N_20 
ROOT
ATOM      1  C   LIG d   1       2.619  85.132 113.820  0.00  0.00     0.161 C 
ATOM      2  C   LIG d   1       2.599  86.400 113.217  0.00  0.00     0.016 C 
ATOM      3  C   LIG d   1       3.559  87.404 113.483  0.00  0.00     0.038 C 
ATOM      4  C   LIG d   1       4.698  87.152 114.263  0.00  0.00     0.028 C 
ATOM      5  C   LIG d   1       4.494  86.048 115.294  0.00  0.00    -0.047 C 
ATOM      6  C   LIG d   1       3.916  84.801 114.587  0.00  0.00     0.091 C 
ENDROOT
BRANCH   1   7
ATOM      7  O   LIG d   1       2.349  84.117 112.833  0.00  0.00    -0.368 OA
BRANCH   7   8
ATOM      8  C   LIG d   1       1.095  83.406 112.977  0.00  0.00     0.119 C 
BRANCH   8   9
ATOM      9  C   LIG d   1       1.405  81.899 112.889  0.00  0.00     0.028 C 
ATOM     10  C   LIG d   1       2.477  81.581 111.833  0.00  0.00     0.006 C 
ENDBRANCH   8   9
BRANCH   8  11
ATOM     11  C   LIG d   1       0.152  83.695 111.805  0.00  0.00     0.028 C 
ATOM     12  C   LIG d   1      -0.546  85.059 111.924  0.00  0.00     0.006 C 
ENDBRANCH   8  11
ENDBRANCH   7   8
ENDBRANCH   1   7
BRANCH   6  13
ATOM     13  N   LIG d   1       3.608  83.702 115.539  0.00  0.00    -0.311 N 
ATOM     14  C   LIG d   1       4.042  82.453 115.382  0.00  0.00     0.210 C 
ATOM     15  C   LIG d   1       3.592  81.470 116.468  0.00  0.00     0.109 C 
ATOM     16  O   LIG d   1       4.783  82.072 114.463  0.00  0.00    -0.276 OA
ATOM     17  H   LIG d   1       3.038  83.930 116.330  0.00  0.00     0.149 HD
ENDBRANCH   6  13
BRANCH   5  18
ATOM     18  N   LIG d   1       5.796  85.796 115.940  0.00  0.00     0.381 N 
ATOM     19  H   LIG d   1       6.522  85.801 115.252  0.00  0.00    -0.090 HD
ATOM     20  H   LIG d   1       5.775  84.887 116.369  0.00  0.00    -0.090 HD
ATOM     21  H   LIG d   1       5.976  86.492 116.629  0.00  0.00    -0.090 HD
ENDBRANCH   5  18
BRANCH   3  22
ATOM     22  C   LIG d   1       3.363  88.688 112.999  0.00  0.00     0.382 C 
ATOM     23  O   LIG d   1       4.312  89.509 112.995  0.00  0.00    -0.241 OA
ATOM     24  O   LIG d   1       2.237  89.051 112.608  0.00  0.00    -0.241 OA
ENDBRANCH   3  22
TORSDOF 7
ENDMDL
MODEL 5
REMARK VINA RESULT:      -4.4     13.897     16.464
REMARK  7 active torsions:
REMARK  status: ('A' for Active; 'I' for Inactive)
REMARK    1  A    between atoms: C_2  and  C_3 
REMARK    2  A    between atoms: C_3  and  O_6 
REMARK    3  A    between atoms: C_3  and  C_4 
REMARK    4  A    between atoms: C_7  and  O_6 
REMARK    5  A    between atoms: C_9  and  C_10 
REMARK    6  A    between atoms: N_15  and  C_14 
REMARK    7  A    between atoms: N_20  and  C_19 
REMARK       I    between atoms: C_22  and  N_20 
ROOT
ATOM      1  C   LIG d   1      11.233  76.071 115.083  0.00  0.00     0.161 C 
ATOM      2  C   LIG d   1       9.908  76.535 115.128  0.00  0.00     0.016 C 
ATOM      3  C   LIG d   1       9.534  77.856 114.792  0.00  0.00     0.038 C 
ATOM      4  C   LIG d   1      10.446  78.766 114.238  0.00  0.00     0.028 C 
ATOM      5  C   LIG d   1      11.891  78.501 114.647  0.00  0.00    -0.047 C 
ATOM      6  C   LIG d   1      12.226  77.017 114.375  0.00  0.00     0.091 C 
ENDROOT
BRANCH   1   7
ATOM      7  O   LIG d   1      11.272  74.762 114.481  0.00  0.00    -0.368 OA
BRANCH   7   8
ATOM      8  C   LIG d   1      11.133  73.639 115.386  0.00  0.00     0.119 C 
BRANCH   8   9
ATOM      9  C   LIG d   1      12.449  73.516 116.177  0.00  0.00     0.028 C 
ATOM     10  C   LIG d   1      13.618  73.034 115.300  0.00  0.00     0.006 C 
ENDBRANCH   8   9
BRANCH   8  11
ATOM     11  C   LIG d   1      10.994  72.320 114.620  0.00  0.00     0.028 C 
ATOM     12  C   LIG d   1       9.810  71.470 115.107  0.00  0.00     0.006 C 
ENDBRANCH   8  11
ENDBRANCH   7   8
ENDBRANCH   1   7
BRANCH   6  13
ATOM     13  N   LIG d   1      13.594  76.652 114.826  0.00  0.00    -0.311 N 
ATOM     14  C   LIG d   1      14.674  76.765 114.055  0.00  0.00     0.210 C 
ATOM     15  C   LIG d   1      15.985  76.315 114.708  0.00  0.00     0.109 C 
ATOM     16  O   LIG d   1      14.676  77.225 112.903  0.00  0.00    -0.276 OA
ATOM     17  H   LIG d   1      13.688  76.299 115.758  0.00  0.00     0.149 HD
ENDBRANCH   6  13
BRANCH   5  18
ATOM     18  N   LIG d   1      12.747  79.435 113.892  0.00  0.00     0.381 N 
ATOM     19  H   LIG d   1      12.437  79.485 112.942  0.00  0.00    -0.090 HD
ATOM     20  H   LIG d   1      13.690  79.088 113.898  0.00  0.00    -0.090 HD
ATOM     21  H   LIG d   1      12.715  80.340 114.307  0.00  0.00    -0.090 HD
ENDBRANCH   5  18
BRANCH   3  22
ATOM     22  C   LIG d   1       8.242  78.291 115.046  0.00  0.00     0.382 C 
ATOM     23  O   LIG d   1       7.265  77.562 114.748  0.00  0.00    -0.241 OA
ATOM     24  O   LIG d   1       8.039  79.420 115.529  0.00  0.00    -0.241 OA
ENDBRANCH   3  22
TORSDOF 7
ENDMDL
MODEL 6
REMARK VINA RESULT:      -4.2     13.524     15.419
REMARK  7 active torsions:
REMARK  status: ('A' for Active; 'I' for Inactive)
REMARK    1  A    between atoms: C_2  and  C_3 
REMARK    2  A    between atoms: C_3  and  O_6 
REMARK    3  A    between atoms: C_3  and  C_4 
REMARK    4  A    between atoms: C_7  and  O_6 
REMARK    5  A    between atoms: C_9  and  C_10 
REMARK    6  A    between atoms: N_15  and  C_14 
REMARK    7  A    between atoms: N_20  and  C_19 
REMARK       I    between atoms: C_22  and  N_20 
ROOT
ATOM      1  C   LIG d   1       4.916  87.205 115.642  0.00  0.00     0.161 C 
ATOM      2  C   LIG d   1       3.945  88.218 115.580  0.00  0.00     0.016 C 
ATOM      3  C   LIG d   1       4.178  89.546 116.008  0.00  0.00     0.038 C 
ATOM      4  C   LIG d   1       5.453  89.990 116.388  0.00  0.00     0.028 C 
ATOM      5  C   LIG d   1       6.340  88.881 116.944  0.00  0.00    -0.047 C 
ATOM      6  C   LIG d   1       6.346  87.697 115.950  0.00  0.00     0.091 C 
ENDROOT
BRANCH   1   7
ATOM      7  O   LIG d   1       4.902  86.440 114.421  0.00  0.00    -0.368 OA
BRANCH   7   8
ATOM      8  C   LIG d   1       3.602  86.226 113.817  0.00  0.00     0.119 C 
BRANCH   8   9
ATOM      9  C   LIG d   1       3.365  84.705 113.754  0.00  0.00     0.028 C 
ATOM     10  C   LIG d   1       4.531  83.904 114.358  0.00  0.00     0.006 C 
ENDBRANCH   8   9
BRANCH   8  11
ATOM     11  C   LIG d   1       3.579  86.701 112.361  0.00  0.00     0.028 C 
ATOM     12  C   LIG d   1       2.450  87.706 112.080  0.00  0.00     0.006 C 
ENDBRANCH   8  11
ENDBRANCH   7   8
ENDBRANCH   1   7
BRANCH   6  13
ATOM     13  N   LIG d   1       7.122  86.536 116.456  0.00  0.00    -0.311 N 
ATOM     14  C   LIG d   1       8.423  86.365 116.223  0.00  0.00     0.210 C 
ATOM     15  C   LIG d   1       9.025  85.089 116.820  0.00  0.00     0.109 C 
ATOM     16  O   LIG d   1       9.142  87.166 115.607  0.00  0.00    -0.276 OA
ATOM     17  H   LIG d   1       6.624  85.853 116.992  0.00  0.00     0.149 HD
ENDBRANCH   6  13
BRANCH   5  18
ATOM     18  N   LIG d   1       7.680  89.453 117.170  0.00  0.00     0.381 N 
ATOM     19  H   LIG d   1       7.650  90.446 117.046  0.00  0.00    -0.090 HD
ATOM     20  H   LIG d   1       8.316  89.070 116.493  0.00  0.00    -0.090 HD
ATOM     21  H   LIG d   1       7.993  89.236 118.090  0.00  0.00    -0.090 HD
ENDBRANCH   5  18
BRANCH   3  22
ATOM     22  C   LIG d   1       3.117  90.435 116.096  0.00  0.00     0.382 C 
ATOM     23  O   LIG d   1       3.264  91.528 116.693  0.00  0.00    -0.241 OA
ATOM     24  O   LIG d   1       2.003  90.138 115.623  0.00  0.00    -0.241 OA
ENDBRANCH   3  22
TORSDOF 7
ENDMDL
MODEL 7
REMARK VINA RESULT:      -4.0     13.903     17.140
REMARK  7 active torsions:
REMARK  status: ('A' for Active; 'I' for Inactive)
REMARK    1  A    between atoms: C_2  and  C_3 
REMARK    2  A    between atoms: C_3  and  O_6 
REMARK    3  A    between atoms: C_3  and  C_4 
REMARK    4  A    between atoms: C_7  and  O_6 
REMARK    5  A    between atoms: C_9  and  C_10 
REMARK    6  A    between atoms: N_15  and  C_14 
REMARK    7  A    between atoms: N_20  and  C_19 
REMARK       I    between atoms: C_22  and  N_20 
ROOT
ATOM      1  C   LIG d   1      11.517  76.409 114.079  0.00  0.00     0.161 C 
ATOM      2  C   LIG d   1      10.427  77.294 114.113  0.00  0.00     0.016 C 
ATOM      3  C   LIG d   1       9.655  77.532 115.273  0.00  0.00     0.038 C 
ATOM      4  C   LIG d   1      10.016  77.012 116.524  0.00  0.00     0.028 C 
ATOM      5  C   LIG d   1      10.811  75.714 116.434  0.00  0.00    -0.047 C 
ATOM      6  C   LIG d   1      11.995  75.917 115.461  0.00  0.00     0.091 C 
ENDROOT
BRANCH   1   7
ATOM      7  O   LIG d   1      12.611  77.007 113.355  0.00  0.00    -0.368 OA
BRANCH   7   8
ATOM      8  C   LIG d   1      13.151  78.230 113.914  0.00  0.00     0.119 C 
BRANCH   8   9
ATOM      9  C   LIG d   1      13.346  79.223 112.752  0.00  0.00     0.028 C 
ATOM     10  C   LIG d   1      12.012  79.773 112.220  0.00  0.00     0.006 C 
ENDBRANCH   8   9
BRANCH   8  11
ATOM     11  C   LIG d   1      14.550  78.006 114.495  0.00  0.00     0.028 C 
ATOM     12  C   LIG d   1      15.365  76.970 113.704  0.00  0.00     0.006 C 
ENDBRANCH   8  11
ENDBRANCH   7   8
ENDBRANCH   1   7
BRANCH   6  13
ATOM     13  N   LIG d   1      12.775  74.670 115.250  0.00  0.00    -0.311 N 
ATOM     14  C   LIG d   1      13.888  74.378 115.922  0.00  0.00     0.210 C 
ATOM     15  C   LIG d   1      14.548  73.051 115.536  0.00  0.00     0.109 C 
ATOM     16  O   LIG d   1      14.373  75.078 116.824  0.00  0.00    -0.276 OA
ATOM     17  H   LIG d   1      12.435  74.030 114.558  0.00  0.00     0.149 HD
ENDBRANCH   6  13
BRANCH   5  18
ATOM     18  N   LIG d   1      11.239  75.357 117.800  0.00  0.00     0.381 N 
ATOM     19  H   LIG d   1      12.194  75.621 117.935  0.00  0.00    -0.090 HD
ATOM     20  H   LIG d   1      11.168  74.361 117.913  0.00  0.00    -0.090 HD
ATOM     21  H   LIG d   1      10.662  75.817 118.469  0.00  0.00    -0.090 HD
ENDBRANCH   5  18
BRANCH   3  22
ATOM     22  C   LIG d   1       8.483  78.268 115.178  0.00  0.00     0.382 C 
ATOM     23  O   LIG d   1       7.427  77.717 114.783  0.00  0.00    -0.241 OA
ATOM     24  O   LIG d   1       8.478  79.485 115.441  0.00  0.00    -0.241 OA
ENDBRANCH   3  22
TORSDOF 7
ENDMDL
MODEL 8
REMARK VINA RESULT:      -4.0     19.315     21.813
REMARK  7 active torsions:
REMARK  status: ('A' for Active; 'I' for Inactive)
REMARK    1  A    between atoms: C_2  and  C_3 
REMARK    2  A    between atoms: C_3  and  O_6 
REMARK    3  A    between atoms: C_3  and  C_4 
REMARK    4  A    between atoms: C_7  and  O_6 
REMARK    5  A    between atoms: C_9  and  C_10 
REMARK    6  A    between atoms: N_15  and  C_14 
REMARK    7  A    between atoms: N_20  and  C_19 
REMARK       I    between atoms: C_22  and  N_20 
ROOT
ATOM      1  C   LIG d   1     -25.226  84.194 115.677  0.00  0.00     0.161 C 
ATOM      2  C   LIG d   1     -24.200  84.620 116.536  0.00  0.00     0.016 C 
ATOM      3  C   LIG d   1     -23.086  83.819 116.876  0.00  0.00     0.038 C 
ATOM      4  C   LIG d   1     -22.845  82.584 116.256  0.00  0.00     0.028 C 
ATOM      5  C   LIG d   1     -24.113  81.895 115.763  0.00  0.00    -0.047 C 
ATOM      6  C   LIG d   1     -24.924  82.893 114.904  0.00  0.00     0.091 C 
ENDROOT
BRANCH   1   7
ATOM      7  O   LIG d   1     -25.569  85.252 114.761  0.00  0.00    -0.368 OA
BRANCH   7   8
ATOM      8  C   LIG d   1     -24.704  85.402 113.608  0.00  0.00     0.119 C 
BRANCH   8   9
ATOM      9  C   LIG d   1     -23.666  86.489 113.946  0.00  0.00     0.028 C 
ATOM     10  C   LIG d   1     -22.220  85.975 113.830  0.00  0.00     0.006 C 
ENDBRANCH   8   9
BRANCH   8  11
ATOM     11  C   LIG d   1     -25.476  85.940 112.399  0.00  0.00     0.028 C 
ATOM     12  C   LIG d   1     -26.961  85.545 112.416  0.00  0.00     0.006 C 
ENDBRANCH   8  11
ENDBRANCH   7   8
ENDBRANCH   1   7
BRANCH   6  13
ATOM     13  N   LIG d   1     -26.221  82.326 114.451  0.00  0.00    -0.311 N 
ATOM     14  C   LIG d   1     -26.489  82.034 113.180  0.00  0.00     0.210 C 
ATOM     15  C   LIG d   1     -27.894  81.478 112.927  0.00  0.00     0.109 C 
ATOM     16  O   LIG d   1     -25.686  82.151 112.243  0.00  0.00    -0.276 OA
ATOM     17  H   LIG d   1     -26.919  82.170 115.151  0.00  0.00     0.149 HD
ENDBRANCH   6  13
BRANCH   5  18
ATOM     18  N   LIG d   1     -23.704  80.690 115.018  0.00  0.00     0.381 N 
ATOM     19  H   LIG d   1     -22.711  80.687 114.897  0.00  0.00    -0.090 HD
ATOM     20  H   LIG d   1     -24.132  80.709 114.109  0.00  0.00    -0.090 HD
ATOM     21  H   LIG d   1     -23.989  79.872 115.510  0.00  0.00    -0.090 HD
ENDBRANCH   5  18
BRANCH   3  22
ATOM     22  C   LIG d   1     -22.220  84.235 117.876  0.00  0.00     0.382 C 
ATOM     23  O   LIG d   1     -22.488  85.257 118.553  0.00  0.00    -0.241 OA
ATOM     24  O   LIG d   1     -21.153  83.626 118.081  0.00  0.00    -0.241 OA
ENDBRANCH   3  22
TORSDOF 7
ENDMDL
MODEL 9
REMARK VINA RESULT:      -3.9     15.137     18.262
REMARK  7 active torsions:
REMARK  status: ('A' for Active; 'I' for Inactive)
REMARK    1  A    between atoms: C_2  and  C_3 
REMARK    2  A    between atoms: C_3  and  O_6 
REMARK    3  A    between atoms: C_3  and  C_4 
REMARK    4  A    between atoms: C_7  and  O_6 
REMARK    5  A    between atoms: C_9  and  C_10 
REMARK    6  A    between atoms: N_15  and  C_14 
REMARK    7  A    between atoms: N_20  and  C_19 
REMARK       I    between atoms: C_22  and  N_20 
ROOT
ATOM      1  C   LIG d   1     -17.405  63.247 115.885  0.00  0.00     0.161 C 
ATOM      2  C   LIG d   1     -17.757  62.125 115.116  0.00  0.00     0.016 C 
ATOM      3  C   LIG d   1     -17.692  62.098 113.704  0.00  0.00     0.038 C 
ATOM      4  C   LIG d   1     -17.124  63.149 112.968  0.00  0.00     0.028 C 
ATOM      5  C   LIG d   1     -17.223  64.501 113.666  0.00  0.00    -0.047 C 
ATOM      6  C   LIG d   1     -16.678  64.363 115.106  0.00  0.00     0.091 C 
ENDROOT
BRANCH   1   7
ATOM      7  O   LIG d   1     -16.619  62.834 117.020  0.00  0.00    -0.368 OA
BRANCH   7   8
ATOM      8  C   LIG d   1     -16.195  61.448 117.032  0.00  0.00     0.119 C 
BRANCH   8   9
ATOM      9  C   LIG d   1     -16.567  60.863 118.408  0.00  0.00     0.028 C 
ATOM     10  C   LIG d   1     -18.079  60.622 118.555  0.00  0.00     0.006 C 
ENDBRANCH   8   9
BRANCH   8  11
ATOM     11  C   LIG d   1     -14.671  61.331 116.939  0.00  0.00     0.028 C 
ATOM     12  C   LIG d   1     -13.963  61.717 118.247  0.00  0.00     0.006 C 
ENDBRANCH   8  11
ENDBRANCH   7   8
ENDBRANCH   1   7
BRANCH   6  13
ATOM     13  N   LIG d   1     -16.816  65.620 115.887  0.00  0.00    -0.311 N 
ATOM     14  C   LIG d   1     -15.838  66.514 116.015  0.00  0.00     0.210 C 
ATOM     15  C   LIG d   1     -16.183  67.731 116.880  0.00  0.00     0.109 C 
ATOM     16  O   LIG d   1     -14.728  66.432 115.467  0.00  0.00    -0.276 OA
ATOM     17  H   LIG d   1     -17.695  65.782 116.339  0.00  0.00     0.149 HD
ENDBRANCH   6  13
BRANCH   5  18
ATOM     18  N   LIG d   1     -16.472  65.477 112.855  0.00  0.00     0.381 N 
ATOM     19  H   LIG d   1     -17.109  66.087 112.383  0.00  0.00    -0.090 HD
ATOM     20  H   LIG d   1     -15.938  64.982 112.162  0.00  0.00    -0.090 HD
ATOM     21  H   LIG d   1     -15.862  66.008 113.437  0.00  0.00    -0.090 HD
ENDBRANCH   5  18
BRANCH   3  22
ATOM     22  C   LIG d   1     -18.237  61.028 113.011  0.00  0.00     0.382 C 
ATOM     23  O   LIG d   1     -19.202  61.211 112.231  0.00  0.00    -0.241 OA
ATOM     24  O   LIG d   1     -17.804  59.874 113.190  0.00  0.00    -0.241 OA
ENDBRANCH   3  22
TORSDOF 7
ENDMDL
