MODEL 1
REMARK VINA RESULT:      -5.3      0.000      0.000
REMARK  7 active torsions:
REMARK  status: ('A' for Active; 'I' for Inactive)
REMARK    1  A    between atoms: C_2  and  C_3 
REMARK    2  A    between atoms: C_3  and  O_6 
REMARK    3  A    between atoms: C_3  and  C_4 
REMARK    4  A    between atoms: C_7  and  O_6 
REMARK    5  A    between atoms: C_9  and  C_10 
REMARK    6  A    between atoms: N_15  and  C_14 
REMARK    7  A    between atoms: N_20  and  C_19 
REMARK       I    between atoms: C_22  and  N_20 
ROOT
ATOM      1  C   LIG d   1     -16.101  65.929 114.190  0.00  0.00     0.161 C 
ATOM      2  C   LIG d   1     -15.710  66.829 113.185  0.00  0.00     0.016 C 
ATOM      3  C   LIG d   1     -14.937  67.986 113.433  0.00  0.00     0.038 C 
ATOM      4  C   LIG d   1     -14.371  68.243 114.691  0.00  0.00     0.028 C 
ATOM      5  C   LIG d   1     -15.156  67.631 115.846  0.00  0.00    -0.047 C 
ATOM      6  C   LIG d   1     -15.399  66.134 115.549  0.00  0.00     0.091 C 
ENDROOT
BRANCH   1   7
ATOM      7  O   LIG d   1     -15.920  64.575 113.732  0.00  0.00    -0.368 OA
BRANCH   7   8
ATOM      8  C   LIG d   1     -17.129  63.839 113.425  0.00  0.00     0.119 C 
BRANCH   8   9
ATOM      9  C   LIG d   1     -18.319  64.662 113.955  0.00  0.00     0.028 C 
ATOM     10  C   LIG d   1     -19.372  64.938 112.868  0.00  0.00     0.006 C 
ENDBRANCH   8   9
BRANCH   8  11
ATOM     11  C   LIG d   1     -17.182  62.512 114.187  0.00  0.00     0.028 C 
ATOM     12  C   LIG d   1     -18.276  61.567 113.664  0.00  0.00     0.006 C 
ENDBRANCH   8  11
ENDBRANCH   7   8
ENDBRANCH   1   7
BRANCH   6  13
ATOM     13  N   LIG d   1     -16.233  65.478 116.590  0.00  0.00    -0.311 N 
ATOM     14  C   LIG d   1     -15.930  64.304 117.140  0.00  0.00     0.210 C 
ATOM     15  C   LIG d   1     -16.936  63.797 118.179  0.00  0.00     0.109 C 
ATOM     16  O   LIG d   1     -14.908  63.648 116.890  0.00  0.00    -0.276 OA
ATOM     17  H   LIG d   1     -17.066  65.956 116.875  0.00  0.00     0.149 HD
ENDBRANCH   6  13
BRANCH   5  18
ATOM     18  N   LIG d   1     -14.382  67.858 117.081  0.00  0.00     0.381 N 
ATOM     19  H   LIG d   1     -14.348  68.837 117.284  0.00  0.00    -0.090 HD
ATOM     20  H   LIG d   1     -13.442  67.532 116.940  0.00  0.00    -0.090 HD
ATOM     21  H   LIG d   1     -14.801  67.368 117.841  0.00  0.00    -0.090 HD
ENDBRANCH   5  18
BRANCH   3  22
ATOM     22  C   LIG d   1     -14.757  68.922 112.426  0.00  0.00     0.382 C 
ATOM     23  O   LIG d   1     -13.606  69.348 112.165  0.00  0.00    -0.241 OA
ATOM     24  O   LIG d   1     -15.736  69.379 111.806  0.00  0.00    -0.241 OA
ENDBRANCH   3  22
TORSDOF 7
ENDMDL
MODEL 2
REMARK VINA RESULT:      -5.3     13.025     15.954
REMARK  7 active torsions:
REMARK  status: ('A' for Active; 'I' for Inactive)
REMARK    1  A    between atoms: C_2  and  C_3 
REMARK    2  A    between atoms: C_3  and  O_6 
REMARK    3  A    between atoms: C_3  and  C_4 
REMARK    4  A    between atoms: C_7  and  O_6 
REMARK    5  A    between atoms: C_9  and  C_10 
REMARK    6  A    between atoms: N_15  and  C_14 
REMARK    7  A    between atoms: N_20  and  C_19 
REMARK       I    between atoms: C_22  and  N_20 
ROOT
ATOM      1  C   LIG d   1      -6.923  77.538 117.193  0.00  0.00     0.161 C 
ATOM      2  C   LIG d   1      -8.197  78.069 117.459  0.00  0.00     0.016 C 
ATOM      3  C   LIG d   1      -8.419  79.419 117.815  0.00  0.00     0.038 C 
ATOM      4  C   LIG d   1      -7.391  80.373 117.781  0.00  0.00     0.028 C 
ATOM      5  C   LIG d   1      -6.005  79.779 118.009  0.00  0.00    -0.047 C 
ATOM      6  C   LIG d   1      -5.804  78.589 117.042  0.00  0.00     0.091 C 
ENDROOT
BRANCH   1   7
ATOM      7  O   LIG d   1      -6.980  76.695 116.025  0.00  0.00    -0.368 OA
BRANCH   7   8
ATOM      8  C   LIG d   1      -6.379  75.384 116.157  0.00  0.00     0.119 C 
BRANCH   8   9
ATOM      9  C   LIG d   1      -5.703  75.047 114.813  0.00  0.00     0.028 C 
ATOM     10  C   LIG d   1      -5.528  76.286 113.918  0.00  0.00     0.006 C 
ENDBRANCH   8   9
BRANCH   8  11
ATOM     11  C   LIG d   1      -7.443  74.301 116.358  0.00  0.00     0.028 C 
ATOM     12  C   LIG d   1      -6.941  72.896 115.988  0.00  0.00     0.006 C 
ENDBRANCH   8  11
ENDBRANCH   7   8
ENDBRANCH   1   7
BRANCH   6  13
ATOM     13  N   LIG d   1      -4.506  77.898 117.257  0.00  0.00    -0.311 N 
ATOM     14  C   LIG d   1      -3.422  78.127 116.519  0.00  0.00     0.210 C 
ATOM     15  C   LIG d   1      -2.194  77.292 116.895  0.00  0.00     0.109 C 
ATOM     16  O   LIG d   1      -3.351  78.967 115.608  0.00  0.00    -0.276 OA
ATOM     17  H   LIG d   1      -4.465  77.223 117.996  0.00  0.00     0.149 HD
ENDBRANCH   6  13
BRANCH   5  18
ATOM     18  N   LIG d   1      -5.019  80.858 117.811  0.00  0.00     0.381 N 
ATOM     19  H   LIG d   1      -4.117  80.464 117.634  0.00  0.00    -0.090 HD
ATOM     20  H   LIG d   1      -4.965  81.407 118.650  0.00  0.00    -0.090 HD
ATOM     21  H   LIG d   1      -5.294  81.434 117.046  0.00  0.00    -0.090 HD
ENDBRANCH   5  18
BRANCH   3  22
ATOM     22  C   LIG d   1      -9.674  79.818 118.248  0.00  0.00     0.382 C 
ATOM     23  O   LIG d   1      -9.879  81.017 118.555  0.00  0.00    -0.241 OA
ATOM     24  O   LIG d   1     -10.591  78.986 118.379  0.00  0.00    -0.241 OA
ENDBRANCH   3  22
TORSDOF 7
ENDMDL
MODEL 3
REMARK VINA RESULT:      -5.3     12.812     16.275
REMARK  7 active torsions:
REMARK  status: ('A' for Active; 'I' for Inactive)
REMARK    1  A    between atoms: C_2  and  C_3 
REMARK    2  A    between atoms: C_3  and  O_6 
REMARK    3  A    between atoms: C_3  and  C_4 
REMARK    4  A    between atoms: C_7  and  O_6 
REMARK    5  A    between atoms: C_9  and  C_10 
REMARK    6  A    between atoms: N_15  and  C_14 
REMARK    7  A    between atoms: N_20  and  C_19 
REMARK       I    between atoms: C_22  and  N_20 
ROOT
ATOM      1  C   LIG d   1      -4.571  75.629 116.503  0.00  0.00     0.161 C 
ATOM      2  C   LIG d   1      -5.281  74.479 116.122  0.00  0.00     0.016 C 
ATOM      3  C   LIG d   1      -6.692  74.395 116.134  0.00  0.00     0.038 C 
ATOM      4  C   LIG d   1      -7.499  75.515 116.386  0.00  0.00     0.028 C 
ATOM      5  C   LIG d   1      -6.824  76.562 117.266  0.00  0.00    -0.047 C 
ATOM      6  C   LIG d   1      -5.436  76.896 116.674  0.00  0.00     0.091 C 
ENDROOT
BRANCH   1   7
ATOM      7  O   LIG d   1      -3.501  75.875 115.569  0.00  0.00    -0.368 OA
BRANCH   7   8
ATOM      8  C   LIG d   1      -2.235  75.237 115.867  0.00  0.00     0.119 C 
BRANCH   8   9
ATOM      9  C   LIG d   1      -1.984  75.391 117.380  0.00  0.00     0.028 C 
ATOM     10  C   LIG d   1      -1.157  74.231 117.958  0.00  0.00     0.006 C 
ENDBRANCH   8   9
BRANCH   8  11
ATOM     11  C   LIG d   1      -1.071  75.964 115.187  0.00  0.00     0.028 C 
ATOM     12  C   LIG d   1      -1.196  77.494 115.266  0.00  0.00     0.006 C 
ENDBRANCH   8  11
ENDBRANCH   7   8
ENDBRANCH   1   7
BRANCH   6  13
ATOM     13  N   LIG d   1      -4.673  77.850 117.521  0.00  0.00    -0.311 N 
ATOM     14  C   LIG d   1      -4.123  78.968 117.052  0.00  0.00     0.210 C 
ATOM     15  C   LIG d   1      -3.363  79.800 118.090  0.00  0.00     0.109 C 
ATOM     16  O   LIG d   1      -4.218  79.366 115.881  0.00  0.00    -0.276 OA
ATOM     17  H   LIG d   1      -4.573  77.620 118.490  0.00  0.00     0.149 HD
ENDBRANCH   6  13
BRANCH   5  18
ATOM     18  N   LIG d   1      -7.720  77.732 117.334  0.00  0.00     0.381 N 
ATOM     19  H   LIG d   1      -7.350  78.475 116.775  0.00  0.00    -0.090 HD
ATOM     20  H   LIG d   1      -7.770  78.048 118.286  0.00  0.00    -0.090 HD
ATOM     21  H   LIG d   1      -8.629  77.484 117.010  0.00  0.00    -0.090 HD
ENDBRANCH   5  18
BRANCH   3  22
ATOM     22  C   LIG d   1      -7.310  73.171 115.931  0.00  0.00     0.382 C 
ATOM     23  O   LIG d   1      -8.534  73.038 116.176  0.00  0.00    -0.241 OA
ATOM     24  O   LIG d   1      -6.651  72.186 115.547  0.00  0.00    -0.241 OA
ENDBRANCH   3  22
TORSDOF 7
ENDMDL
MODEL 4
REMARK VINA RESULT:      -5.3     14.210     17.264
REMARK  7 active torsions:
REMARK  status: ('A' for Active; 'I' for Inactive)
REMARK    1  A    between atoms: C_2  and  C_3 
REMARK    2  A    between atoms: C_3  and  O_6 
REMARK    3  A    between atoms: C_3  and  C_4 
REMARK    4  A    between atoms: C_7  and  O_6 
REMARK    5  A    between atoms: C_9  and  C_10 
REMARK    6  A    between atoms: N_15  and  C_14 
REMARK    7  A    between atoms: N_20  and  C_19 
REMARK       I    between atoms: C_22  and  N_20 
ROOT
ATOM      1  C   LIG d   1      -3.070  76.049 115.886  0.00  0.00     0.161 C 
ATOM      2  C   LIG d   1      -2.426  75.173 116.775  0.00  0.00     0.016 C 
ATOM      3  C   LIG d   1      -1.225  75.492 117.449  0.00  0.00     0.038 C 
ATOM      4  C   LIG d   1      -0.664  76.777 117.396  0.00  0.00     0.028 C 
ATOM      5  C   LIG d   1      -1.003  77.533 116.116  0.00  0.00    -0.047 C 
ATOM      6  C   LIG d   1      -2.533  77.496 115.901  0.00  0.00     0.091 C 
ENDROOT
BRANCH   1   7
ATOM      7  O   LIG d   1      -4.490  76.040 116.134  0.00  0.00    -0.368 OA
BRANCH   7   8
ATOM      8  C   LIG d   1      -5.235  74.954 115.529  0.00  0.00     0.119 C 
BRANCH   8   9
ATOM      9  C   LIG d   1      -5.380  75.272 114.029  0.00  0.00     0.028 C 
ATOM     10  C   LIG d   1      -6.272  76.498 113.771  0.00  0.00     0.006 C 
ENDBRANCH   8   9
BRANCH   8  11
ATOM     11  C   LIG d   1      -6.667  74.892 116.070  0.00  0.00     0.028 C 
ATOM     12  C   LIG d   1      -7.188  73.453 116.212  0.00  0.00     0.006 C 
ENDBRANCH   8  11
ENDBRANCH   7   8
ENDBRANCH   1   7
BRANCH   6  13
ATOM     13  N   LIG d   1      -2.943  78.141 114.627  0.00  0.00    -0.311 N 
ATOM     14  C   LIG d   1      -2.533  77.725 113.430  0.00  0.00     0.210 C 
ATOM     15  C   LIG d   1      -3.058  78.543 112.246  0.00  0.00     0.109 C 
ATOM     16  O   LIG d   1      -1.810  76.737 113.234  0.00  0.00    -0.276 OA
ATOM     17  H   LIG d   1      -3.554  78.932 114.691  0.00  0.00     0.149 HD
ENDBRANCH   6  13
BRANCH   5  18
ATOM     18  N   LIG d   1      -0.471  78.903 116.253  0.00  0.00     0.381 N 
ATOM     19  H   LIG d   1      -0.905  79.503 115.581  0.00  0.00    -0.090 HD
ATOM     20  H   LIG d   1       0.517  78.887 116.072  0.00  0.00    -0.090 HD
ATOM     21  H   LIG d   1      -0.643  79.244 117.173  0.00  0.00    -0.090 HD
ENDBRANCH   5  18
BRANCH   3  22
ATOM     22  C   LIG d   1      -0.550  74.508 118.156  0.00  0.00     0.382 C 
ATOM     23  O   LIG d   1       0.621  74.713 118.554  0.00  0.00    -0.241 OA
ATOM     24  O   LIG d   1      -1.083  73.401 118.361  0.00  0.00    -0.241 OA
ENDBRANCH   3  22
TORSDOF 7
ENDMDL
MODEL 5
REMARK VINA RESULT:      -5.2     13.577     16.437
REMARK  7 active torsions:
REMARK  status: ('A' for Active; 'I' for Inactive)
REMARK    1  A    between atoms: C_2  and  C_3 
REMARK    2  A    between atoms: C_3  and  O_6 
REMARK    3  A    between atoms: C_3  and  C_4 
REMARK    4  A    between atoms: C_7  and  O_6 
REMARK    5  A    between atoms: C_9  and  C_10 
REMARK    6  A    between atoms: N_15  and  C_14 
REMARK    7  A    between atoms: N_20  and  C_19 
REMARK       I    between atoms: C_22  and  N_20 
ROOT
ATOM      1  C   LIG d   1      -4.691  76.733 117.731  0.00  0.00     0.161 C 
ATOM      2  C   LIG d   1      -5.647  77.757 117.617  0.00  0.00     0.016 C 
ATOM      3  C   LIG d   1      -5.329  79.077 117.221  0.00  0.00     0.038 C 
ATOM      4  C   LIG d   1      -4.050  79.426 116.764  0.00  0.00     0.028 C 
ATOM      5  C   LIG d   1      -2.941  78.553 117.341  0.00  0.00    -0.047 C 
ATOM      6  C   LIG d   1      -3.310  77.067 117.130  0.00  0.00     0.091 C 
ENDROOT
BRANCH   1   7
ATOM      7  O   LIG d   1      -5.208  75.517 117.155  0.00  0.00    -0.368 OA
BRANCH   7   8
ATOM      8  C   LIG d   1      -6.117  75.676 116.039  0.00  0.00     0.119 C 
BRANCH   8   9
ATOM      9  C   LIG d   1      -7.293  74.705 116.258  0.00  0.00     0.028 C 
ATOM     10  C   LIG d   1      -6.916  73.247 115.947  0.00  0.00     0.006 C 
ENDBRANCH   8   9
BRANCH   8  11
ATOM     11  C   LIG d   1      -5.467  75.236 114.724  0.00  0.00     0.028 C 
ATOM     12  C   LIG d   1      -4.975  76.420 113.877  0.00  0.00     0.006 C 
ENDBRANCH   8  11
ENDBRANCH   7   8
ENDBRANCH   1   7
BRANCH   6  13
ATOM     13  N   LIG d   1      -2.318  76.144 117.740  0.00  0.00    -0.311 N 
ATOM     14  C   LIG d   1      -1.822  75.081 117.110  0.00  0.00     0.210 C 
ATOM     15  C   LIG d   1      -0.827  74.251 117.928  0.00  0.00     0.109 C 
ATOM     16  O   LIG d   1      -2.086  74.765 115.941  0.00  0.00    -0.276 OA
ATOM     17  H   LIG d   1      -2.025  76.344 118.676  0.00  0.00     0.149 HD
ENDBRANCH   6  13
BRANCH   5  18
ATOM     18  N   LIG d   1      -1.681  78.936 116.677  0.00  0.00     0.381 N 
ATOM     19  H   LIG d   1      -1.874  79.553 115.913  0.00  0.00    -0.090 HD
ATOM     20  H   LIG d   1      -1.242  78.110 116.311  0.00  0.00    -0.090 HD
ATOM     21  H   LIG d   1      -1.074  79.383 117.328  0.00  0.00    -0.090 HD
ENDBRANCH   5  18
BRANCH   3  22
ATOM     22  C   LIG d   1      -6.289  80.073 117.319  0.00  0.00     0.382 C 
ATOM     23  O   LIG d   1      -7.505  79.769 117.372  0.00  0.00    -0.241 OA
ATOM     24  O   LIG d   1      -5.957  81.273 117.310  0.00  0.00    -0.241 OA
ENDBRANCH   3  22
TORSDOF 7
ENDMDL
MODEL 6
REMARK VINA RESULT:      -5.2     14.257     17.012
REMARK  7 active torsions:
REMARK  status: ('A' for Active; 'I' for Inactive)
REMARK    1  A    between atoms: C_2  and  C_3 
REMARK    2  A    between atoms: C_3  and  O_6 
REMARK    3  A    between atoms: C_3  and  C_4 
REMARK    4  A    between atoms: C_7  and  O_6 
REMARK    5  A    between atoms: C_9  and  C_10 
REMARK    6  A    between atoms: N_15  and  C_14 
REMARK    7  A    between atoms: N_20  and  C_19 
REMARK       I    between atoms: C_22  and  N_20 
ROOT
ATOM      1  C   LIG d   1      -3.372  77.327 116.201  0.00  0.00     0.161 C 
ATOM      2  C   LIG d   1      -3.562  78.338 115.244  0.00  0.00     0.016 C 
ATOM      3  C   LIG d   1      -2.674  78.567 114.168  0.00  0.00     0.038 C 
ATOM      4  C   LIG d   1      -1.610  77.698 113.887  0.00  0.00     0.028 C 
ATOM      5  C   LIG d   1      -1.088  76.962 115.116  0.00  0.00    -0.047 C 
ATOM      6  C   LIG d   1      -2.278  76.299 115.847  0.00  0.00     0.091 C 
ENDROOT
BRANCH   1   7
ATOM      7  O   LIG d   1      -4.623  76.659 116.459  0.00  0.00    -0.368 OA
BRANCH   7   8
ATOM      8  C   LIG d   1      -5.555  76.600 115.352  0.00  0.00     0.119 C 
BRANCH   8   9
ATOM      9  C   LIG d   1      -6.942  76.996 115.893  0.00  0.00     0.028 C 
ATOM     10  C   LIG d   1      -6.934  77.231 117.413  0.00  0.00     0.006 C 
ENDBRANCH   8   9
BRANCH   8  11
ATOM     11  C   LIG d   1      -5.716  75.167 114.834  0.00  0.00     0.028 C 
ATOM     12  C   LIG d   1      -6.351  74.227 115.870  0.00  0.00     0.006 C 
ENDBRANCH   8  11
ENDBRANCH   7   8
ENDBRANCH   1   7
BRANCH   6  13
ATOM     13  N   LIG d   1      -1.866  75.628 117.108  0.00  0.00    -0.311 N 
ATOM     14  C   LIG d   1      -1.276  74.435 117.144  0.00  0.00     0.210 C 
ATOM     15  C   LIG d   1      -0.953  73.916 118.549  0.00  0.00     0.109 C 
ATOM     16  O   LIG d   1      -0.961  73.770 116.146  0.00  0.00    -0.276 OA
ATOM     17  H   LIG d   1      -2.056  76.111 117.964  0.00  0.00     0.149 HD
ENDBRANCH   6  13
BRANCH   5  18
ATOM     18  N   LIG d   1      -0.076  75.991 114.658  0.00  0.00     0.381 N 
ATOM     19  H   LIG d   1      -0.413  75.507 113.850  0.00  0.00    -0.090 HD
ATOM     20  H   LIG d   1       0.080  75.317 115.387  0.00  0.00    -0.090 HD
ATOM     21  H   LIG d   1       0.775  76.461 114.442  0.00  0.00    -0.090 HD
ENDBRANCH   5  18
BRANCH   3  22
ATOM     22  C   LIG d   1      -2.824  79.700 113.382  0.00  0.00     0.382 C 
ATOM     23  O   LIG d   1      -2.285  79.754 112.251  0.00  0.00    -0.241 OA
ATOM     24  O   LIG d   1      -3.454  80.686 113.810  0.00  0.00    -0.241 OA
ENDBRANCH   3  22
TORSDOF 7
ENDMDL
MODEL 7
REMARK VINA RESULT:      -5.1     15.007     18.119
REMARK  7 active torsions:
REMARK  status: ('A' for Active; 'I' for Inactive)
REMARK    1  A    between atoms: C_2  and  C_3 
REMARK    2  A    between atoms: C_3  and  O_6 
REMARK    3  A    between atoms: C_3  and  C_4 
REMARK    4  A    between atoms: C_7  and  O_6 
REMARK    5  A    between atoms: C_9  and  C_10 
REMARK    6  A    between atoms: N_15  and  C_14 
REMARK    7  A    between atoms: N_20  and  C_19 
REMARK       I    between atoms: C_22  and  N_20 
ROOT
ATOM      1  C   LIG d   1      -3.872  78.529 116.712  0.00  0.00     0.161 C 
ATOM      2  C   LIG d   1      -3.029  79.526 117.231  0.00  0.00     0.016 C 
ATOM      3  C   LIG d   1      -1.695  79.716 116.805  0.00  0.00     0.038 C 
ATOM      4  C   LIG d   1      -1.157  79.014 115.716  0.00  0.00     0.028 C 
ATOM      5  C   LIG d   1      -1.804  77.651 115.495  0.00  0.00    -0.047 C 
ATOM      6  C   LIG d   1      -3.339  77.826 115.446  0.00  0.00     0.091 C 
ENDROOT
BRANCH   1   7
ATOM      7  O   LIG d   1      -5.183  79.076 116.468  0.00  0.00    -0.368 OA
BRANCH   7   8
ATOM      8  C   LIG d   1      -6.200  78.755 117.448  0.00  0.00     0.119 C 
BRANCH   8   9
ATOM      9  C   LIG d   1      -7.112  77.676 116.832  0.00  0.00     0.028 C 
ATOM     10  C   LIG d   1      -6.956  76.311 117.523  0.00  0.00     0.006 C 
ENDBRANCH   8   9
BRANCH   8  11
ATOM     11  C   LIG d   1      -7.115  79.954 117.715  0.00  0.00     0.028 C 
ATOM     12  C   LIG d   1      -6.366  81.296 117.669  0.00  0.00     0.006 C 
ENDBRANCH   8  11
ENDBRANCH   7   8
ENDBRANCH   1   7
BRANCH   6  13
ATOM     13  N   LIG d   1      -4.054  76.530 115.317  0.00  0.00    -0.311 N 
ATOM     14  C   LIG d   1      -4.777  76.194 114.250  0.00  0.00     0.210 C 
ATOM     15  C   LIG d   1      -5.447  74.819 114.329  0.00  0.00     0.109 C 
ATOM     16  O   LIG d   1      -4.900  76.892 113.231  0.00  0.00    -0.276 OA
ATOM     17  H   LIG d   1      -3.982  75.891 116.084  0.00  0.00     0.149 HD
ENDBRANCH   6  13
BRANCH   5  18
ATOM     18  N   LIG d   1      -1.246  77.090 114.250  0.00  0.00     0.381 N 
ATOM     19  H   LIG d   1      -0.896  76.169 114.421  0.00  0.00    -0.090 HD
ATOM     20  H   LIG d   1      -0.482  77.667 113.947  0.00  0.00    -0.090 HD
ATOM     21  H   LIG d   1      -1.949  77.060 113.544  0.00  0.00    -0.090 HD
ENDBRANCH   5  18
BRANCH   3  22
ATOM     22  C   LIG d   1      -0.870  80.590 117.497  0.00  0.00     0.382 C 
ATOM     23  O   LIG d   1      -1.275  81.129 118.555  0.00  0.00    -0.241 OA
ATOM     24  O   LIG d   1       0.257  80.880 117.054  0.00  0.00    -0.241 OA
ENDBRANCH   3  22
TORSDOF 7
ENDMDL
MODEL 8
REMARK VINA RESULT:      -5.0     26.829     29.757
REMARK  7 active torsions:
REMARK  status: ('A' for Active; 'I' for Inactive)
REMARK    1  A    between atoms: C_2  and  C_3 
REMARK    2  A    between atoms: C_3  and  O_6 
REMARK    3  A    between atoms: C_3  and  C_4 
REMARK    4  A    between atoms: C_7  and  O_6 
REMARK    5  A    between atoms: C_9  and  C_10 
REMARK    6  A    between atoms: N_15  and  C_14 
REMARK    7  A    between atoms: N_20  and  C_19 
REMARK       I    between atoms: C_22  and  N_20 
ROOT
ATOM      1  C   LIG d   1      10.317  78.859 114.833  0.00  0.00     0.161 C 
ATOM      2  C   LIG d   1       8.956  78.865 115.178  0.00  0.00     0.016 C 
ATOM      3  C   LIG d   1       8.252  77.709 115.587  0.00  0.00     0.038 C 
ATOM      4  C   LIG d   1       8.903  76.490 115.827  0.00  0.00     0.028 C 
ATOM      5  C   LIG d   1      10.178  76.314 115.008  0.00  0.00    -0.047 C 
ATOM      6  C   LIG d   1      11.071  77.562 115.194  0.00  0.00     0.091 C 
ENDROOT
BRANCH   1   7
ATOM      7  O   LIG d   1      10.975  80.000 115.419  0.00  0.00    -0.368 OA
BRANCH   7   8
ATOM      8  C   LIG d   1      11.272  81.096 114.519  0.00  0.00     0.119 C 
BRANCH   8   9
ATOM      9  C   LIG d   1      10.034  82.012 114.480  0.00  0.00     0.028 C 
ATOM     10  C   LIG d   1       9.657  82.550 115.871  0.00  0.00     0.006 C 
ENDBRANCH   8   9
BRANCH   8  11
ATOM     11  C   LIG d   1      11.457  80.602 113.081  0.00  0.00     0.028 C 
ATOM     12  C   LIG d   1      10.836  81.549 112.042  0.00  0.00     0.006 C 
ENDBRANCH   8  11
ENDBRANCH   7   8
ENDBRANCH   1   7
BRANCH   6  13
ATOM     13  N   LIG d   1      12.300  77.509 114.361  0.00  0.00    -0.311 N 
ATOM     14  C   LIG d   1      13.520  77.752 114.838  0.00  0.00     0.210 C 
ATOM     15  C   LIG d   1      14.648  77.663 113.805  0.00  0.00     0.109 C 
ATOM     16  O   LIG d   1      13.778  78.001 116.026  0.00  0.00    -0.276 OA
ATOM     17  H   LIG d   1      12.186  77.283 113.393  0.00  0.00     0.149 HD
ENDBRANCH   6  13
BRANCH   5  18
ATOM     18  N   LIG d   1      10.826  75.067 115.456  0.00  0.00     0.381 N 
ATOM     19  H   LIG d   1      11.542  75.278 116.123  0.00  0.00    -0.090 HD
ATOM     20  H   LIG d   1      11.255  74.621 114.665  0.00  0.00    -0.090 HD
ATOM     21  H   LIG d   1      10.151  74.459 115.864  0.00  0.00    -0.090 HD
ENDBRANCH   5  18
BRANCH   3  22
ATOM     22  C   LIG d   1       6.873  77.757 115.723  0.00  0.00     0.382 C 
ATOM     23  O   LIG d   1       6.184  78.414 114.906  0.00  0.00    -0.241 OA
ATOM     24  O   LIG d   1       6.312  77.187 116.679  0.00  0.00    -0.241 OA
ENDBRANCH   3  22
TORSDOF 7
ENDMDL
MODEL 9
REMARK VINA RESULT:      -4.9     15.264     18.466
REMARK  7 active torsions:
REMARK  status: ('A' for Active; 'I' for Inactive)
REMARK    1  A    between atoms: C_2  and  C_3 
REMARK    2  A    between atoms: C_3  and  O_6 
REMARK    3  A    between atoms: C_3  and  C_4 
REMARK    4  A    between atoms: C_7  and  O_6 
REMARK    5  A    between atoms: C_9  and  C_10 
REMARK    6  A    between atoms: N_15  and  C_14 
REMARK    7  A    between atoms: N_20  and  C_19 
REMARK       I    between atoms: C_22  and  N_20 
ROOT
ATOM      1  C   LIG d   1      -2.900  77.986 116.065  0.00  0.00     0.161 C 
ATOM      2  C   LIG d   1      -1.638  78.449 116.472  0.00  0.00     0.016 C 
ATOM      3  C   LIG d   1      -0.635  77.607 117.004  0.00  0.00     0.038 C 
ATOM      4  C   LIG d   1      -0.773  76.211 117.024  0.00  0.00     0.028 C 
ATOM      5  C   LIG d   1      -2.224  75.747 117.093  0.00  0.00    -0.047 C 
ATOM      6  C   LIG d   1      -3.029  76.451 115.977  0.00  0.00     0.091 C 
ENDROOT
BRANCH   1   7
ATOM      7  O   LIG d   1      -3.261  78.592 114.808  0.00  0.00    -0.368 OA
BRANCH   7   8
ATOM      8  C   LIG d   1      -2.180  78.800 113.867  0.00  0.00     0.119 C 
BRANCH   8   9
ATOM      9  C   LIG d   1      -2.343  80.214 113.278  0.00  0.00     0.028 C 
ATOM     10  C   LIG d   1      -1.081  80.693 112.541  0.00  0.00     0.006 C 
ENDBRANCH   8   9
BRANCH   8  11
ATOM     11  C   LIG d   1      -2.291  77.848 112.672  0.00  0.00     0.028 C 
ATOM     12  C   LIG d   1      -3.603  78.023 111.891  0.00  0.00     0.006 C 
ENDBRANCH   8  11
ENDBRANCH   7   8
ENDBRANCH   1   7
BRANCH   6  13
ATOM     13  N   LIG d   1      -4.476  76.117 116.025  0.00  0.00    -0.311 N 
ATOM     14  C   LIG d   1      -5.134  75.560 115.010  0.00  0.00     0.210 C 
ATOM     15  C   LIG d   1      -6.626  75.317 115.262  0.00  0.00     0.109 C 
ATOM     16  O   LIG d   1      -4.617  75.213 113.937  0.00  0.00    -0.276 OA
ATOM     17  H   LIG d   1      -4.967  76.336 116.870  0.00  0.00     0.149 HD
ENDBRANCH   6  13
BRANCH   5  18
ATOM     18  N   LIG d   1      -2.227  74.277 116.969  0.00  0.00     0.381 N 
ATOM     19  H   LIG d   1      -2.307  73.861 117.875  0.00  0.00    -0.090 HD
ATOM     20  H   LIG d   1      -1.357  73.983 116.562  0.00  0.00    -0.090 HD
ATOM     21  H   LIG d   1      -2.987  73.985 116.393  0.00  0.00    -0.090 HD
ENDBRANCH   5  18
BRANCH   3  22
ATOM     22  C   LIG d   1       0.507  78.164 117.559  0.00  0.00     0.382 C 
ATOM     23  O   LIG d   1       0.584  79.406 117.719  0.00  0.00    -0.241 OA
ATOM     24  O   LIG d   1       1.478  77.445 117.861  0.00  0.00    -0.241 OA
ENDBRANCH   3  22
TORSDOF 7
ENDMDL
