MODEL 1
REMARK VINA RESULT:      -5.3      0.000      0.000
REMARK  7 active torsions:
REMARK  status: ('A' for Active; 'I' for Inactive)
REMARK    1  A    between atoms: C_2  and  C_3 
REMARK    2  A    between atoms: C_3  and  O_6 
REMARK    3  A    between atoms: C_3  and  C_4 
REMARK    4  A    between atoms: C_7  and  O_6 
REMARK    5  A    between atoms: C_9  and  C_10 
REMARK    6  A    between atoms: N_15  and  C_14 
REMARK    7  A    between atoms: N_20  and  C_19 
REMARK       I    between atoms: C_22  and  N_20 
ROOT
ATOM      1  C   LIG d   1     -16.836  65.919 114.015  0.00  0.00     0.161 C 
ATOM      2  C   LIG d   1     -16.353  66.830 113.061  0.00  0.00     0.016 C 
ATOM      3  C   LIG d   1     -15.254  67.689 113.292  0.00  0.00     0.038 C 
ATOM      4  C   LIG d   1     -14.464  67.589 114.447  0.00  0.00     0.028 C 
ATOM      5  C   LIG d   1     -15.218  67.033 115.650  0.00  0.00    -0.047 C 
ATOM      6  C   LIG d   1     -15.918  65.717 115.239  0.00  0.00     0.091 C 
ENDROOT
BRANCH   1   7
ATOM      7  O   LIG d   1     -17.116  64.653 113.385  0.00  0.00    -0.368 OA
BRANCH   7   8
ATOM      8  C   LIG d   1     -18.516  64.324 113.211  0.00  0.00     0.119 C 
BRANCH   8   9
ATOM      9  C   LIG d   1     -18.839  63.159 114.167  0.00  0.00     0.028 C 
ATOM     10  C   LIG d   1     -19.810  63.570 115.287  0.00  0.00     0.006 C 
ENDBRANCH   8   9
BRANCH   8  11
ATOM     11  C   LIG d   1     -18.792  63.784 111.805  0.00  0.00     0.028 C 
ATOM     12  C   LIG d   1     -19.198  62.302 111.805  0.00  0.00     0.006 C 
ENDBRANCH   8  11
ENDBRANCH   7   8
ENDBRANCH   1   7
BRANCH   6  13
ATOM     13  N   LIG d   1     -16.747  65.150 116.335  0.00  0.00    -0.311 N 
ATOM     14  C   LIG d   1     -16.330  64.175 117.140  0.00  0.00     0.210 C 
ATOM     15  C   LIG d   1     -17.350  63.724 118.190  0.00  0.00     0.109 C 
ATOM     16  O   LIG d   1     -15.201  63.663 117.105  0.00  0.00    -0.276 OA
ATOM     17  H   LIG d   1     -17.666  65.529 116.454  0.00  0.00     0.149 HD
ENDBRANCH   6  13
BRANCH   5  18
ATOM     18  N   LIG d   1     -14.244  66.853 116.742  0.00  0.00     0.381 N 
ATOM     19  H   LIG d   1     -14.328  65.932 117.123  0.00  0.00    -0.090 HD
ATOM     20  H   LIG d   1     -14.445  67.515 117.470  0.00  0.00    -0.090 HD
ATOM     21  H   LIG d   1     -13.318  66.995 116.401  0.00  0.00    -0.090 HD
ENDBRANCH   5  18
BRANCH   3  22
ATOM     22  C   LIG d   1     -14.961  68.690 112.378  0.00  0.00     0.382 C 
ATOM     23  O   LIG d   1     -15.875  69.434 111.948  0.00  0.00    -0.241 OA
ATOM     24  O   LIG d   1     -13.801  68.830 111.945  0.00  0.00    -0.241 OA
ENDBRANCH   3  22
TORSDOF 7
ENDMDL
MODEL 2
REMARK VINA RESULT:      -4.9     25.917     28.873
REMARK  7 active torsions:
REMARK  status: ('A' for Active; 'I' for Inactive)
REMARK    1  A    between atoms: C_2  and  C_3 
REMARK    2  A    between atoms: C_3  and  O_6 
REMARK    3  A    between atoms: C_3  and  C_4 
REMARK    4  A    between atoms: C_7  and  O_6 
REMARK    5  A    between atoms: C_9  and  C_10 
REMARK    6  A    between atoms: N_15  and  C_14 
REMARK    7  A    between atoms: N_20  and  C_19 
REMARK       I    between atoms: C_22  and  N_20 
ROOT
ATOM      1  C   LIG d   1       2.597  86.406 115.527  0.00  0.00     0.161 C 
ATOM      2  C   LIG d   1       2.638  87.696 114.972  0.00  0.00     0.016 C 
ATOM      3  C   LIG d   1       3.789  88.516 114.991  0.00  0.00     0.038 C 
ATOM      4  C   LIG d   1       5.031  88.039 115.436  0.00  0.00     0.028 C 
ATOM      5  C   LIG d   1       4.917  86.921 116.467  0.00  0.00    -0.047 C 
ATOM      6  C   LIG d   1       3.973  85.827 115.918  0.00  0.00     0.091 C 
ENDROOT
BRANCH   1   7
ATOM      7  O   LIG d   1       1.912  85.509 114.631  0.00  0.00    -0.368 OA
BRANCH   7   8
ATOM      8  C   LIG d   1       1.747  85.974 113.268  0.00  0.00     0.119 C 
BRANCH   8   9
ATOM      9  C   LIG d   1       0.402  85.427 112.753  0.00  0.00     0.028 C 
ATOM     10  C   LIG d   1      -0.464  84.840 113.881  0.00  0.00     0.006 C 
ENDBRANCH   8   9
BRANCH   8  11
ATOM     11  C   LIG d   1       2.810  85.375 112.342  0.00  0.00     0.028 C 
ATOM     12  C   LIG d   1       3.797  86.426 111.810  0.00  0.00     0.006 C 
ENDBRANCH   8  11
ENDBRANCH   7   8
ENDBRANCH   1   7
BRANCH   6  13
ATOM     13  N   LIG d   1       3.740  84.735 116.899  0.00  0.00    -0.311 N 
ATOM     14  C   LIG d   1       4.448  83.607 116.923  0.00  0.00     0.210 C 
ATOM     15  C   LIG d   1       4.030  82.604 118.003  0.00  0.00     0.109 C 
ATOM     16  O   LIG d   1       5.403  83.356 116.173  0.00  0.00    -0.276 OA
ATOM     17  H   LIG d   1       3.004  84.869 117.564  0.00  0.00     0.149 HD
ENDBRANCH   6  13
BRANCH   5  18
ATOM     18  N   LIG d   1       6.280  86.426 116.740  0.00  0.00     0.381 N 
ATOM     19  H   LIG d   1       6.517  86.597 117.696  0.00  0.00    -0.090 HD
ATOM     20  H   LIG d   1       6.930  86.925 116.159  0.00  0.00    -0.090 HD
ATOM     21  H   LIG d   1       6.332  85.450 116.547  0.00  0.00    -0.090 HD
ENDBRANCH   5  18
BRANCH   3  22
ATOM     22  C   LIG d   1       3.695  89.842 114.598  0.00  0.00     0.382 C 
ATOM     23  O   LIG d   1       3.505  90.126 113.391  0.00  0.00    -0.241 OA
ATOM     24  O   LIG d   1       3.842  90.759 115.429  0.00  0.00    -0.241 OA
ENDBRANCH   3  22
TORSDOF 7
ENDMDL
MODEL 3
REMARK VINA RESULT:      -4.8     16.498     18.992
REMARK  7 active torsions:
REMARK  status: ('A' for Active; 'I' for Inactive)
REMARK    1  A    between atoms: C_2  and  C_3 
REMARK    2  A    between atoms: C_3  and  O_6 
REMARK    3  A    between atoms: C_3  and  C_4 
REMARK    4  A    between atoms: C_7  and  O_6 
REMARK    5  A    between atoms: C_9  and  C_10 
REMARK    6  A    between atoms: N_15  and  C_14 
REMARK    7  A    between atoms: N_20  and  C_19 
REMARK       I    between atoms: C_22  and  N_20 
ROOT
ATOM      1  C   LIG d   1      -1.886  76.619 114.577  0.00  0.00     0.161 C 
ATOM      2  C   LIG d   1      -3.083  76.796 115.291  0.00  0.00     0.016 C 
ATOM      3  C   LIG d   1      -3.390  76.096 116.481  0.00  0.00     0.038 C 
ATOM      4  C   LIG d   1      -2.449  75.277 117.123  0.00  0.00     0.028 C 
ATOM      5  C   LIG d   1      -1.417  74.679 116.173  0.00  0.00    -0.047 C 
ATOM      6  C   LIG d   1      -0.801  75.813 115.322  0.00  0.00     0.091 C 
ENDROOT
BRANCH   1   7
ATOM      7  O   LIG d   1      -1.367  77.901 114.170  0.00  0.00    -0.368 OA
BRANCH   7   8
ATOM      8  C   LIG d   1      -2.348  78.940 113.933  0.00  0.00     0.119 C 
BRANCH   8   9
ATOM      9  C   LIG d   1      -2.471  79.122 112.408  0.00  0.00     0.028 C 
ATOM     10  C   LIG d   1      -1.285  79.898 111.812  0.00  0.00     0.006 C 
ENDBRANCH   8   9
BRANCH   8  11
ATOM     11  C   LIG d   1      -1.866  80.293 114.465  0.00  0.00     0.028 C 
ATOM     12  C   LIG d   1      -2.624  80.742 115.725  0.00  0.00     0.006 C 
ENDBRANCH   8  11
ENDBRANCH   7   8
ENDBRANCH   1   7
BRANCH   6  13
ATOM     13  N   LIG d   1       0.158  75.304 114.307  0.00  0.00    -0.311 N 
ATOM     14  C   LIG d   1      -0.198  74.520 113.291  0.00  0.00     0.210 C 
ATOM     15  C   LIG d   1       0.950  74.092 112.372  0.00  0.00     0.109 C 
ATOM     16  O   LIG d   1      -1.360  74.165 113.045  0.00  0.00    -0.276 OA
ATOM     17  H   LIG d   1       1.117  75.570 114.413  0.00  0.00     0.149 HD
ENDBRANCH   6  13
BRANCH   5  18
ATOM     18  N   LIG d   1      -0.420  73.963 116.990  0.00  0.00     0.381 N 
ATOM     19  H   LIG d   1      -0.610  72.981 116.973  0.00  0.00    -0.090 HD
ATOM     20  H   LIG d   1      -0.490  74.281 117.941  0.00  0.00    -0.090 HD
ATOM     21  H   LIG d   1       0.496  74.137 116.641  0.00  0.00    -0.090 HD
ENDBRANCH   5  18
BRANCH   3  22
ATOM     22  C   LIG d   1      -4.665  76.180 117.018  0.00  0.00     0.382 C 
ATOM     23  O   LIG d   1      -5.661  76.267 116.260  0.00  0.00    -0.241 OA
ATOM     24  O   LIG d   1      -4.829  76.217 118.253  0.00  0.00    -0.241 OA
ENDBRANCH   3  22
TORSDOF 7
ENDMDL
MODEL 4
REMARK VINA RESULT:      -4.7      2.514      4.162
REMARK  7 active torsions:
REMARK  status: ('A' for Active; 'I' for Inactive)
REMARK    1  A    between atoms: C_2  and  C_3 
REMARK    2  A    between atoms: C_3  and  O_6 
REMARK    3  A    between atoms: C_3  and  C_4 
REMARK    4  A    between atoms: C_7  and  O_6 
REMARK    5  A    between atoms: C_9  and  C_10 
REMARK    6  A    between atoms: N_15  and  C_14 
REMARK    7  A    between atoms: N_20  and  C_19 
REMARK       I    between atoms: C_22  and  N_20 
ROOT
ATOM      1  C   LIG d   1     -16.595  63.851 115.458  0.00  0.00     0.161 C 
ATOM      2  C   LIG d   1     -15.978  65.067 115.797  0.00  0.00     0.016 C 
ATOM      3  C   LIG d   1     -15.841  66.148 114.897  0.00  0.00     0.038 C 
ATOM      4  C   LIG d   1     -16.452  66.143 113.634  0.00  0.00     0.028 C 
ATOM      5  C   LIG d   1     -16.653  64.743 113.064  0.00  0.00    -0.047 C 
ATOM      6  C   LIG d   1     -17.365  63.868 114.121  0.00  0.00     0.091 C 
ENDROOT
BRANCH   1   7
ATOM      7  O   LIG d   1     -17.461  63.427 116.529  0.00  0.00    -0.368 OA
BRANCH   7   8
ATOM      8  C   LIG d   1     -18.825  63.914 116.477  0.00  0.00     0.119 C 
BRANCH   8   9
ATOM      9  C   LIG d   1     -19.022  64.869 117.670  0.00  0.00     0.028 C 
ATOM     10  C   LIG d   1     -19.240  66.325 117.227  0.00  0.00     0.006 C 
ENDBRANCH   8   9
BRANCH   8  11
ATOM     11  C   LIG d   1     -19.830  62.779 116.696  0.00  0.00     0.028 C 
ATOM     12  C   LIG d   1     -21.076  62.907 115.806  0.00  0.00     0.006 C 
ENDBRANCH   8  11
ENDBRANCH   7   8
ENDBRANCH   1   7
BRANCH   6  13
ATOM     13  N   LIG d   1     -17.525  62.459 113.676  0.00  0.00    -0.311 N 
ATOM     14  C   LIG d   1     -18.585  62.020 112.999  0.00  0.00     0.210 C 
ATOM     15  C   LIG d   1     -18.559  60.527 112.656  0.00  0.00     0.109 C 
ATOM     16  O   LIG d   1     -19.529  62.732 112.623  0.00  0.00    -0.276 OA
ATOM     17  H   LIG d   1     -16.791  61.821 113.912  0.00  0.00     0.149 HD
ENDBRANCH   6  13
BRANCH   5  18
ATOM     18  N   LIG d   1     -17.421  64.877 111.812  0.00  0.00     0.381 N 
ATOM     19  H   LIG d   1     -18.173  65.524 111.943  0.00  0.00    -0.090 HD
ATOM     20  H   LIG d   1     -17.812  63.983 111.573  0.00  0.00    -0.090 HD
ATOM     21  H   LIG d   1     -16.825  65.194 111.079  0.00  0.00    -0.090 HD
ENDBRANCH   5  18
BRANCH   3  22
ATOM     22  C   LIG d   1     -15.053  67.235 115.243  0.00  0.00     0.382 C 
ATOM     23  O   LIG d   1     -15.294  68.366 114.754  0.00  0.00    -0.241 OA
ATOM     24  O   LIG d   1     -14.077  67.091 116.003  0.00  0.00    -0.241 OA
ENDBRANCH   3  22
TORSDOF 7
ENDMDL
MODEL 5
REMARK VINA RESULT:      -4.7     15.207     18.077
REMARK  7 active torsions:
REMARK  status: ('A' for Active; 'I' for Inactive)
REMARK    1  A    between atoms: C_2  and  C_3 
REMARK    2  A    between atoms: C_3  and  O_6 
REMARK    3  A    between atoms: C_3  and  C_4 
REMARK    4  A    between atoms: C_7  and  O_6 
REMARK    5  A    between atoms: C_9  and  C_10 
REMARK    6  A    between atoms: N_15  and  C_14 
REMARK    7  A    between atoms: N_20  and  C_19 
REMARK       I    between atoms: C_22  and  N_20 
ROOT
ATOM      1  C   LIG d   1      -2.942  76.117 115.129  0.00  0.00     0.161 C 
ATOM      2  C   LIG d   1      -2.651  75.143 116.099  0.00  0.00     0.016 C 
ATOM      3  C   LIG d   1      -1.669  75.314 117.102  0.00  0.00     0.038 C 
ATOM      4  C   LIG d   1      -1.012  76.538 117.296  0.00  0.00     0.028 C 
ATOM      5  C   LIG d   1      -0.911  77.379 116.029  0.00  0.00    -0.047 C 
ATOM      6  C   LIG d   1      -2.315  77.502 115.394  0.00  0.00     0.091 C 
ENDROOT
BRANCH   1   7
ATOM      7  O   LIG d   1      -4.370  76.236 114.970  0.00  0.00    -0.368 OA
BRANCH   7   8
ATOM      8  C   LIG d   1      -5.160  75.122 115.454  0.00  0.00     0.119 C 
BRANCH   8   9
ATOM      9  C   LIG d   1      -5.857  74.485 114.236  0.00  0.00     0.028 C 
ATOM     10  C   LIG d   1      -5.535  75.221 112.925  0.00  0.00     0.006 C 
ENDBRANCH   8   9
BRANCH   8  11
ATOM     11  C   LIG d   1      -6.294  75.598 116.367  0.00  0.00     0.028 C 
ATOM     12  C   LIG d   1      -5.818  76.592 117.439  0.00  0.00     0.006 C 
ENDBRANCH   8  11
ENDBRANCH   7   8
ENDBRANCH   1   7
BRANCH   6  13
ATOM     13  N   LIG d   1      -2.292  78.239 114.104  0.00  0.00    -0.311 N 
ATOM     14  C   LIG d   1      -2.707  79.497 113.971  0.00  0.00     0.210 C 
ATOM     15  C   LIG d   1      -2.616  80.062 112.549  0.00  0.00     0.109 C 
ATOM     16  O   LIG d   1      -3.112  80.211 114.901  0.00  0.00    -0.276 OA
ATOM     17  H   LIG d   1      -1.949  77.746 113.303  0.00  0.00     0.149 HD
ENDBRANCH   6  13
BRANCH   5  18
ATOM     18  N   LIG d   1      -0.330  78.683 116.404  0.00  0.00     0.381 N 
ATOM     19  H   LIG d   1      -0.979  79.415 116.195  0.00  0.00    -0.090 HD
ATOM     20  H   LIG d   1       0.503  78.835 115.863  0.00  0.00    -0.090 HD
ATOM     21  H   LIG d   1      -0.110  78.691 117.375  0.00  0.00    -0.090 HD
ENDBRANCH   5  18
BRANCH   3  22
ATOM     22  C   LIG d   1      -1.306  74.238 117.898  0.00  0.00     0.382 C 
ATOM     23  O   LIG d   1      -2.179  73.622 118.555  0.00  0.00    -0.241 OA
ATOM     24  O   LIG d   1      -0.110  73.904 118.002  0.00  0.00    -0.241 OA
ENDBRANCH   3  22
TORSDOF 7
ENDMDL
MODEL 6
REMARK VINA RESULT:      -4.6      1.612      4.641
REMARK  7 active torsions:
REMARK  status: ('A' for Active; 'I' for Inactive)
REMARK    1  A    between atoms: C_2  and  C_3 
REMARK    2  A    between atoms: C_3  and  O_6 
REMARK    3  A    between atoms: C_3  and  C_4 
REMARK    4  A    between atoms: C_7  and  O_6 
REMARK    5  A    between atoms: C_9  and  C_10 
REMARK    6  A    between atoms: N_15  and  C_14 
REMARK    7  A    between atoms: N_20  and  C_19 
REMARK       I    between atoms: C_22  and  N_20 
ROOT
ATOM      1  C   LIG d   1     -16.388  65.272 114.222  0.00  0.00     0.161 C 
ATOM      2  C   LIG d   1     -16.168  64.381 115.286  0.00  0.00     0.016 C 
ATOM      3  C   LIG d   1     -16.148  64.779 116.642  0.00  0.00     0.038 C 
ATOM      4  C   LIG d   1     -16.499  66.078 117.039  0.00  0.00     0.028 C 
ATOM      5  C   LIG d   1     -16.234  67.131 115.968  0.00  0.00    -0.047 C 
ATOM      6  C   LIG d   1     -16.882  66.672 114.642  0.00  0.00     0.091 C 
ENDROOT
BRANCH   1   7
ATOM      7  O   LIG d   1     -17.298  64.683 113.272  0.00  0.00    -0.368 OA
BRANCH   7   8
ATOM      8  C   LIG d   1     -18.221  63.699 113.799  0.00  0.00     0.119 C 
BRANCH   8   9
ATOM      9  C   LIG d   1     -18.312  62.553 112.773  0.00  0.00     0.028 C 
ATOM     10  C   LIG d   1     -19.648  62.553 112.011  0.00  0.00     0.006 C 
ENDBRANCH   8   9
BRANCH   8  11
ATOM     11  C   LIG d   1     -19.640  64.265 113.902  0.00  0.00     0.028 C 
ATOM     12  C   LIG d   1     -20.013  64.682 115.333  0.00  0.00     0.006 C 
ENDBRANCH   8  11
ENDBRANCH   7   8
ENDBRANCH   1   7
BRANCH   6  13
ATOM     13  N   LIG d   1     -16.598  67.604 113.520  0.00  0.00    -0.311 N 
ATOM     14  C   LIG d   1     -15.367  67.920 113.123  0.00  0.00     0.210 C 
ATOM     15  C   LIG d   1     -15.298  68.915 111.960  0.00  0.00     0.109 C 
ATOM     16  O   LIG d   1     -14.326  67.445 113.601  0.00  0.00    -0.276 OA
ATOM     17  H   LIG d   1     -17.386  68.011 113.055  0.00  0.00     0.149 HD
ENDBRANCH   6  13
BRANCH   5  18
ATOM     18  N   LIG d   1     -16.771  68.413 116.461  0.00  0.00     0.381 N 
ATOM     19  H   LIG d   1     -16.154  68.797 117.149  0.00  0.00    -0.090 HD
ATOM     20  H   LIG d   1     -17.662  68.247 116.894  0.00  0.00    -0.090 HD
ATOM     21  H   LIG d   1     -16.876  69.052 115.704  0.00  0.00    -0.090 HD
ENDBRANCH   5  18
BRANCH   3  22
ATOM     22  C   LIG d   1     -15.735  63.882 117.616  0.00  0.00     0.382 C 
ATOM     23  O   LIG d   1     -16.509  63.576 118.555  0.00  0.00    -0.241 OA
ATOM     24  O   LIG d   1     -14.584  63.408 117.591  0.00  0.00    -0.241 OA
ENDBRANCH   3  22
TORSDOF 7
ENDMDL
MODEL 7
REMARK VINA RESULT:      -4.6     24.946     27.809
REMARK  7 active torsions:
REMARK  status: ('A' for Active; 'I' for Inactive)
REMARK    1  A    between atoms: C_2  and  C_3 
REMARK    2  A    between atoms: C_3  and  O_6 
REMARK    3  A    between atoms: C_3  and  C_4 
REMARK    4  A    between atoms: C_7  and  O_6 
REMARK    5  A    between atoms: C_9  and  C_10 
REMARK    6  A    between atoms: N_15  and  C_14 
REMARK    7  A    between atoms: N_20  and  C_19 
REMARK       I    between atoms: C_22  and  N_20 
ROOT
ATOM      1  C   LIG d   1       2.448  86.137 113.504  0.00  0.00     0.161 C 
ATOM      2  C   LIG d   1       3.284  87.169 113.048  0.00  0.00     0.016 C 
ATOM      3  C   LIG d   1       3.967  88.056 113.911  0.00  0.00     0.038 C 
ATOM      4  C   LIG d   1       3.979  87.875 115.302  0.00  0.00     0.028 C 
ATOM      5  C   LIG d   1       2.744  87.153 115.830  0.00  0.00    -0.047 C 
ATOM      6  C   LIG d   1       2.537  85.853 115.018  0.00  0.00     0.091 C 
ENDROOT
BRANCH   1   7
ATOM      7  O   LIG d   1       2.703  84.933 112.753  0.00  0.00    -0.368 OA
BRANCH   7   8
ATOM      8  C   LIG d   1       1.679  84.543 111.806  0.00  0.00     0.119 C 
BRANCH   8   9
ATOM      9  C   LIG d   1       0.436  85.410 112.085  0.00  0.00     0.028 C 
ATOM     10  C   LIG d   1      -0.801  84.566 112.437  0.00  0.00     0.006 C 
ENDBRANCH   8   9
BRANCH   8  11
ATOM     11  C   LIG d   1       1.226  83.098 112.037  0.00  0.00     0.028 C 
ATOM     12  C   LIG d   1       2.350  82.202 112.581  0.00  0.00     0.006 C 
ENDBRANCH   8  11
ENDBRANCH   7   8
ENDBRANCH   1   7
BRANCH   6  13
ATOM     13  N   LIG d   1       1.301  85.129 115.414  0.00  0.00    -0.311 N 
ATOM     14  C   LIG d   1       1.294  83.861 115.823  0.00  0.00     0.210 C 
ATOM     15  C   LIG d   1      -0.090  83.299 116.164  0.00  0.00     0.109 C 
ATOM     16  O   LIG d   1       2.306  83.158 115.966  0.00  0.00    -0.276 OA
ATOM     17  H   LIG d   1       0.439  85.633 115.357  0.00  0.00     0.149 HD
ENDBRANCH   6  13
BRANCH   5  18
ATOM     18  N   LIG d   1       2.952  86.908 117.269  0.00  0.00     0.381 N 
ATOM     19  H   LIG d   1       3.688  87.493 117.609  0.00  0.00    -0.090 HD
ATOM     20  H   LIG d   1       3.224  85.950 117.400  0.00  0.00    -0.090 HD
ATOM     21  H   LIG d   1       2.111  87.094 117.771  0.00  0.00    -0.090 HD
ENDBRANCH   5  18
BRANCH   3  22
ATOM     22  C   LIG d   1       4.615  89.164 113.386  0.00  0.00     0.382 C 
ATOM     23  O   LIG d   1       5.793  89.060 112.965  0.00  0.00    -0.241 OA
ATOM     24  O   LIG d   1       4.053  90.275 113.367  0.00  0.00    -0.241 OA
ENDBRANCH   3  22
TORSDOF 7
ENDMDL
MODEL 8
REMARK VINA RESULT:      -4.5     20.508     23.927
REMARK  7 active torsions:
REMARK  status: ('A' for Active; 'I' for Inactive)
REMARK    1  A    between atoms: C_2  and  C_3 
REMARK    2  A    between atoms: C_3  and  O_6 
REMARK    3  A    between atoms: C_3  and  C_4 
REMARK    4  A    between atoms: C_7  and  O_6 
REMARK    5  A    between atoms: C_9  and  C_10 
REMARK    6  A    between atoms: N_15  and  C_14 
REMARK    7  A    between atoms: N_20  and  C_19 
REMARK       I    between atoms: C_22  and  N_20 
ROOT
ATOM      1  C   LIG d   1       0.724  81.171 113.150  0.00  0.00     0.161 C 
ATOM      2  C   LIG d   1      -0.602  81.186 112.688  0.00  0.00     0.016 C 
ATOM      3  C   LIG d   1      -1.715  80.883 113.506  0.00  0.00     0.038 C 
ATOM      4  C   LIG d   1      -1.587  80.691 114.890  0.00  0.00     0.028 C 
ATOM      5  C   LIG d   1      -0.215  80.170 115.305  0.00  0.00    -0.047 C 
ATOM      6  C   LIG d   1       0.874  81.073 114.683  0.00  0.00     0.091 C 
ENDROOT
BRANCH   1   7
ATOM      7  O   LIG d   1       1.428  82.326 112.651  0.00  0.00    -0.368 OA
BRANCH   7   8
ATOM      8  C   LIG d   1       1.461  83.480 113.527  0.00  0.00     0.119 C 
BRANCH   8   9
ATOM      9  C   LIG d   1       0.611  84.584 112.870  0.00  0.00     0.028 C 
ATOM     10  C   LIG d   1      -0.712  84.828 113.616  0.00  0.00     0.006 C 
ENDBRANCH   8   9
BRANCH   8  11
ATOM     11  C   LIG d   1       2.874  84.062 113.627  0.00  0.00     0.028 C 
ATOM     12  C   LIG d   1       3.156  85.131 112.559  0.00  0.00     0.006 C 
ENDBRANCH   8  11
ENDBRANCH   7   8
ENDBRANCH   1   7
BRANCH   6  13
ATOM     13  N   LIG d   1       2.248  80.584 114.970  0.00  0.00    -0.311 N 
ATOM     14  C   LIG d   1       2.990  81.035 115.980  0.00  0.00     0.210 C 
ATOM     15  C   LIG d   1       4.385  80.412 116.085  0.00  0.00     0.109 C 
ATOM     16  O   LIG d   1       2.613  81.868 116.817  0.00  0.00    -0.276 OA
ATOM     17  H   LIG d   1       2.620  79.885 114.358  0.00  0.00     0.149 HD
ENDBRANCH   6  13
BRANCH   5  18
ATOM     18  N   LIG d   1      -0.175  80.147 116.779  0.00  0.00     0.381 N 
ATOM     19  H   LIG d   1      -0.135  81.082 117.132  0.00  0.00    -0.090 HD
ATOM     20  H   LIG d   1       0.656  79.664 117.074  0.00  0.00    -0.090 HD
ATOM     21  H   LIG d   1      -0.982  79.683 117.135  0.00  0.00    -0.090 HD
ENDBRANCH   5  18
BRANCH   3  22
ATOM     22  C   LIG d   1      -2.968  80.730 112.933  0.00  0.00     0.382 C 
ATOM     23  O   LIG d   1      -3.505  79.597 112.893  0.00  0.00    -0.241 OA
ATOM     24  O   LIG d   1      -3.549  81.702 112.415  0.00  0.00    -0.241 OA
ENDBRANCH   3  22
TORSDOF 7
ENDMDL
MODEL 9
REMARK VINA RESULT:      -4.5     18.713     20.753
REMARK  7 active torsions:
REMARK  status: ('A' for Active; 'I' for Inactive)
REMARK    1  A    between atoms: C_2  and  C_3 
REMARK    2  A    between atoms: C_3  and  O_6 
REMARK    3  A    between atoms: C_3  and  C_4 
REMARK    4  A    between atoms: C_7  and  O_6 
REMARK    5  A    between atoms: C_9  and  C_10 
REMARK    6  A    between atoms: N_15  and  C_14 
REMARK    7  A    between atoms: N_20  and  C_19 
REMARK       I    between atoms: C_22  and  N_20 
ROOT
ATOM      1  C   LIG d   1     -23.422  83.841 114.311  0.00  0.00     0.161 C 
ATOM      2  C   LIG d   1     -22.494  84.872 114.532  0.00  0.00     0.016 C 
ATOM      3  C   LIG d   1     -22.801  86.243 114.372  0.00  0.00     0.038 C 
ATOM      4  C   LIG d   1     -24.109  86.686 114.126  0.00  0.00     0.028 C 
ATOM      5  C   LIG d   1     -24.970  85.658 113.399  0.00  0.00    -0.047 C 
ATOM      6  C   LIG d   1     -24.883  84.310 114.150  0.00  0.00     0.091 C 
ENDROOT
BRANCH   1   7
ATOM      7  O   LIG d   1     -23.323  82.861 115.364  0.00  0.00    -0.368 OA
BRANCH   7   8
ATOM      8  C   LIG d   1     -22.768  83.327 116.618  0.00  0.00     0.119 C 
BRANCH   8   9
ATOM      9  C   LIG d   1     -21.850  82.215 117.160  0.00  0.00     0.028 C 
ATOM     10  C   LIG d   1     -21.130  82.626 118.455  0.00  0.00     0.006 C 
ENDBRANCH   8   9
BRANCH   8  11
ATOM     11  C   LIG d   1     -23.858  83.505 117.679  0.00  0.00     0.028 C 
ATOM     12  C   LIG d   1     -24.296  84.969 117.844  0.00  0.00     0.006 C 
ENDBRANCH   8  11
ENDBRANCH   7   8
ENDBRANCH   1   7
BRANCH   6  13
ATOM     13  N   LIG d   1     -25.630  83.226 113.458  0.00  0.00    -0.311 N 
ATOM     14  C   LIG d   1     -26.889  82.903 113.748  0.00  0.00     0.210 C 
ATOM     15  C   LIG d   1     -27.463  81.743 112.929  0.00  0.00     0.109 C 
ATOM     16  O   LIG d   1     -27.595  83.488 114.583  0.00  0.00    -0.276 OA
ATOM     17  H   LIG d   1     -25.142  82.720 112.745  0.00  0.00     0.149 HD
ENDBRANCH   6  13
BRANCH   5  18
ATOM     18  N   LIG d   1     -26.342  86.194 113.330  0.00  0.00     0.381 N 
ATOM     19  H   LIG d   1     -26.972  85.575 113.800  0.00  0.00    -0.090 HD
ATOM     20  H   LIG d   1     -26.620  86.254 112.366  0.00  0.00    -0.090 HD
ATOM     21  H   LIG d   1     -26.377  87.097 113.750  0.00  0.00    -0.090 HD
ENDBRANCH   5  18
BRANCH   3  22
ATOM     22  C   LIG d   1     -21.785  87.185 114.420  0.00  0.00     0.382 C 
ATOM     23  O   LIG d   1     -21.890  88.183 115.172  0.00  0.00    -0.241 OA
ATOM     24  O   LIG d   1     -20.784  87.072 113.687  0.00  0.00    -0.241 OA
ENDBRANCH   3  22
TORSDOF 7
ENDMDL
