MODEL 1
REMARK VINA RESULT:      -5.5      0.000      0.000
REMARK  7 active torsions:
REMARK  status: ('A' for Active; 'I' for Inactive)
REMARK    1  A    between atoms: C_2  and  C_3 
REMARK    2  A    between atoms: C_3  and  O_6 
REMARK    3  A    between atoms: C_3  and  C_4 
REMARK    4  A    between atoms: C_7  and  O_6 
REMARK    5  A    between atoms: C_9  and  C_10 
REMARK    6  A    between atoms: N_15  and  C_14 
REMARK    7  A    between atoms: N_20  and  C_19 
REMARK       I    between atoms: C_22  and  N_20 
ROOT
ATOM      1  C   LIG d   1     -16.647  65.389 114.445  0.00  0.00     0.161 C 
ATOM      2  C   LIG d   1     -16.236  66.323 113.480  0.00  0.00     0.016 C 
ATOM      3  C   LIG d   1     -15.517  67.500 113.793  0.00  0.00     0.038 C 
ATOM      4  C   LIG d   1     -15.026  67.748 115.083  0.00  0.00     0.028 C 
ATOM      5  C   LIG d   1     -15.850  67.085 116.182  0.00  0.00    -0.047 C 
ATOM      6  C   LIG d   1     -16.025  65.587 115.844  0.00  0.00     0.091 C 
ENDROOT
BRANCH   1   7
ATOM      7  O   LIG d   1     -16.396  64.052 113.970  0.00  0.00    -0.368 OA
BRANCH   7   8
ATOM      8  C   LIG d   1     -17.564  63.273 113.612  0.00  0.00     0.119 C 
BRANCH   8   9
ATOM      9  C   LIG d   1     -18.807  64.097 113.999  0.00  0.00     0.028 C 
ATOM     10  C   LIG d   1     -19.816  64.214 112.844  0.00  0.00     0.006 C 
ENDBRANCH   8   9
BRANCH   8  11
ATOM     11  C   LIG d   1     -17.653  61.990 114.444  0.00  0.00     0.028 C 
ATOM     12  C   LIG d   1     -18.509  60.904 113.774  0.00  0.00     0.006 C 
ENDBRANCH   8  11
ENDBRANCH   7   8
ENDBRANCH   1   7
BRANCH   6  13
ATOM     13  N   LIG d   1     -16.890  64.882 116.825  0.00  0.00    -0.311 N 
ATOM     14  C   LIG d   1     -16.539  63.749 117.431  0.00  0.00     0.210 C 
ATOM     15  C   LIG d   1     -17.586  63.178 118.392  0.00  0.00     0.109 C 
ATOM     16  O   LIG d   1     -15.445  63.181 117.289  0.00  0.00    -0.276 OA
ATOM     17  H   LIG d   1     -17.783  65.290 117.023  0.00  0.00     0.149 HD
ENDBRANCH   6  13
BRANCH   5  18
ATOM     18  N   LIG d   1     -15.150  67.311 117.461  0.00  0.00     0.381 N 
ATOM     19  H   LIG d   1     -14.193  67.543 117.287  0.00  0.00    -0.090 HD
ATOM     20  H   LIG d   1     -15.176  66.463 118.000  0.00  0.00    -0.090 HD
ATOM     21  H   LIG d   1     -15.592  68.047 117.966  0.00  0.00    -0.090 HD
ENDBRANCH   5  18
BRANCH   3  22
ATOM     22  C   LIG d   1     -15.316  68.463 112.816  0.00  0.00     0.382 C 
ATOM     23  O   LIG d   1     -14.426  69.334 112.967  0.00  0.00    -0.241 OA
ATOM     24  O   LIG d   1     -16.044  68.499 111.805  0.00  0.00    -0.241 OA
ENDBRANCH   3  22
TORSDOF 7
ENDMDL
MODEL 2
REMARK VINA RESULT:      -5.0     26.178     29.009
REMARK  7 active torsions:
REMARK  status: ('A' for Active; 'I' for Inactive)
REMARK    1  A    between atoms: C_2  and  C_3 
REMARK    2  A    between atoms: C_3  and  O_6 
REMARK    3  A    between atoms: C_3  and  C_4 
REMARK    4  A    between atoms: C_7  and  O_6 
REMARK    5  A    between atoms: C_9  and  C_10 
REMARK    6  A    between atoms: N_15  and  C_14 
REMARK    7  A    between atoms: N_20  and  C_19 
REMARK       I    between atoms: C_22  and  N_20 
ROOT
ATOM      1  C   LIG d   1       2.562  87.006 114.721  0.00  0.00     0.161 C 
ATOM      2  C   LIG d   1       3.204  88.076 114.075  0.00  0.00     0.016 C 
ATOM      3  C   LIG d   1       4.592  88.324 114.173  0.00  0.00     0.038 C 
ATOM      4  C   LIG d   1       5.463  87.426 114.807  0.00  0.00     0.028 C 
ATOM      5  C   LIG d   1       4.793  86.601 115.900  0.00  0.00    -0.047 C 
ATOM      6  C   LIG d   1       3.513  85.952 115.326  0.00  0.00     0.091 C 
ENDROOT
BRANCH   1   7
ATOM      7  O   LIG d   1       1.628  86.380 113.820  0.00  0.00    -0.368 OA
BRANCH   7   8
ATOM      8  C   LIG d   1       2.052  85.125 113.232  0.00  0.00     0.119 C 
BRANCH   8   9
ATOM      9  C   LIG d   1       2.623  85.437 111.836  0.00  0.00     0.028 C 
ATOM     10  C   LIG d   1       4.160  85.390 111.806  0.00  0.00     0.006 C 
ENDBRANCH   8   9
BRANCH   8  11
ATOM     11  C   LIG d   1       0.861  84.195 112.985  0.00  0.00     0.028 C 
ATOM     12  C   LIG d   1      -0.434  84.958 112.665  0.00  0.00     0.006 C 
ENDBRANCH   8  11
ENDBRANCH   7   8
ENDBRANCH   1   7
BRANCH   6  13
ATOM     13  N   LIG d   1       2.750  85.196 116.353  0.00  0.00    -0.311 N 
ATOM     14  C   LIG d   1       2.881  83.884 116.545  0.00  0.00     0.210 C 
ATOM     15  C   LIG d   1       1.986  83.299 117.643  0.00  0.00     0.109 C 
ATOM     16  O   LIG d   1       3.676  83.155 115.932  0.00  0.00    -0.276 OA
ATOM     17  H   LIG d   1       2.106  85.715 116.917  0.00  0.00     0.149 HD
ENDBRANCH   6  13
BRANCH   5  18
ATOM     18  N   LIG d   1       5.777  85.613 116.381  0.00  0.00     0.381 N 
ATOM     19  H   LIG d   1       5.861  85.675 117.376  0.00  0.00    -0.090 HD
ATOM     20  H   LIG d   1       6.672  85.822 115.975  0.00  0.00    -0.090 HD
ATOM     21  H   LIG d   1       5.492  84.694 116.120  0.00  0.00    -0.090 HD
ENDBRANCH   5  18
BRANCH   3  22
ATOM     22  C   LIG d   1       5.117  89.504 113.667  0.00  0.00     0.382 C 
ATOM     23  O   LIG d   1       4.377  90.506 113.519  0.00  0.00    -0.241 OA
ATOM     24  O   LIG d   1       6.310  89.565 113.316  0.00  0.00    -0.241 OA
ENDBRANCH   3  22
TORSDOF 7
ENDMDL
MODEL 3
REMARK VINA RESULT:      -4.9      2.455      3.999
REMARK  7 active torsions:
REMARK  status: ('A' for Active; 'I' for Inactive)
REMARK    1  A    between atoms: C_2  and  C_3 
REMARK    2  A    between atoms: C_3  and  O_6 
REMARK    3  A    between atoms: C_3  and  C_4 
REMARK    4  A    between atoms: C_7  and  O_6 
REMARK    5  A    between atoms: C_9  and  C_10 
REMARK    6  A    between atoms: N_15  and  C_14 
REMARK    7  A    between atoms: N_20  and  C_19 
REMARK       I    between atoms: C_22  and  N_20 
ROOT
ATOM      1  C   LIG d   1     -16.673  64.245 116.332  0.00  0.00     0.161 C 
ATOM      2  C   LIG d   1     -16.102  65.513 116.533  0.00  0.00     0.016 C 
ATOM      3  C   LIG d   1     -15.828  66.419 115.483  0.00  0.00     0.038 C 
ATOM      4  C   LIG d   1     -16.248  66.177 114.167  0.00  0.00     0.028 C 
ATOM      5  C   LIG d   1     -16.375  64.694 113.834  0.00  0.00    -0.047 C 
ATOM      6  C   LIG d   1     -17.240  64.009 114.916  0.00  0.00     0.091 C 
ENDROOT
BRANCH   1   7
ATOM      7  O   LIG d   1     -17.689  64.003 117.325  0.00  0.00    -0.368 OA
BRANCH   7   8
ATOM      8  C   LIG d   1     -18.938  64.715 117.146  0.00  0.00     0.119 C 
BRANCH   8   9
ATOM      9  C   LIG d   1     -19.204  65.515 118.436  0.00  0.00     0.028 C 
ATOM     10  C   LIG d   1     -19.285  67.029 118.182  0.00  0.00     0.006 C 
ENDBRANCH   8   9
BRANCH   8  11
ATOM     11  C   LIG d   1     -20.118  63.747 117.019  0.00  0.00     0.028 C 
ATOM     12  C   LIG d   1     -19.777  62.326 117.497  0.00  0.00     0.006 C 
ENDBRANCH   8  11
ENDBRANCH   7   8
ENDBRANCH   1   7
BRANCH   6  13
ATOM     13  N   LIG d   1     -17.345  62.540 114.713  0.00  0.00    -0.311 N 
ATOM     14  C   LIG d   1     -18.325  61.964 114.020  0.00  0.00     0.210 C 
ATOM     15  C   LIG d   1     -18.255  60.435 113.950  0.00  0.00     0.109 C 
ATOM     16  O   LIG d   1     -19.229  62.576 113.431  0.00  0.00    -0.276 OA
ATOM     17  H   LIG d   1     -16.635  61.970 115.131  0.00  0.00     0.149 HD
ENDBRANCH   6  13
BRANCH   5  18
ATOM     18  N   LIG d   1     -16.951  64.588 112.480  0.00  0.00     0.381 N 
ATOM     19  H   LIG d   1     -16.950  63.632 112.185  0.00  0.00    -0.090 HD
ATOM     20  H   LIG d   1     -16.382  65.116 111.843  0.00  0.00    -0.090 HD
ATOM     21  H   LIG d   1     -17.882  64.943 112.478  0.00  0.00    -0.090 HD
ENDBRANCH   5  18
BRANCH   3  22
ATOM     22  C   LIG d   1     -15.090  67.564 115.739  0.00  0.00     0.382 C 
ATOM     23  O   LIG d   1     -14.120  67.521 116.533  0.00  0.00    -0.241 OA
ATOM     24  O   LIG d   1     -15.410  68.651 115.220  0.00  0.00    -0.241 OA
ENDBRANCH   3  22
TORSDOF 7
ENDMDL
MODEL 4
REMARK VINA RESULT:      -4.8     28.759     31.564
REMARK  7 active torsions:
REMARK  status: ('A' for Active; 'I' for Inactive)
REMARK    1  A    between atoms: C_2  and  C_3 
REMARK    2  A    between atoms: C_3  and  O_6 
REMARK    3  A    between atoms: C_3  and  C_4 
REMARK    4  A    between atoms: C_7  and  O_6 
REMARK    5  A    between atoms: C_9  and  C_10 
REMARK    6  A    between atoms: N_15  and  C_14 
REMARK    7  A    between atoms: N_20  and  C_19 
REMARK       I    between atoms: C_22  and  N_20 
ROOT
ATOM      1  C   LIG d   1      11.486  78.784 114.383  0.00  0.00     0.161 C 
ATOM      2  C   LIG d   1      10.129  79.040 114.643  0.00  0.00     0.016 C 
ATOM      3  C   LIG d   1       9.216  78.044 115.057  0.00  0.00     0.038 C 
ATOM      4  C   LIG d   1       9.633  76.746 115.387  0.00  0.00     0.028 C 
ATOM      5  C   LIG d   1      10.899  76.312 114.656  0.00  0.00    -0.047 C 
ATOM      6  C   LIG d   1      11.983  77.398 114.844  0.00  0.00     0.091 C 
ENDROOT
BRANCH   1   7
ATOM      7  O   LIG d   1      12.299  79.826 114.959  0.00  0.00    -0.368 OA
BRANCH   7   8
ATOM      8  C   LIG d   1      12.815  80.816 114.036  0.00  0.00     0.119 C 
BRANCH   8   9
ATOM      9  C   LIG d   1      12.574  80.289 112.609  0.00  0.00     0.028 C 
ATOM     10  C   LIG d   1      11.616  81.184 111.806  0.00  0.00     0.006 C 
ENDBRANCH   8   9
BRANCH   8  11
ATOM     11  C   LIG d   1      14.334  80.959 114.165  0.00  0.00     0.028 C 
ATOM     12  C   LIG d   1      15.095  80.302 113.002  0.00  0.00     0.006 C 
ENDBRANCH   8  11
ENDBRANCH   7   8
ENDBRANCH   1   7
BRANCH   6  13
ATOM     13  N   LIG d   1      13.228  77.093 114.091  0.00  0.00    -0.311 N 
ATOM     14  C   LIG d   1      14.437  77.080 114.648  0.00  0.00     0.210 C 
ATOM     15  C   LIG d   1      15.588  76.761 113.688  0.00  0.00     0.109 C 
ATOM     16  O   LIG d   1      14.663  77.270 115.853  0.00  0.00    -0.276 OA
ATOM     17  H   LIG d   1      13.133  76.896 113.114  0.00  0.00     0.149 HD
ENDBRANCH   6  13
BRANCH   5  18
ATOM     18  N   LIG d   1      11.298  74.998 115.196  0.00  0.00     0.381 N 
ATOM     19  H   LIG d   1      12.247  74.804 114.947  0.00  0.00    -0.090 HD
ATOM     20  H   LIG d   1      10.714  74.289 114.789  0.00  0.00    -0.090 HD
ATOM     21  H   LIG d   1      11.198  74.992 116.187  0.00  0.00    -0.090 HD
ENDBRANCH   5  18
BRANCH   3  22
ATOM     22  C   LIG d   1       7.860  78.332 115.106  0.00  0.00     0.382 C 
ATOM     23  O   LIG d   1       7.467  79.413 115.608  0.00  0.00    -0.241 OA
ATOM     24  O   LIG d   1       7.023  77.506 114.696  0.00  0.00    -0.241 OA
ENDBRANCH   3  22
TORSDOF 7
ENDMDL
MODEL 5
REMARK VINA RESULT:      -4.8     18.820     20.983
REMARK  7 active torsions:
REMARK  status: ('A' for Active; 'I' for Inactive)
REMARK    1  A    between atoms: C_2  and  C_3 
REMARK    2  A    between atoms: C_3  and  O_6 
REMARK    3  A    between atoms: C_3  and  C_4 
REMARK    4  A    between atoms: C_7  and  O_6 
REMARK    5  A    between atoms: C_9  and  C_10 
REMARK    6  A    between atoms: N_15  and  C_14 
REMARK    7  A    between atoms: N_20  and  C_19 
REMARK       I    between atoms: C_22  and  N_20 
ROOT
ATOM      1  C   LIG d   1     -24.082  83.864 113.481  0.00  0.00     0.161 C 
ATOM      2  C   LIG d   1     -23.132  84.856 113.778  0.00  0.00     0.016 C 
ATOM      3  C   LIG d   1     -23.455  86.226 113.912  0.00  0.00     0.038 C 
ATOM      4  C   LIG d   1     -24.782  86.680 113.908  0.00  0.00     0.028 C 
ATOM      5  C   LIG d   1     -25.725  85.786 113.109  0.00  0.00    -0.047 C 
ATOM      6  C   LIG d   1     -25.551  84.324 113.582  0.00  0.00     0.091 C 
ENDROOT
BRANCH   1   7
ATOM      7  O   LIG d   1     -23.860  82.710 114.315  0.00  0.00    -0.368 OA
BRANCH   7   8
ATOM      8  C   LIG d   1     -24.259  82.839 115.701  0.00  0.00     0.119 C 
BRANCH   8   9
ATOM      9  C   LIG d   1     -23.021  82.542 116.569  0.00  0.00     0.028 C 
ATOM     10  C   LIG d   1     -22.565  83.768 117.379  0.00  0.00     0.006 C 
ENDBRANCH   8   9
BRANCH   8  11
ATOM     11  C   LIG d   1     -25.289  81.772 116.086  0.00  0.00     0.028 C 
ATOM     12  C   LIG d   1     -24.669  80.374 116.238  0.00  0.00     0.006 C 
ENDBRANCH   8  11
ENDBRANCH   7   8
ENDBRANCH   1   7
BRANCH   6  13
ATOM     13  N   LIG d   1     -26.376  83.372 112.794  0.00  0.00    -0.311 N 
ATOM     14  C   LIG d   1     -27.574  82.941 113.186  0.00  0.00     0.210 C 
ATOM     15  C   LIG d   1     -28.247  81.946 112.235  0.00  0.00     0.109 C 
ATOM     16  O   LIG d   1     -28.157  83.313 114.216  0.00  0.00    -0.276 OA
ATOM     17  H   LIG d   1     -25.993  83.043 111.930  0.00  0.00     0.149 HD
ENDBRANCH   6  13
BRANCH   5  18
ATOM     18  N   LIG d   1     -27.095  86.297 113.303  0.00  0.00     0.381 N 
ATOM     19  H   LIG d   1     -27.330  86.276 114.275  0.00  0.00    -0.090 HD
ATOM     20  H   LIG d   1     -27.737  85.702 112.810  0.00  0.00    -0.090 HD
ATOM     21  H   LIG d   1     -27.163  87.229 112.957  0.00  0.00    -0.090 HD
ENDBRANCH   5  18
BRANCH   3  22
ATOM     22  C   LIG d   1     -22.438  87.164 114.014  0.00  0.00     0.382 C 
ATOM     23  O   LIG d   1     -22.640  88.244 114.621  0.00  0.00    -0.241 OA
ATOM     24  O   LIG d   1     -21.337  86.964 113.468  0.00  0.00    -0.241 OA
ENDBRANCH   3  22
TORSDOF 7
ENDMDL
MODEL 6
REMARK VINA RESULT:      -4.7     29.151     31.948
REMARK  7 active torsions:
REMARK  status: ('A' for Active; 'I' for Inactive)
REMARK    1  A    between atoms: C_2  and  C_3 
REMARK    2  A    between atoms: C_3  and  O_6 
REMARK    3  A    between atoms: C_3  and  C_4 
REMARK    4  A    between atoms: C_7  and  O_6 
REMARK    5  A    between atoms: C_9  and  C_10 
REMARK    6  A    between atoms: N_15  and  C_14 
REMARK    7  A    between atoms: N_20  and  C_19 
REMARK       I    between atoms: C_22  and  N_20 
ROOT
ATOM      1  C   LIG d   1      11.854  78.127 114.703  0.00  0.00     0.161 C 
ATOM      2  C   LIG d   1      10.599  77.499 114.761  0.00  0.00     0.016 C 
ATOM      3  C   LIG d   1       9.374  78.206 114.761  0.00  0.00     0.038 C 
ATOM      4  C   LIG d   1       9.318  79.592 114.552  0.00  0.00     0.028 C 
ATOM      5  C   LIG d   1      10.581  80.323 114.995  0.00  0.00    -0.047 C 
ATOM      6  C   LIG d   1      11.810  79.631 114.362  0.00  0.00     0.091 C 
ENDROOT
BRANCH   1   7
ATOM      7  O   LIG d   1      12.708  77.427 113.777  0.00  0.00    -0.368 OA
BRANCH   7   8
ATOM      8  C   LIG d   1      13.852  76.749 114.352  0.00  0.00     0.119 C 
BRANCH   8   9
ATOM      9  C   LIG d   1      13.847  77.035 115.866  0.00  0.00     0.028 C 
ATOM     10  C   LIG d   1      15.172  77.644 116.353  0.00  0.00     0.006 C 
ENDBRANCH   8   9
BRANCH   8  11
ATOM     11  C   LIG d   1      15.168  77.338 113.833  0.00  0.00     0.028 C 
ATOM     12  C   LIG d   1      15.133  77.637 112.326  0.00  0.00     0.006 C 
ENDBRANCH   8  11
ENDBRANCH   7   8
ENDBRANCH   1   7
BRANCH   6  13
ATOM     13  N   LIG d   1      13.093  80.232 114.811  0.00  0.00    -0.311 N 
ATOM     14  C   LIG d   1      13.977  80.779 113.979  0.00  0.00     0.210 C 
ATOM     15  C   LIG d   1      15.244  81.323 114.648  0.00  0.00     0.109 C 
ATOM     16  O   LIG d   1      13.819  80.894 112.755  0.00  0.00    -0.276 OA
ATOM     17  H   LIG d   1      13.288  80.209 115.793  0.00  0.00     0.149 HD
ENDBRANCH   6  13
BRANCH   5  18
ATOM     18  N   LIG d   1      10.443  81.736 114.593  0.00  0.00     0.381 N 
ATOM     19  H   LIG d   1      10.471  81.808 113.595  0.00  0.00    -0.090 HD
ATOM     20  H   LIG d   1      11.214  82.258 114.969  0.00  0.00    -0.090 HD
ATOM     21  H   LIG d   1       9.583  82.105 114.936  0.00  0.00    -0.090 HD
ENDBRANCH   5  18
BRANCH   3  22
ATOM     22  C   LIG d   1       8.190  77.530 115.014  0.00  0.00     0.382 C 
ATOM     23  O   LIG d   1       7.452  77.891 115.962  0.00  0.00    -0.241 OA
ATOM     24  O   LIG d   1       7.873  76.536 114.334  0.00  0.00    -0.241 OA
ENDBRANCH   3  22
TORSDOF 7
ENDMDL
MODEL 7
REMARK VINA RESULT:      -4.6     26.034     29.559
REMARK  7 active torsions:
REMARK  status: ('A' for Active; 'I' for Inactive)
REMARK    1  A    between atoms: C_2  and  C_3 
REMARK    2  A    between atoms: C_3  and  O_6 
REMARK    3  A    between atoms: C_3  and  C_4 
REMARK    4  A    between atoms: C_7  and  O_6 
REMARK    5  A    between atoms: C_9  and  C_10 
REMARK    6  A    between atoms: N_15  and  C_14 
REMARK    7  A    between atoms: N_20  and  C_19 
REMARK       I    between atoms: C_22  and  N_20 
ROOT
ATOM      1  C   LIG d   1       4.125  86.095 115.461  0.00  0.00     0.161 C 
ATOM      2  C   LIG d   1       3.751  84.769 115.187  0.00  0.00     0.016 C 
ATOM      3  C   LIG d   1       2.406  84.338 115.114  0.00  0.00     0.038 C 
ATOM      4  C   LIG d   1       1.335  85.242 115.159  0.00  0.00     0.028 C 
ATOM      5  C   LIG d   1       1.650  86.515 115.938  0.00  0.00    -0.047 C 
ATOM      6  C   LIG d   1       2.970  87.117 115.404  0.00  0.00     0.091 C 
ENDROOT
BRANCH   1   7
ATOM      7  O   LIG d   1       5.191  86.494 114.578  0.00  0.00    -0.368 OA
BRANCH   7   8
ATOM      8  C   LIG d   1       4.816  87.354 113.474  0.00  0.00     0.119 C 
BRANCH   8   9
ATOM      9  C   LIG d   1       4.662  86.463 112.226  0.00  0.00     0.028 C 
ATOM     10  C   LIG d   1       3.192  86.292 111.805  0.00  0.00     0.006 C 
ENDBRANCH   8   9
BRANCH   8  11
ATOM     11  C   LIG d   1       5.936  88.341 113.131  0.00  0.00     0.028 C 
ATOM     12  C   LIG d   1       5.610  89.782 113.556  0.00  0.00     0.006 C 
ENDBRANCH   8  11
ENDBRANCH   7   8
ENDBRANCH   1   7
BRANCH   6  13
ATOM     13  N   LIG d   1       3.395  88.319 116.167  0.00  0.00    -0.311 N 
ATOM     14  C   LIG d   1       3.009  89.556 115.861  0.00  0.00     0.210 C 
ATOM     15  C   LIG d   1       3.578  90.654 116.765  0.00  0.00     0.109 C 
ATOM     16  O   LIG d   1       2.223  89.846 114.946  0.00  0.00    -0.276 OA
ATOM     17  H   LIG d   1       4.008  88.172 116.945  0.00  0.00     0.149 HD
ENDBRANCH   6  13
BRANCH   5  18
ATOM     18  N   LIG d   1       0.498  87.425 115.789  0.00  0.00     0.381 N 
ATOM     19  H   LIG d   1       0.521  87.855 114.886  0.00  0.00    -0.090 HD
ATOM     20  H   LIG d   1       0.562  88.148 116.484  0.00  0.00    -0.090 HD
ATOM     21  H   LIG d   1      -0.353  86.919 115.902  0.00  0.00    -0.090 HD
ENDBRANCH   5  18
BRANCH   3  22
ATOM     22  C   LIG d   1       2.122  82.984 115.032  0.00  0.00     0.382 C 
ATOM     23  O   LIG d   1       1.757  82.357 116.056  0.00  0.00    -0.241 OA
ATOM     24  O   LIG d   1       2.268  82.371 113.957  0.00  0.00    -0.241 OA
ENDBRANCH   3  22
TORSDOF 7
ENDMDL
MODEL 8
REMARK VINA RESULT:      -4.5     28.784     31.641
REMARK  7 active torsions:
REMARK  status: ('A' for Active; 'I' for Inactive)
REMARK    1  A    between atoms: C_2  and  C_3 
REMARK    2  A    between atoms: C_3  and  O_6 
REMARK    3  A    between atoms: C_3  and  C_4 
REMARK    4  A    between atoms: C_7  and  O_6 
REMARK    5  A    between atoms: C_9  and  C_10 
REMARK    6  A    between atoms: N_15  and  C_14 
REMARK    7  A    between atoms: N_20  and  C_19 
REMARK       I    between atoms: C_22  and  N_20 
ROOT
ATOM      1  C   LIG d   1      11.531  78.647 114.964  0.00  0.00     0.161 C 
ATOM      2  C   LIG d   1      10.305  78.099 114.554  0.00  0.00     0.016 C 
ATOM      3  C   LIG d   1       9.056  78.508 115.076  0.00  0.00     0.038 C 
ATOM      4  C   LIG d   1       8.938  79.606 115.941  0.00  0.00     0.028 C 
ATOM      5  C   LIG d   1      10.192  79.862 116.770  0.00  0.00    -0.047 C 
ATOM      6  C   LIG d   1      11.414  79.922 115.825  0.00  0.00     0.091 C 
ENDROOT
BRANCH   1   7
ATOM      7  O   LIG d   1      12.365  78.894 113.815  0.00  0.00    -0.368 OA
BRANCH   7   8
ATOM      8  C   LIG d   1      12.492  80.277 113.404  0.00  0.00     0.119 C 
BRANCH   8   9
ATOM      9  C   LIG d   1      11.842  80.409 112.013  0.00  0.00     0.028 C 
ATOM     10  C   LIG d   1      10.853  81.584 111.937  0.00  0.00     0.006 C 
ENDBRANCH   8   9
BRANCH   8  11
ATOM     11  C   LIG d   1      13.960  80.667 113.204  0.00  0.00     0.028 C 
ATOM     12  C   LIG d   1      14.832  79.489 112.742  0.00  0.00     0.006 C 
ENDBRANCH   8  11
ENDBRANCH   7   8
ENDBRANCH   1   7
BRANCH   6  13
ATOM     13  N   LIG d   1      12.694  80.086 116.563  0.00  0.00    -0.311 N 
ATOM     14  C   LIG d   1      13.264  81.268 116.788  0.00  0.00     0.210 C 
ATOM     15  C   LIG d   1      14.591  81.211 117.551  0.00  0.00     0.109 C 
ATOM     16  O   LIG d   1      12.781  82.361 116.457  0.00  0.00    -0.276 OA
ATOM     17  H   LIG d   1      13.139  79.253 116.895  0.00  0.00     0.149 HD
ENDBRANCH   6  13
BRANCH   5  18
ATOM     18  N   LIG d   1       9.981  81.112 117.523  0.00  0.00     0.381 N 
ATOM     19  H   LIG d   1       9.394  81.729 116.998  0.00  0.00    -0.090 HD
ATOM     20  H   LIG d   1      10.869  81.563 117.661  0.00  0.00    -0.090 HD
ATOM     21  H   LIG d   1       9.561  80.913 118.404  0.00  0.00    -0.090 HD
ENDBRANCH   5  18
BRANCH   3  22
ATOM     22  C   LIG d   1       7.912  77.789 114.764  0.00  0.00     0.382 C 
ATOM     23  O   LIG d   1       8.001  76.584 114.428  0.00  0.00    -0.241 OA
ATOM     24  O   LIG d   1       6.796  78.343 114.771  0.00  0.00    -0.241 OA
ENDBRANCH   3  22
TORSDOF 7
ENDMDL
MODEL 9
REMARK VINA RESULT:      -4.5     28.443     31.322
REMARK  7 active torsions:
REMARK  status: ('A' for Active; 'I' for Inactive)
REMARK    1  A    between atoms: C_2  and  C_3 
REMARK    2  A    between atoms: C_3  and  O_6 
REMARK    3  A    between atoms: C_3  and  C_4 
REMARK    4  A    between atoms: C_7  and  O_6 
REMARK    5  A    between atoms: C_9  and  C_10 
REMARK    6  A    between atoms: N_15  and  C_14 
REMARK    7  A    between atoms: N_20  and  C_19 
REMARK       I    between atoms: C_22  and  N_20 
ROOT
ATOM      1  C   LIG d   1      10.743  79.586 114.030  0.00  0.00     0.161 C 
ATOM      2  C   LIG d   1       9.437  79.639 114.544  0.00  0.00     0.016 C 
ATOM      3  C   LIG d   1       8.807  78.545 115.181  0.00  0.00     0.038 C 
ATOM      4  C   LIG d   1       9.500  77.363 115.483  0.00  0.00     0.028 C 
ATOM      5  C   LIG d   1      10.661  77.083 114.535  0.00  0.00    -0.047 C 
ATOM      6  C   LIG d   1      11.554  78.342 114.448  0.00  0.00     0.091 C 
ENDROOT
BRANCH   1   7
ATOM      7  O   LIG d   1      11.455  80.789 114.381  0.00  0.00    -0.368 OA
BRANCH   7   8
ATOM      8  C   LIG d   1      11.617  81.044 115.798  0.00  0.00     0.119 C 
BRANCH   8   9
ATOM      9  C   LIG d   1      11.284  82.529 116.042  0.00  0.00     0.028 C 
ATOM     10  C   LIG d   1      10.056  82.994 115.242  0.00  0.00     0.006 C 
ENDBRANCH   8   9
BRANCH   8  11
ATOM     11  C   LIG d   1      13.076  80.879 116.231  0.00  0.00     0.028 C 
ATOM     12  C   LIG d   1      14.073  81.239 115.117  0.00  0.00     0.006 C 
ENDBRANCH   8  11
ENDBRANCH   7   8
ENDBRANCH   1   7
BRANCH   6  13
ATOM     13  N   LIG d   1      12.667  78.182 113.477  0.00  0.00    -0.311 N 
ATOM     14  C   LIG d   1      13.885  77.768 113.819  0.00  0.00     0.210 C 
ATOM     15  C   LIG d   1      14.891  77.692 112.666  0.00  0.00     0.109 C 
ATOM     16  O   LIG d   1      14.220  77.425 114.963  0.00  0.00    -0.276 OA
ATOM     17  H   LIG d   1      12.474  78.408 112.521  0.00  0.00     0.149 HD
ENDBRANCH   6  13
BRANCH   5  18
ATOM     18  N   LIG d   1      11.378  75.899 115.046  0.00  0.00     0.381 N 
ATOM     19  H   LIG d   1      12.006  76.173 115.775  0.00  0.00    -0.090 HD
ATOM     20  H   LIG d   1      11.917  75.498 114.299  0.00  0.00    -0.090 HD
ATOM     21  H   LIG d   1      10.727  75.230 115.393  0.00  0.00    -0.090 HD
ENDBRANCH   5  18
BRANCH   3  22
ATOM     22  C   LIG d   1       7.456  78.613 115.487  0.00  0.00     0.382 C 
ATOM     23  O   LIG d   1       7.054  79.400 116.377  0.00  0.00    -0.241 OA
ATOM     24  O   LIG d   1       6.640  77.865 114.915  0.00  0.00    -0.241 OA
ENDBRANCH   3  22
TORSDOF 7
ENDMDL
