MODEL 1
REMARK VINA RESULT:      -5.2      0.000      0.000
REMARK  7 active torsions:
REMARK  status: ('A' for Active; 'I' for Inactive)
REMARK    1  A    between atoms: C_2  and  C_3 
REMARK    2  A    between atoms: C_3  and  O_6 
REMARK    3  A    between atoms: C_3  and  C_4 
REMARK    4  A    between atoms: C_7  and  O_6 
REMARK    5  A    between atoms: C_9  and  C_10 
REMARK    6  A    between atoms: N_15  and  C_14 
REMARK    7  A    between atoms: N_20  and  C_19 
REMARK       I    between atoms: C_22  and  N_20 
ROOT
ATOM      1  C   LIG d   1      -5.455  75.042 116.734  0.00  0.00     0.161 C 
ATOM      2  C   LIG d   1      -6.252  73.909 116.499  0.00  0.00     0.016 C 
ATOM      3  C   LIG d   1      -7.603  73.809 116.906  0.00  0.00     0.038 C 
ATOM      4  C   LIG d   1      -8.296  74.902 117.446  0.00  0.00     0.028 C 
ATOM      5  C   LIG d   1      -7.392  75.900 118.162  0.00  0.00    -0.047 C 
ATOM      6  C   LIG d   1      -6.227  76.285 117.222  0.00  0.00     0.091 C 
ENDROOT
BRANCH   1   7
ATOM      7  O   LIG d   1      -4.694  75.357 115.551  0.00  0.00    -0.368 OA
BRANCH   7   8
ATOM      8  C   LIG d   1      -3.307  74.939 115.556  0.00  0.00     0.119 C 
BRANCH   8   9
ATOM      9  C   LIG d   1      -2.830  74.933 117.022  0.00  0.00     0.028 C 
ATOM     10  C   LIG d   1      -1.460  74.255 117.191  0.00  0.00     0.006 C 
ENDBRANCH   8   9
BRANCH   8  11
ATOM     11  C   LIG d   1      -2.415  75.961 114.845  0.00  0.00     0.028 C 
ATOM     12  C   LIG d   1      -2.591  77.387 115.389  0.00  0.00     0.006 C 
ENDBRANCH   8  11
ENDBRANCH   7   8
ENDBRANCH   1   7
BRANCH   6  13
ATOM     13  N   LIG d   1      -5.249  77.194 117.875  0.00  0.00    -0.311 N 
ATOM     14  C   LIG d   1      -5.240  78.513 117.696  0.00  0.00     0.210 C 
ATOM     15  C   LIG d   1      -4.134  79.261 118.447  0.00  0.00     0.109 C 
ATOM     16  O   LIG d   1      -6.064  79.139 117.011  0.00  0.00    -0.276 OA
ATOM     17  H   LIG d   1      -4.564  76.773 118.473  0.00  0.00     0.149 HD
ENDBRANCH   6  13
BRANCH   5  18
ATOM     18  N   LIG d   1      -8.224  77.053 118.555  0.00  0.00     0.381 N 
ATOM     19  H   LIG d   1      -8.832  76.793 119.305  0.00  0.00    -0.090 HD
ATOM     20  H   LIG d   1      -8.790  77.328 117.771  0.00  0.00    -0.090 HD
ATOM     21  H   LIG d   1      -7.643  77.812 118.837  0.00  0.00    -0.090 HD
ENDBRANCH   5  18
BRANCH   3  22
ATOM     22  C   LIG d   1      -8.261  72.593 116.811  0.00  0.00     0.382 C 
ATOM     23  O   LIG d   1      -9.408  72.461 117.302  0.00  0.00    -0.241 OA
ATOM     24  O   LIG d   1      -7.706  71.614 116.278  0.00  0.00    -0.241 OA
ENDBRANCH   3  22
TORSDOF 7
ENDMDL
MODEL 2
REMARK VINA RESULT:      -5.1      3.510      7.596
REMARK  7 active torsions:
REMARK  status: ('A' for Active; 'I' for Inactive)
REMARK    1  A    between atoms: C_2  and  C_3 
REMARK    2  A    between atoms: C_3  and  O_6 
REMARK    3  A    between atoms: C_3  and  C_4 
REMARK    4  A    between atoms: C_7  and  O_6 
REMARK    5  A    between atoms: C_9  and  C_10 
REMARK    6  A    between atoms: N_15  and  C_14 
REMARK    7  A    between atoms: N_20  and  C_19 
REMARK       I    between atoms: C_22  and  N_20 
ROOT
ATOM      1  C   LIG d   1      -2.951  79.464 115.630  0.00  0.00     0.161 C 
ATOM      2  C   LIG d   1      -2.815  80.710 114.994  0.00  0.00     0.016 C 
ATOM      3  C   LIG d   1      -2.335  80.861 113.673  0.00  0.00     0.038 C 
ATOM      4  C   LIG d   1      -2.099  79.757 112.839  0.00  0.00     0.028 C 
ATOM      5  C   LIG d   1      -1.741  78.487 113.603  0.00  0.00    -0.047 C 
ATOM      6  C   LIG d   1      -2.804  78.243 114.698  0.00  0.00     0.091 C 
ENDROOT
BRANCH   1   7
ATOM      7  O   LIG d   1      -4.209  79.409 116.333  0.00  0.00    -0.368 OA
BRANCH   7   8
ATOM      8  C   LIG d   1      -4.128  79.333 117.777  0.00  0.00     0.119 C 
BRANCH   8   9
ATOM      9  C   LIG d   1      -4.804  78.018 118.210  0.00  0.00     0.028 C 
ATOM     10  C   LIG d   1      -5.773  77.478 117.144  0.00  0.00     0.006 C 
ENDBRANCH   8   9
BRANCH   8  11
ATOM     11  C   LIG d   1      -4.945  80.446 118.440  0.00  0.00     0.028 C 
ATOM     12  C   LIG d   1      -5.710  81.310 117.425  0.00  0.00     0.006 C 
ENDBRANCH   8  11
ENDBRANCH   7   8
ENDBRANCH   1   7
BRANCH   6  13
ATOM     13  N   LIG d   1      -2.485  77.066 115.547  0.00  0.00    -0.311 N 
ATOM     14  C   LIG d   1      -2.929  75.836 115.292  0.00  0.00     0.210 C 
ATOM     15  C   LIG d   1      -2.498  74.771 116.305  0.00  0.00     0.109 C 
ATOM     16  O   LIG d   1      -3.613  75.521 114.307  0.00  0.00    -0.276 OA
ATOM     17  H   LIG d   1      -1.909  77.226 116.350  0.00  0.00     0.149 HD
ENDBRANCH   6  13
BRANCH   5  18
ATOM     18  N   LIG d   1      -1.657  77.387 112.623  0.00  0.00     0.381 N 
ATOM     19  H   LIG d   1      -1.730  76.507 113.095  0.00  0.00    -0.090 HD
ATOM     20  H   LIG d   1      -0.763  77.426 112.166  0.00  0.00    -0.090 HD
ATOM     21  H   LIG d   1      -2.387  77.473 111.951  0.00  0.00    -0.090 HD
ENDBRANCH   5  18
BRANCH   3  22
ATOM     22  C   LIG d   1      -2.047  82.127 113.187  0.00  0.00     0.382 C 
ATOM     23  O   LIG d   1      -1.715  82.277 111.986  0.00  0.00    -0.241 OA
ATOM     24  O   LIG d   1      -2.073  83.115 113.944  0.00  0.00    -0.241 OA
ENDBRANCH   3  22
TORSDOF 7
ENDMDL
MODEL 3
REMARK VINA RESULT:      -4.8     12.710     16.365
REMARK  7 active torsions:
REMARK  status: ('A' for Active; 'I' for Inactive)
REMARK    1  A    between atoms: C_2  and  C_3 
REMARK    2  A    between atoms: C_3  and  O_6 
REMARK    3  A    between atoms: C_3  and  C_4 
REMARK    4  A    between atoms: C_7  and  O_6 
REMARK    5  A    between atoms: C_9  and  C_10 
REMARK    6  A    between atoms: N_15  and  C_14 
REMARK    7  A    between atoms: N_20  and  C_19 
REMARK       I    between atoms: C_22  and  N_20 
ROOT
ATOM      1  C   LIG d   1       2.451  89.038 115.079  0.00  0.00     0.161 C 
ATOM      2  C   LIG d   1       3.225  90.157 115.428  0.00  0.00     0.016 C 
ATOM      3  C   LIG d   1       3.070  90.862 116.644  0.00  0.00     0.038 C 
ATOM      4  C   LIG d   1       2.228  90.399 117.667  0.00  0.00     0.028 C 
ATOM      5  C   LIG d   1       1.060  89.562 117.158  0.00  0.00    -0.047 C 
ATOM      6  C   LIG d   1       1.605  88.452 116.229  0.00  0.00     0.091 C 
ENDROOT
BRANCH   1   7
ATOM      7  O   LIG d   1       3.296  88.018 114.510  0.00  0.00    -0.368 OA
BRANCH   7   8
ATOM      8  C   LIG d   1       3.381  87.995 113.064  0.00  0.00     0.119 C 
BRANCH   8   9
ATOM      9  C   LIG d   1       2.545  86.799 112.570  0.00  0.00     0.028 C 
ATOM     10  C   LIG d   1       3.135  85.449 113.011  0.00  0.00     0.006 C 
ENDBRANCH   8   9
BRANCH   8  11
ATOM     11  C   LIG d   1       4.811  87.712 112.594  0.00  0.00     0.028 C 
ATOM     12  C   LIG d   1       5.815  88.776 113.067  0.00  0.00     0.006 C 
ENDBRANCH   8  11
ENDBRANCH   7   8
ENDBRANCH   1   7
BRANCH   6  13
ATOM     13  N   LIG d   1       0.520  87.639 115.621  0.00  0.00    -0.311 N 
ATOM     14  C   LIG d   1       0.513  86.307 115.624  0.00  0.00     0.210 C 
ATOM     15  C   LIG d   1      -0.689  85.665 114.925  0.00  0.00     0.109 C 
ATOM     16  O   LIG d   1       1.371  85.596 116.168  0.00  0.00    -0.276 OA
ATOM     17  H   LIG d   1      -0.232  88.135 115.185  0.00  0.00     0.149 HD
ENDBRANCH   6  13
BRANCH   5  18
ATOM     18  N   LIG d   1       0.345  89.032 118.334  0.00  0.00     0.381 N 
ATOM     19  H   LIG d   1      -0.636  88.993 118.145  0.00  0.00    -0.090 HD
ATOM     20  H   LIG d   1       0.493  89.652 119.111  0.00  0.00    -0.090 HD
ATOM     21  H   LIG d   1       0.684  88.122 118.557  0.00  0.00    -0.090 HD
ENDBRANCH   5  18
BRANCH   3  22
ATOM     22  C   LIG d   1       3.733  92.065 116.830  0.00  0.00     0.382 C 
ATOM     23  O   LIG d   1       3.129  93.149 116.645  0.00  0.00    -0.241 OA
ATOM     24  O   LIG d   1       4.940  92.080 117.139  0.00  0.00    -0.241 OA
ENDBRANCH   3  22
TORSDOF 7
ENDMDL
MODEL 4
REMARK VINA RESULT:      -4.8      1.561      4.668
REMARK  7 active torsions:
REMARK  status: ('A' for Active; 'I' for Inactive)
REMARK    1  A    between atoms: C_2  and  C_3 
REMARK    2  A    between atoms: C_3  and  O_6 
REMARK    3  A    between atoms: C_3  and  C_4 
REMARK    4  A    between atoms: C_7  and  O_6 
REMARK    5  A    between atoms: C_9  and  C_10 
REMARK    6  A    between atoms: N_15  and  C_14 
REMARK    7  A    between atoms: N_20  and  C_19 
REMARK       I    between atoms: C_22  and  N_20 
ROOT
ATOM      1  C   LIG d   1      -5.027  75.826 116.569  0.00  0.00     0.161 C 
ATOM      2  C   LIG d   1      -4.768  77.182 116.828  0.00  0.00     0.016 C 
ATOM      3  C   LIG d   1      -5.729  78.068 117.369  0.00  0.00     0.038 C 
ATOM      4  C   LIG d   1      -6.975  77.619 117.830  0.00  0.00     0.028 C 
ATOM      5  C   LIG d   1      -7.464  76.359 117.125  0.00  0.00    -0.047 C 
ATOM      6  C   LIG d   1      -6.345  75.293 117.169  0.00  0.00     0.091 C 
ENDROOT
BRANCH   1   7
ATOM      7  O   LIG d   1      -3.915  75.023 117.010  0.00  0.00    -0.368 OA
BRANCH   7   8
ATOM      8  C   LIG d   1      -2.992  74.591 115.980  0.00  0.00     0.119 C 
BRANCH   8   9
ATOM      9  C   LIG d   1      -1.580  74.579 116.598  0.00  0.00     0.028 C 
ATOM     10  C   LIG d   1      -1.573  74.024 118.032  0.00  0.00     0.006 C 
ENDBRANCH   8   9
BRANCH   8  11
ATOM     11  C   LIG d   1      -2.924  75.604 114.833  0.00  0.00     0.028 C 
ATOM     12  C   LIG d   1      -1.583  76.353 114.778  0.00  0.00     0.006 C 
ENDBRANCH   8  11
ENDBRANCH   7   8
ENDBRANCH   1   7
BRANCH   6  13
ATOM     13  N   LIG d   1      -6.710  74.057 116.428  0.00  0.00    -0.311 N 
ATOM     14  C   LIG d   1      -7.331  73.022 116.989  0.00  0.00     0.210 C 
ATOM     15  C   LIG d   1      -7.596  71.840 116.051  0.00  0.00     0.109 C 
ATOM     16  O   LIG d   1      -7.717  72.983 118.167  0.00  0.00    -0.276 OA
ATOM     17  H   LIG d   1      -6.461  74.017 115.459  0.00  0.00     0.149 HD
ENDBRANCH   6  13
BRANCH   5  18
ATOM     18  N   LIG d   1      -8.703  75.924 117.797  0.00  0.00     0.381 N 
ATOM     19  H   LIG d   1      -8.482  75.506 118.678  0.00  0.00    -0.090 HD
ATOM     20  H   LIG d   1      -9.158  75.234 117.225  0.00  0.00    -0.090 HD
ATOM     21  H   LIG d   1      -9.308  76.704 117.933  0.00  0.00    -0.090 HD
ENDBRANCH   5  18
BRANCH   3  22
ATOM     22  C   LIG d   1      -5.460  79.428 117.415  0.00  0.00     0.382 C 
ATOM     23  O   LIG d   1      -4.621  79.928 116.627  0.00  0.00    -0.241 OA
ATOM     24  O   LIG d   1      -6.013  80.152 118.263  0.00  0.00    -0.241 OA
ENDBRANCH   3  22
TORSDOF 7
ENDMDL
MODEL 5
REMARK VINA RESULT:      -4.6     11.864     15.377
REMARK  7 active torsions:
REMARK  status: ('A' for Active; 'I' for Inactive)
REMARK    1  A    between atoms: C_2  and  C_3 
REMARK    2  A    between atoms: C_3  and  O_6 
REMARK    3  A    between atoms: C_3  and  C_4 
REMARK    4  A    between atoms: C_7  and  O_6 
REMARK    5  A    between atoms: C_9  and  C_10 
REMARK    6  A    between atoms: N_15  and  C_14 
REMARK    7  A    between atoms: N_20  and  C_19 
REMARK       I    between atoms: C_22  and  N_20 
ROOT
ATOM      1  C   LIG d   1       1.910  87.469 114.848  0.00  0.00     0.161 C 
ATOM      2  C   LIG d   1       2.979  87.347 113.945  0.00  0.00     0.016 C 
ATOM      3  C   LIG d   1       3.997  88.318 113.807  0.00  0.00     0.038 C 
ATOM      4  C   LIG d   1       4.098  89.414 114.677  0.00  0.00     0.028 C 
ATOM      5  C   LIG d   1       2.761  89.841 115.272  0.00  0.00    -0.047 C 
ATOM      6  C   LIG d   1       2.065  88.603 115.883  0.00  0.00     0.091 C 
ENDROOT
BRANCH   1   7
ATOM      7  O   LIG d   1       1.687  86.210 115.514  0.00  0.00    -0.368 OA
BRANCH   7   8
ATOM      8  C   LIG d   1       0.966  85.207 114.757  0.00  0.00     0.119 C 
BRANCH   8   9
ATOM      9  C   LIG d   1      -0.485  85.701 114.598  0.00  0.00     0.028 C 
ATOM     10  C   LIG d   1      -0.828  86.054 113.141  0.00  0.00     0.006 C 
ENDBRANCH   8   9
BRANCH   8  11
ATOM     11  C   LIG d   1       0.864  83.891 115.532  0.00  0.00     0.028 C 
ATOM     12  C   LIG d   1      -0.590  83.465 115.794  0.00  0.00     0.006 C 
ENDBRANCH   8  11
ENDBRANCH   7   8
ENDBRANCH   1   7
BRANCH   6  13
ATOM     13  N   LIG d   1       0.712  88.917 116.412  0.00  0.00    -0.311 N 
ATOM     14  C   LIG d   1       0.481  89.254 117.680  0.00  0.00     0.210 C 
ATOM     15  C   LIG d   1      -0.989  89.517 118.021  0.00  0.00     0.109 C 
ATOM     16  O   LIG d   1       1.357  89.391 118.546  0.00  0.00    -0.276 OA
ATOM     17  H   LIG d   1      -0.054  88.860 115.770  0.00  0.00     0.149 HD
ENDBRANCH   6  13
BRANCH   5  18
ATOM     18  N   LIG d   1       3.031  90.900 116.263  0.00  0.00     0.381 N 
ATOM     19  H   LIG d   1       2.830  90.562 117.183  0.00  0.00    -0.090 HD
ATOM     20  H   LIG d   1       2.429  91.682 116.075  0.00  0.00    -0.090 HD
ATOM     21  H   LIG d   1       3.984  91.184 116.206  0.00  0.00    -0.090 HD
ENDBRANCH   5  18
BRANCH   3  22
ATOM     22  C   LIG d   1       4.905  88.219 112.764  0.00  0.00     0.382 C 
ATOM     23  O   LIG d   1       4.707  87.398 111.836  0.00  0.00    -0.241 OA
ATOM     24  O   LIG d   1       5.942  88.908 112.762  0.00  0.00    -0.241 OA
ENDBRANCH   3  22
TORSDOF 7
ENDMDL
MODEL 6
REMARK VINA RESULT:      -4.6     13.263     16.039
REMARK  7 active torsions:
REMARK  status: ('A' for Active; 'I' for Inactive)
REMARK    1  A    between atoms: C_2  and  C_3 
REMARK    2  A    between atoms: C_3  and  O_6 
REMARK    3  A    between atoms: C_3  and  C_4 
REMARK    4  A    between atoms: C_7  and  O_6 
REMARK    5  A    between atoms: C_9  and  C_10 
REMARK    6  A    between atoms: N_15  and  C_14 
REMARK    7  A    between atoms: N_20  and  C_19 
REMARK       I    between atoms: C_22  and  N_20 
ROOT
ATOM      1  C   LIG d   1       3.457  86.785 115.716  0.00  0.00     0.161 C 
ATOM      2  C   LIG d   1       3.203  88.024 115.104  0.00  0.00     0.016 C 
ATOM      3  C   LIG d   1       4.192  89.018 114.920  0.00  0.00     0.038 C 
ATOM      4  C   LIG d   1       5.545  88.778 115.200  0.00  0.00     0.028 C 
ATOM      5  C   LIG d   1       5.763  87.729 116.285  0.00  0.00    -0.047 C 
ATOM      6  C   LIG d   1       4.951  86.462 115.927  0.00  0.00     0.091 C 
ENDROOT
BRANCH   1   7
ATOM      7  O   LIG d   1       2.818  85.732 114.968  0.00  0.00    -0.368 OA
BRANCH   7   8
ATOM      8  C   LIG d   1       2.469  86.044 113.597  0.00  0.00     0.119 C 
BRANCH   8   9
ATOM      9  C   LIG d   1       1.229  85.205 113.232  0.00  0.00     0.028 C 
ATOM     10  C   LIG d   1       0.133  86.044 112.553  0.00  0.00     0.006 C 
ENDBRANCH   8   9
BRANCH   8  11
ATOM     11  C   LIG d   1       3.564  85.591 112.627  0.00  0.00     0.028 C 
ATOM     12  C   LIG d   1       4.149  86.751 111.806  0.00  0.00     0.006 C 
ENDBRANCH   8  11
ENDBRANCH   7   8
ENDBRANCH   1   7
BRANCH   6  13
ATOM     13  N   LIG d   1       5.041  85.416 116.979  0.00  0.00    -0.311 N 
ATOM     14  C   LIG d   1       5.264  84.130 116.716  0.00  0.00     0.210 C 
ATOM     15  C   LIG d   1       5.299  83.215 117.944  0.00  0.00     0.109 C 
ATOM     16  O   LIG d   1       5.469  83.664 115.585  0.00  0.00    -0.276 OA
ATOM     17  H   LIG d   1       4.917  85.711 117.928  0.00  0.00     0.149 HD
ENDBRANCH   6  13
BRANCH   5  18
ATOM     18  N   LIG d   1       7.213  87.478 116.378  0.00  0.00     0.381 N 
ATOM     19  H   LIG d   1       7.715  88.325 116.199  0.00  0.00    -0.090 HD
ATOM     20  H   LIG d   1       7.473  86.804 115.680  0.00  0.00    -0.090 HD
ATOM     21  H   LIG d   1       7.442  87.133 117.285  0.00  0.00    -0.090 HD
ENDBRANCH   5  18
BRANCH   3  22
ATOM     22  C   LIG d   1       3.823  90.282 114.487  0.00  0.00     0.382 C 
ATOM     23  O   LIG d   1       3.845  90.557 113.263  0.00  0.00    -0.241 OA
ATOM     24  O   LIG d   1       3.510  91.165 115.308  0.00  0.00    -0.241 OA
ENDBRANCH   3  22
TORSDOF 7
ENDMDL
MODEL 7
REMARK VINA RESULT:      -4.6     11.921     14.871
REMARK  7 active torsions:
REMARK  status: ('A' for Active; 'I' for Inactive)
REMARK    1  A    between atoms: C_2  and  C_3 
REMARK    2  A    between atoms: C_3  and  O_6 
REMARK    3  A    between atoms: C_3  and  C_4 
REMARK    4  A    between atoms: C_7  and  O_6 
REMARK    5  A    between atoms: C_9  and  C_10 
REMARK    6  A    between atoms: N_15  and  C_14 
REMARK    7  A    between atoms: N_20  and  C_19 
REMARK       I    between atoms: C_22  and  N_20 
ROOT
ATOM      1  C   LIG d   1       3.528  85.332 113.524  0.00  0.00     0.161 C 
ATOM      2  C   LIG d   1       3.679  86.629 113.006  0.00  0.00     0.016 C 
ATOM      3  C   LIG d   1       4.331  87.674 113.700  0.00  0.00     0.038 C 
ATOM      4  C   LIG d   1       5.013  87.450 114.906  0.00  0.00     0.028 C 
ATOM      5  C   LIG d   1       4.455  86.279 115.709  0.00  0.00    -0.047 C 
ATOM      6  C   LIG d   1       4.362  85.040 114.789  0.00  0.00     0.091 C 
ENDROOT
BRANCH   1   7
ATOM      7  O   LIG d   1       3.814  84.360 112.500  0.00  0.00    -0.368 OA
BRANCH   7   8
ATOM      8  C   LIG d   1       2.666  83.757 111.854  0.00  0.00     0.119 C 
BRANCH   8   9
ATOM      9  C   LIG d   1       1.420  84.133 112.680  0.00  0.00     0.028 C 
ATOM     10  C   LIG d   1       0.282  84.688 111.806  0.00  0.00     0.006 C 
ENDBRANCH   8   9
BRANCH   8  11
ATOM     11  C   LIG d   1       2.738  82.228 111.902  0.00  0.00     0.028 C 
ATOM     12  C   LIG d   1       2.086  81.640 113.163  0.00  0.00     0.006 C 
ENDBRANCH   8  11
ENDBRANCH   7   8
ENDBRANCH   1   7
BRANCH   6  13
ATOM     13  N   LIG d   1       3.747  83.872 115.473  0.00  0.00    -0.311 N 
ATOM     14  C   LIG d   1       4.457  82.904 116.050  0.00  0.00     0.210 C 
ATOM     15  C   LIG d   1       3.626  81.782 116.681  0.00  0.00     0.109 C 
ATOM     16  O   LIG d   1       5.694  82.884 116.127  0.00  0.00    -0.276 OA
ATOM     17  H   LIG d   1       2.747  83.825 115.485  0.00  0.00     0.149 HD
ENDBRANCH   6  13
BRANCH   5  18
ATOM     18  N   LIG d   1       5.342  86.073 116.869  0.00  0.00     0.381 N 
ATOM     19  H   LIG d   1       6.236  85.746 116.559  0.00  0.00    -0.090 HD
ATOM     20  H   LIG d   1       4.940  85.371 117.465  0.00  0.00    -0.090 HD
ATOM     21  H   LIG d   1       5.449  86.925 117.373  0.00  0.00    -0.090 HD
ENDBRANCH   5  18
BRANCH   3  22
ATOM     22  C   LIG d   1       4.271  88.969 113.208  0.00  0.00     0.382 C 
ATOM     23  O   LIG d   1       3.159  89.527 113.049  0.00  0.00    -0.241 OA
ATOM     24  O   LIG d   1       5.312  89.569 112.880  0.00  0.00    -0.241 OA
ENDBRANCH   3  22
TORSDOF 7
ENDMDL
MODEL 8
REMARK VINA RESULT:      -4.5      7.757     10.189
REMARK  7 active torsions:
REMARK  status: ('A' for Active; 'I' for Inactive)
REMARK    1  A    between atoms: C_2  and  C_3 
REMARK    2  A    between atoms: C_3  and  O_6 
REMARK    3  A    between atoms: C_3  and  C_4 
REMARK    4  A    between atoms: C_7  and  O_6 
REMARK    5  A    between atoms: C_9  and  C_10 
REMARK    6  A    between atoms: N_15  and  C_14 
REMARK    7  A    between atoms: N_20  and  C_19 
REMARK       I    between atoms: C_22  and  N_20 
ROOT
ATOM      1  C   LIG d   1       1.003  81.303 112.970  0.00  0.00     0.161 C 
ATOM      2  C   LIG d   1      -0.337  81.282 112.548  0.00  0.00     0.016 C 
ATOM      3  C   LIG d   1      -1.429  81.147 113.435  0.00  0.00     0.038 C 
ATOM      4  C   LIG d   1      -1.262  81.177 114.828  0.00  0.00     0.028 C 
ATOM      5  C   LIG d   1       0.109  80.689 115.283  0.00  0.00    -0.047 C 
ATOM      6  C   LIG d   1       1.200  81.448 114.494  0.00  0.00     0.091 C 
ENDROOT
BRANCH   1   7
ATOM      7  O   LIG d   1       1.719  82.341 112.272  0.00  0.00    -0.368 OA
BRANCH   7   8
ATOM      8  C   LIG d   1       1.639  83.668 112.848  0.00  0.00     0.119 C 
BRANCH   8   9
ATOM      9  C   LIG d   1       0.971  84.586 111.805  0.00  0.00     0.028 C 
ATOM     10  C   LIG d   1      -0.469  84.963 112.193  0.00  0.00     0.006 C 
ENDBRANCH   8   9
BRANCH   8  11
ATOM     11  C   LIG d   1       3.033  84.261 113.076  0.00  0.00     0.028 C 
ATOM     12  C   LIG d   1       3.567  85.017 111.849  0.00  0.00     0.006 C 
ENDBRANCH   8  11
ENDBRANCH   7   8
ENDBRANCH   1   7
BRANCH   6  13
ATOM     13  N   LIG d   1       2.570  80.971 114.818  0.00  0.00    -0.311 N 
ATOM     14  C   LIG d   1       3.360  81.564 115.711  0.00  0.00     0.210 C 
ATOM     15  C   LIG d   1       4.741  80.923 115.879  0.00  0.00     0.109 C 
ATOM     16  O   LIG d   1       3.036  82.540 116.404  0.00  0.00    -0.276 OA
ATOM     17  H   LIG d   1       2.901  80.166 114.324  0.00  0.00     0.149 HD
ENDBRANCH   6  13
BRANCH   5  18
ATOM     18  N   LIG d   1       0.196  80.902 116.740  0.00  0.00     0.381 N 
ATOM     19  H   LIG d   1       0.753  81.711 116.932  0.00  0.00    -0.090 HD
ATOM     20  H   LIG d   1       0.644  80.105 117.159  0.00  0.00    -0.090 HD
ATOM     21  H   LIG d   1      -0.716  81.019 117.123  0.00  0.00    -0.090 HD
ENDBRANCH   5  18
BRANCH   3  22
ATOM     22  C   LIG d   1      -2.704  80.942 112.929  0.00  0.00     0.382 C 
ATOM     23  O   LIG d   1      -3.518  81.894 112.875  0.00  0.00    -0.241 OA
ATOM     24  O   LIG d   1      -3.064  79.805 112.568  0.00  0.00    -0.241 OA
ENDBRANCH   3  22
TORSDOF 7
ENDMDL
MODEL 9
REMARK VINA RESULT:      -4.5     10.597     14.138
REMARK  7 active torsions:
REMARK  status: ('A' for Active; 'I' for Inactive)
REMARK    1  A    between atoms: C_2  and  C_3 
REMARK    2  A    between atoms: C_3  and  O_6 
REMARK    3  A    between atoms: C_3  and  C_4 
REMARK    4  A    between atoms: C_7  and  O_6 
REMARK    5  A    between atoms: C_9  and  C_10 
REMARK    6  A    between atoms: N_15  and  C_14 
REMARK    7  A    between atoms: N_20  and  C_19 
REMARK       I    between atoms: C_22  and  N_20 
ROOT
ATOM      1  C   LIG d   1       1.863  85.556 113.476  0.00  0.00     0.161 C 
ATOM      2  C   LIG d   1       2.292  86.818 113.033  0.00  0.00     0.016 C 
ATOM      3  C   LIG d   1       3.562  87.360 113.337  0.00  0.00     0.038 C 
ATOM      4  C   LIG d   1       4.553  86.608 113.984  0.00  0.00     0.028 C 
ATOM      5  C   LIG d   1       3.991  85.517 114.890  0.00  0.00    -0.047 C 
ATOM      6  C   LIG d   1       2.972  84.675 114.089  0.00  0.00     0.091 C 
ENDROOT
BRANCH   1   7
ATOM      7  O   LIG d   1       1.206  84.858 112.401  0.00  0.00    -0.368 OA
BRANCH   7   8
ATOM      8  C   LIG d   1      -0.236  84.751 112.497  0.00  0.00     0.119 C 
BRANCH   8   9
ATOM      9  C   LIG d   1      -0.642  85.229 113.905  0.00  0.00     0.028 C 
ATOM     10  C   LIG d   1      -1.278  84.109 114.745  0.00  0.00     0.006 C 
ENDBRANCH   8   9
BRANCH   8  11
ATOM     11  C   LIG d   1      -0.693  83.291 112.418  0.00  0.00     0.028 C 
ATOM     12  C   LIG d   1       0.371  82.366 111.806  0.00  0.00     0.006 C 
ENDBRANCH   8  11
ENDBRANCH   7   8
ENDBRANCH   1   7
BRANCH   6  13
ATOM     13  N   LIG d   1       2.312  83.639 114.925  0.00  0.00    -0.311 N 
ATOM     14  C   LIG d   1       2.504  82.331 114.759  0.00  0.00     0.210 C 
ATOM     15  C   LIG d   1       1.711  81.434 115.715  0.00  0.00     0.109 C 
ATOM     16  O   LIG d   1       3.281  81.830 113.932  0.00  0.00    -0.276 OA
ATOM     17  H   LIG d   1       1.689  83.958 115.641  0.00  0.00     0.149 HD
ENDBRANCH   6  13
BRANCH   5  18
ATOM     18  N   LIG d   1       5.129  84.724 115.392  0.00  0.00     0.381 N 
ATOM     19  H   LIG d   1       4.873  84.266 116.244  0.00  0.00    -0.090 HD
ATOM     20  H   LIG d   1       5.897  85.343 115.585  0.00  0.00    -0.090 HD
ATOM     21  H   LIG d   1       5.400  84.049 114.711  0.00  0.00    -0.090 HD
ENDBRANCH   5  18
BRANCH   3  22
ATOM     22  C   LIG d   1       3.837  88.684 113.028  0.00  0.00     0.382 C 
ATOM     23  O   LIG d   1       5.017  89.041 112.795  0.00  0.00    -0.241 OA
ATOM     24  O   LIG d   1       2.926  89.533 113.023  0.00  0.00    -0.241 OA
ENDBRANCH   3  22
TORSDOF 7
ENDMDL
