MODEL 1
REMARK VINA RESULT:      -4.7      0.000      0.000
REMARK  7 active torsions:
REMARK  status: ('A' for Active; 'I' for Inactive)
REMARK    1  A    between atoms: C_2  and  C_3 
REMARK    2  A    between atoms: C_3  and  O_6 
REMARK    3  A    between atoms: C_3  and  C_4 
REMARK    4  A    between atoms: C_7  and  O_6 
REMARK    5  A    between atoms: C_9  and  C_10 
REMARK    6  A    between atoms: N_15  and  C_14 
REMARK    7  A    between atoms: N_20  and  C_19 
REMARK       I    between atoms: C_22  and  N_20 
ROOT
ATOM      1  C   LIG d   1       1.927  86.166 114.120  0.00  0.00     0.161 C 
ATOM      2  C   LIG d   1       1.988  87.569 114.127  0.00  0.00     0.016 C 
ATOM      3  C   LIG d   1       2.486  88.321 115.215  0.00  0.00     0.038 C 
ATOM      4  C   LIG d   1       3.102  87.711 116.318  0.00  0.00     0.028 C 
ATOM      5  C   LIG d   1       2.607  86.293 116.580  0.00  0.00    -0.047 C 
ATOM      6  C   LIG d   1       2.697  85.480 115.269  0.00  0.00     0.091 C 
ENDROOT
BRANCH   1   7
ATOM      7  O   LIG d   1       2.377  85.663 112.846  0.00  0.00    -0.368 OA
BRANCH   7   8
ATOM      8  C   LIG d   1       3.796  85.400 112.729  0.00  0.00     0.119 C 
BRANCH   8   9
ATOM      9  C   LIG d   1       4.393  86.479 111.805  0.00  0.00     0.028 C 
ATOM     10  C   LIG d   1       5.133  87.577 112.587  0.00  0.00     0.006 C 
ENDBRANCH   8   9
BRANCH   8  11
ATOM     11  C   LIG d   1       4.060  84.068 112.021  0.00  0.00     0.028 C 
ATOM     12  C   LIG d   1       2.786  83.227 111.839  0.00  0.00     0.006 C 
ENDBRANCH   8  11
ENDBRANCH   7   8
ENDBRANCH   1   7
BRANCH   6  13
ATOM     13  N   LIG d   1       2.153  84.104 115.416  0.00  0.00    -0.311 N 
ATOM     14  C   LIG d   1       2.914  83.035 115.643  0.00  0.00     0.210 C 
ATOM     15  C   LIG d   1       2.153  81.709 115.742  0.00  0.00     0.109 C 
ATOM     16  O   LIG d   1       4.143  83.064 115.803  0.00  0.00    -0.276 OA
ATOM     17  H   LIG d   1       1.161  83.995 115.331  0.00  0.00     0.149 HD
ENDBRANCH   6  13
BRANCH   5  18
ATOM     18  N   LIG d   1       3.427  85.728 117.668  0.00  0.00     0.381 N 
ATOM     19  H   LIG d   1       3.536  84.743 117.534  0.00  0.00    -0.090 HD
ATOM     20  H   LIG d   1       2.955  85.877 118.542  0.00  0.00    -0.090 HD
ATOM     21  H   LIG d   1       4.321  86.169 117.686  0.00  0.00    -0.090 HD
ENDBRANCH   5  18
BRANCH   3  22
ATOM     22  C   LIG d   1       2.335  89.700 115.224  0.00  0.00     0.382 C 
ATOM     23  O   LIG d   1       1.393  90.223 115.867  0.00  0.00    -0.241 OA
ATOM     24  O   LIG d   1       3.102  90.424 114.562  0.00  0.00    -0.241 OA
ENDBRANCH   3  22
TORSDOF 7
ENDMDL
MODEL 2
REMARK VINA RESULT:      -4.6      9.177     11.735
REMARK  7 active torsions:
REMARK  status: ('A' for Active; 'I' for Inactive)
REMARK    1  A    between atoms: C_2  and  C_3 
REMARK    2  A    between atoms: C_3  and  O_6 
REMARK    3  A    between atoms: C_3  and  C_4 
REMARK    4  A    between atoms: C_7  and  O_6 
REMARK    5  A    between atoms: C_9  and  C_10 
REMARK    6  A    between atoms: N_15  and  C_14 
REMARK    7  A    between atoms: N_20  and  C_19 
REMARK       I    between atoms: C_22  and  N_20 
ROOT
ATOM      1  C   LIG d   1      -2.788  77.178 116.571  0.00  0.00     0.161 C 
ATOM      2  C   LIG d   1      -3.018  78.201 115.636  0.00  0.00     0.016 C 
ATOM      3  C   LIG d   1      -2.360  78.275 114.386  0.00  0.00     0.038 C 
ATOM      4  C   LIG d   1      -1.534  77.241 113.921  0.00  0.00     0.028 C 
ATOM      5  C   LIG d   1      -0.881  76.437 115.041  0.00  0.00    -0.047 C 
ATOM      6  C   LIG d   1      -1.974  75.982 116.035  0.00  0.00     0.091 C 
ENDROOT
BRANCH   1   7
ATOM      7  O   LIG d   1      -4.043  76.726 117.117  0.00  0.00    -0.368 OA
BRANCH   7   8
ATOM      8  C   LIG d   1      -5.149  76.637 116.186  0.00  0.00     0.119 C 
BRANCH   8   9
ATOM      9  C   LIG d   1      -6.412  77.131 116.918  0.00  0.00     0.028 C 
ATOM     10  C   LIG d   1      -6.273  78.580 117.416  0.00  0.00     0.006 C 
ENDBRANCH   8   9
BRANCH   8  11
ATOM     11  C   LIG d   1      -5.443  75.183 115.806  0.00  0.00     0.028 C 
ATOM     12  C   LIG d   1      -5.037  74.851 114.362  0.00  0.00     0.006 C 
ENDBRANCH   8  11
ENDBRANCH   7   8
ENDBRANCH   1   7
BRANCH   6  13
ATOM     13  N   LIG d   1      -1.410  75.261 117.206  0.00  0.00    -0.311 N 
ATOM     14  C   LIG d   1      -1.248  73.939 117.244  0.00  0.00     0.210 C 
ATOM     15  C   LIG d   1      -0.669  73.397 118.554  0.00  0.00     0.109 C 
ATOM     16  O   LIG d   1      -1.499  73.169 116.305  0.00  0.00    -0.276 OA
ATOM     17  H   LIG d   1      -1.151  75.813 118.000  0.00  0.00     0.149 HD
ENDBRANCH   6  13
BRANCH   5  18
ATOM     18  N   LIG d   1      -0.161  75.310 114.418  0.00  0.00     0.381 N 
ATOM     19  H   LIG d   1       0.067  74.628 115.114  0.00  0.00    -0.090 HD
ATOM     20  H   LIG d   1       0.696  75.652 114.020  0.00  0.00    -0.090 HD
ATOM     21  H   LIG d   1      -0.724  74.896 113.708  0.00  0.00    -0.090 HD
ENDBRANCH   5  18
BRANCH   3  22
ATOM     22  C   LIG d   1      -2.495  79.412 113.605  0.00  0.00     0.382 C 
ATOM     23  O   LIG d   1      -3.186  79.375 112.558  0.00  0.00    -0.241 OA
ATOM     24  O   LIG d   1      -1.898  80.462 113.909  0.00  0.00    -0.241 OA
ENDBRANCH   3  22
TORSDOF 7
ENDMDL
MODEL 3
REMARK VINA RESULT:      -4.4      2.690      3.657
REMARK  7 active torsions:
REMARK  status: ('A' for Active; 'I' for Inactive)
REMARK    1  A    between atoms: C_2  and  C_3 
REMARK    2  A    between atoms: C_3  and  O_6 
REMARK    3  A    between atoms: C_3  and  C_4 
REMARK    4  A    between atoms: C_7  and  O_6 
REMARK    5  A    between atoms: C_9  and  C_10 
REMARK    6  A    between atoms: N_15  and  C_14 
REMARK    7  A    between atoms: N_20  and  C_19 
REMARK       I    between atoms: C_22  and  N_20 
ROOT
ATOM      1  C   LIG d   1       3.855  86.659 114.453  0.00  0.00     0.161 C 
ATOM      2  C   LIG d   1       3.176  87.564 113.621  0.00  0.00     0.016 C 
ATOM      3  C   LIG d   1       3.422  88.956 113.619  0.00  0.00     0.038 C 
ATOM      4  C   LIG d   1       4.479  89.522 114.347  0.00  0.00     0.028 C 
ATOM      5  C   LIG d   1       4.863  88.717 115.584  0.00  0.00    -0.047 C 
ATOM      6  C   LIG d   1       5.088  87.244 115.173  0.00  0.00     0.091 C 
ENDROOT
BRANCH   1   7
ATOM      7  O   LIG d   1       4.224  85.486 113.701  0.00  0.00    -0.368 OA
BRANCH   7   8
ATOM      8  C   LIG d   1       3.528  84.263 114.047  0.00  0.00     0.119 C 
BRANCH   8   9
ATOM      9  C   LIG d   1       2.810  83.765 112.778  0.00  0.00     0.028 C 
ATOM     10  C   LIG d   1       1.433  84.423 112.586  0.00  0.00     0.006 C 
ENDBRANCH   8   9
BRANCH   8  11
ATOM     11  C   LIG d   1       2.416  84.523 115.067  0.00  0.00     0.028 C 
ATOM     12  C   LIG d   1       2.612  83.741 116.375  0.00  0.00     0.006 C 
ENDBRANCH   8  11
ENDBRANCH   7   8
ENDBRANCH   1   7
BRANCH   6  13
ATOM     13  N   LIG d   1       5.386  86.369 116.338  0.00  0.00    -0.311 N 
ATOM     14  C   LIG d   1       6.618  86.140 116.787  0.00  0.00     0.210 C 
ATOM     15  C   LIG d   1       6.704  85.192 117.987  0.00  0.00     0.109 C 
ATOM     16  O   LIG d   1       7.647  86.657 116.325  0.00  0.00    -0.276 OA
ATOM     17  H   LIG d   1       4.607  85.934 116.792  0.00  0.00     0.149 HD
ENDBRANCH   6  13
BRANCH   5  18
ATOM     18  N   LIG d   1       6.063  89.344 116.170  0.00  0.00     0.381 N 
ATOM     19  H   LIG d   1       6.339  88.845 116.992  0.00  0.00    -0.090 HD
ATOM     20  H   LIG d   1       5.841  90.288 116.432  0.00  0.00    -0.090 HD
ATOM     21  H   LIG d   1       6.807  89.342 115.507  0.00  0.00    -0.090 HD
ENDBRANCH   5  18
BRANCH   3  22
ATOM     22  C   LIG d   1       2.581  89.802 112.914  0.00  0.00     0.382 C 
ATOM     23  O   LIG d   1       2.966  90.956 112.606  0.00  0.00    -0.241 OA
ATOM     24  O   LIG d   1       1.425  89.443 112.620  0.00  0.00    -0.241 OA
ENDBRANCH   3  22
TORSDOF 7
ENDMDL
MODEL 4
REMARK VINA RESULT:      -4.3     10.207     13.091
REMARK  7 active torsions:
REMARK  status: ('A' for Active; 'I' for Inactive)
REMARK    1  A    between atoms: C_2  and  C_3 
REMARK    2  A    between atoms: C_3  and  O_6 
REMARK    3  A    between atoms: C_3  and  C_4 
REMARK    4  A    between atoms: C_7  and  O_6 
REMARK    5  A    between atoms: C_9  and  C_10 
REMARK    6  A    between atoms: N_15  and  C_14 
REMARK    7  A    between atoms: N_20  and  C_19 
REMARK       I    between atoms: C_22  and  N_20 
ROOT
ATOM      1  C   LIG d   1      -5.775  77.101 117.143  0.00  0.00     0.161 C 
ATOM      2  C   LIG d   1      -7.050  76.519 117.236  0.00  0.00     0.016 C 
ATOM      3  C   LIG d   1      -8.185  77.206 117.725  0.00  0.00     0.038 C 
ATOM      4  C   LIG d   1      -8.153  78.578 118.015  0.00  0.00     0.028 C 
ATOM      5  C   LIG d   1      -6.770  79.081 118.415  0.00  0.00    -0.047 C 
ATOM      6  C   LIG d   1      -5.745  78.629 117.350  0.00  0.00     0.091 C 
ENDROOT
BRANCH   1   7
ATOM      7  O   LIG d   1      -5.170  76.754 115.882  0.00  0.00    -0.368 OA
BRANCH   7   8
ATOM      8  C   LIG d   1      -3.904  76.053 115.953  0.00  0.00     0.119 C 
BRANCH   8   9
ATOM      9  C   LIG d   1      -3.007  76.601 114.826  0.00  0.00     0.028 C 
ATOM     10  C   LIG d   1      -1.541  76.751 115.263  0.00  0.00     0.006 C 
ENDBRANCH   8   9
BRANCH   8  11
ATOM     11  C   LIG d   1      -4.075  74.562 115.647  0.00  0.00     0.028 C 
ATOM     12  C   LIG d   1      -5.061  74.299 114.498  0.00  0.00     0.006 C 
ENDBRANCH   8  11
ENDBRANCH   7   8
ENDBRANCH   1   7
BRANCH   6  13
ATOM     13  N   LIG d   1      -4.352  79.007 117.708  0.00  0.00    -0.311 N 
ATOM     14  C   LIG d   1      -3.517  79.610 116.865  0.00  0.00     0.210 C 
ATOM     15  C   LIG d   1      -2.121  79.893 117.429  0.00  0.00     0.109 C 
ATOM     16  O   LIG d   1      -3.809  79.967 115.713  0.00  0.00    -0.276 OA
ATOM     17  H   LIG d   1      -4.043  78.783 118.634  0.00  0.00     0.149 HD
ENDBRANCH   6  13
BRANCH   5  18
ATOM     18  N   LIG d   1      -6.852  80.547 118.555  0.00  0.00     0.381 N 
ATOM     19  H   LIG d   1      -7.568  80.905 117.955  0.00  0.00    -0.090 HD
ATOM     20  H   LIG d   1      -5.975  80.949 118.274  0.00  0.00    -0.090 HD
ATOM     21  H   LIG d   1      -7.049  80.789 119.501  0.00  0.00    -0.090 HD
ENDBRANCH   5  18
BRANCH   3  22
ATOM     22  C   LIG d   1      -9.359  76.509 117.966  0.00  0.00     0.382 C 
ATOM     23  O   LIG d   1     -10.365  77.111 118.414  0.00  0.00    -0.241 OA
ATOM     24  O   LIG d   1      -9.412  75.278 117.782  0.00  0.00    -0.241 OA
ENDBRANCH   3  22
TORSDOF 7
ENDMDL
MODEL 5
REMARK VINA RESULT:      -4.3     27.228     30.450
REMARK  7 active torsions:
REMARK  status: ('A' for Active; 'I' for Inactive)
REMARK    1  A    between atoms: C_2  and  C_3 
REMARK    2  A    between atoms: C_3  and  O_6 
REMARK    3  A    between atoms: C_3  and  C_4 
REMARK    4  A    between atoms: C_7  and  O_6 
REMARK    5  A    between atoms: C_9  and  C_10 
REMARK    6  A    between atoms: N_15  and  C_14 
REMARK    7  A    between atoms: N_20  and  C_19 
REMARK       I    between atoms: C_22  and  N_20 
ROOT
ATOM      1  C   LIG d   1     -16.563  63.342 116.801  0.00  0.00     0.161 C 
ATOM      2  C   LIG d   1     -15.836  64.365 117.432  0.00  0.00     0.016 C 
ATOM      3  C   LIG d   1     -15.617  65.635 116.852  0.00  0.00     0.038 C 
ATOM      4  C   LIG d   1     -16.243  66.023 115.658  0.00  0.00     0.028 C 
ATOM      5  C   LIG d   1     -16.575  64.852 114.740  0.00  0.00    -0.047 C 
ATOM      6  C   LIG d   1     -17.347  63.784 115.548  0.00  0.00     0.091 C 
ENDROOT
BRANCH   1   7
ATOM      7  O   LIG d   1     -17.449  62.715 117.750  0.00  0.00    -0.368 OA
BRANCH   7   8
ATOM      8  C   LIG d   1     -16.976  61.481 118.344  0.00  0.00     0.119 C 
BRANCH   8   9
ATOM      9  C   LIG d   1     -16.036  60.807 117.325  0.00  0.00     0.028 C 
ATOM     10  C   LIG d   1     -15.647  59.379 117.741  0.00  0.00     0.006 C 
ENDBRANCH   8   9
BRANCH   8  11
ATOM     11  C   LIG d   1     -18.123  60.489 118.555  0.00  0.00     0.028 C 
ATOM     12  C   LIG d   1     -19.194  60.574 117.456  0.00  0.00     0.006 C 
ENDBRANCH   8  11
ENDBRANCH   7   8
ENDBRANCH   1   7
BRANCH   6  13
ATOM     13  N   LIG d   1     -17.638  62.567 114.746  0.00  0.00    -0.311 N 
ATOM     14  C   LIG d   1     -18.797  62.358 114.124  0.00  0.00     0.210 C 
ATOM     15  C   LIG d   1     -18.895  61.028 113.370  0.00  0.00     0.109 C 
ATOM     16  O   LIG d   1     -19.741  63.161 114.100  0.00  0.00    -0.276 OA
ATOM     17  H   LIG d   1     -16.915  61.876 114.687  0.00  0.00     0.149 HD
ENDBRANCH   6  13
BRANCH   5  18
ATOM     18  N   LIG d   1     -17.345  65.383 113.600  0.00  0.00     0.381 N 
ATOM     19  H   LIG d   1     -18.274  65.608 113.894  0.00  0.00    -0.090 HD
ATOM     20  H   LIG d   1     -17.402  64.677 112.888  0.00  0.00    -0.090 HD
ATOM     21  H   LIG d   1     -16.898  66.196 113.236  0.00  0.00    -0.090 HD
ENDBRANCH   5  18
BRANCH   3  22
ATOM     22  C   LIG d   1     -14.731  66.520 117.448  0.00  0.00     0.382 C 
ATOM     23  O   LIG d   1     -15.143  67.339 118.305  0.00  0.00    -0.241 OA
ATOM     24  O   LIG d   1     -13.532  66.538 117.109  0.00  0.00    -0.241 OA
ENDBRANCH   3  22
TORSDOF 7
ENDMDL
MODEL 6
REMARK VINA RESULT:      -4.3     27.506     30.157
REMARK  7 active torsions:
REMARK  status: ('A' for Active; 'I' for Inactive)
REMARK    1  A    between atoms: C_2  and  C_3 
REMARK    2  A    between atoms: C_3  and  O_6 
REMARK    3  A    between atoms: C_3  and  C_4 
REMARK    4  A    between atoms: C_7  and  O_6 
REMARK    5  A    between atoms: C_9  and  C_10 
REMARK    6  A    between atoms: N_15  and  C_14 
REMARK    7  A    between atoms: N_20  and  C_19 
REMARK       I    between atoms: C_22  and  N_20 
ROOT
ATOM      1  C   LIG d   1     -17.004  64.708 114.954  0.00  0.00     0.161 C 
ATOM      2  C   LIG d   1     -15.915  64.700 115.841  0.00  0.00     0.016 C 
ATOM      3  C   LIG d   1     -15.916  65.379 117.081  0.00  0.00     0.038 C 
ATOM      4  C   LIG d   1     -17.070  65.993 117.590  0.00  0.00     0.028 C 
ATOM      5  C   LIG d   1     -18.037  66.456 116.505  0.00  0.00    -0.047 C 
ATOM      6  C   LIG d   1     -18.312  65.279 115.542  0.00  0.00     0.091 C 
ENDROOT
BRANCH   1   7
ATOM      7  O   LIG d   1     -17.224  63.380 114.439  0.00  0.00    -0.368 OA
BRANCH   7   8
ATOM      8  C   LIG d   1     -17.868  62.446 115.339  0.00  0.00     0.119 C 
BRANCH   8   9
ATOM      9  C   LIG d   1     -16.980  61.189 115.416  0.00  0.00     0.028 C 
ATOM     10  C   LIG d   1     -16.191  61.108 116.734  0.00  0.00     0.006 C 
ENDBRANCH   8   9
BRANCH   8  11
ATOM     11  C   LIG d   1     -19.207  61.961 114.775  0.00  0.00     0.028 C 
ATOM     12  C   LIG d   1     -19.318  62.153 113.254  0.00  0.00     0.006 C 
ENDBRANCH   8  11
ENDBRANCH   7   8
ENDBRANCH   1   7
BRANCH   6  13
ATOM     13  N   LIG d   1     -19.183  65.670 114.403  0.00  0.00    -0.311 N 
ATOM     14  C   LIG d   1     -20.502  65.486 114.392  0.00  0.00     0.210 C 
ATOM     15  C   LIG d   1     -21.208  65.943 113.111  0.00  0.00     0.109 C 
ATOM     16  O   LIG d   1     -21.158  65.018 115.334  0.00  0.00    -0.276 OA
ATOM     17  H   LIG d   1     -18.736  66.087 113.609  0.00  0.00     0.149 HD
ENDBRANCH   6  13
BRANCH   5  18
ATOM     18  N   LIG d   1     -19.255  66.950 117.176  0.00  0.00     0.381 N 
ATOM     19  H   LIG d   1     -19.622  66.240 117.778  0.00  0.00    -0.090 HD
ATOM     20  H   LIG d   1     -19.947  67.161 116.479  0.00  0.00    -0.090 HD
ATOM     21  H   LIG d   1     -19.045  67.768 117.704  0.00  0.00    -0.090 HD
ENDBRANCH   5  18
BRANCH   3  22
ATOM     22  C   LIG d   1     -14.740  65.484 117.809  0.00  0.00     0.382 C 
ATOM     23  O   LIG d   1     -14.336  64.511 118.490  0.00  0.00    -0.241 OA
ATOM     24  O   LIG d   1     -14.101  66.553 117.827  0.00  0.00    -0.241 OA
ENDBRANCH   3  22
TORSDOF 7
ENDMDL
MODEL 7
REMARK VINA RESULT:      -4.0     27.315     30.429
REMARK  7 active torsions:
REMARK  status: ('A' for Active; 'I' for Inactive)
REMARK    1  A    between atoms: C_2  and  C_3 
REMARK    2  A    between atoms: C_3  and  O_6 
REMARK    3  A    between atoms: C_3  and  C_4 
REMARK    4  A    between atoms: C_7  and  O_6 
REMARK    5  A    between atoms: C_9  and  C_10 
REMARK    6  A    between atoms: N_15  and  C_14 
REMARK    7  A    between atoms: N_20  and  C_19 
REMARK       I    between atoms: C_22  and  N_20 
ROOT
ATOM      1  C   LIG d   1     -17.060  63.842 116.127  0.00  0.00     0.161 C 
ATOM      2  C   LIG d   1     -15.864  64.566 116.265  0.00  0.00     0.016 C 
ATOM      3  C   LIG d   1     -15.819  65.969 116.434  0.00  0.00     0.038 C 
ATOM      4  C   LIG d   1     -16.981  66.730 116.628  0.00  0.00     0.028 C 
ATOM      5  C   LIG d   1     -18.222  66.113 115.993  0.00  0.00    -0.047 C 
ATOM      6  C   LIG d   1     -18.340  64.641 116.448  0.00  0.00     0.091 C 
ENDROOT
BRANCH   1   7
ATOM      7  O   LIG d   1     -17.002  62.645 116.928  0.00  0.00    -0.368 OA
BRANCH   7   8
ATOM      8  C   LIG d   1     -16.626  61.431 116.234  0.00  0.00     0.119 C 
BRANCH   8   9
ATOM      9  C   LIG d   1     -17.219  61.506 114.814  0.00  0.00     0.028 C 
ATOM     10  C   LIG d   1     -18.370  60.507 114.606  0.00  0.00     0.006 C 
ENDBRANCH   8   9
BRANCH   8  11
ATOM     11  C   LIG d   1     -17.269  60.199 116.878  0.00  0.00     0.028 C 
ATOM     12  C   LIG d   1     -16.234  59.215 117.447  0.00  0.00     0.006 C 
ENDBRANCH   8  11
ENDBRANCH   7   8
ENDBRANCH   1   7
BRANCH   6  13
ATOM     13  N   LIG d   1     -19.482  63.939 115.805  0.00  0.00    -0.311 N 
ATOM     14  C   LIG d   1     -20.344  63.176 116.475  0.00  0.00     0.210 C 
ATOM     15  C   LIG d   1     -21.435  62.528 115.618  0.00  0.00     0.109 C 
ATOM     16  O   LIG d   1     -20.327  63.000 117.703  0.00  0.00    -0.276 OA
ATOM     17  H   LIG d   1     -19.589  64.052 114.816  0.00  0.00     0.149 HD
ENDBRANCH   6  13
BRANCH   5  18
ATOM     18  N   LIG d   1     -19.381  66.936 116.389  0.00  0.00     0.381 N 
ATOM     19  H   LIG d   1     -19.504  66.892 117.381  0.00  0.00    -0.090 HD
ATOM     20  H   LIG d   1     -20.207  66.566 115.952  0.00  0.00    -0.090 HD
ATOM     21  H   LIG d   1     -19.241  67.881 116.106  0.00  0.00    -0.090 HD
ENDBRANCH   5  18
BRANCH   3  22
ATOM     22  C   LIG d   1     -14.601  66.630 116.369  0.00  0.00     0.382 C 
ATOM     23  O   LIG d   1     -14.331  67.350 115.377  0.00  0.00    -0.241 OA
ATOM     24  O   LIG d   1     -13.752  66.480 117.268  0.00  0.00    -0.241 OA
ENDBRANCH   3  22
TORSDOF 7
ENDMDL
MODEL 8
REMARK VINA RESULT:      -3.9      9.655     12.323
REMARK  7 active torsions:
REMARK  status: ('A' for Active; 'I' for Inactive)
REMARK    1  A    between atoms: C_2  and  C_3 
REMARK    2  A    between atoms: C_3  and  O_6 
REMARK    3  A    between atoms: C_3  and  C_4 
REMARK    4  A    between atoms: C_7  and  O_6 
REMARK    5  A    between atoms: C_9  and  C_10 
REMARK    6  A    between atoms: N_15  and  C_14 
REMARK    7  A    between atoms: N_20  and  C_19 
REMARK       I    between atoms: C_22  and  N_20 
ROOT
ATOM      1  C   LIG d   1      -3.119  76.529 116.525  0.00  0.00     0.161 C 
ATOM      2  C   LIG d   1      -4.243  77.234 116.988  0.00  0.00     0.016 C 
ATOM      3  C   LIG d   1      -5.574  76.851 116.700  0.00  0.00     0.038 C 
ATOM      4  C   LIG d   1      -5.874  75.644 116.051  0.00  0.00     0.028 C 
ATOM      5  C   LIG d   1      -4.762  75.159 115.128  0.00  0.00    -0.047 C 
ATOM      6  C   LIG d   1      -3.429  75.148 115.911  0.00  0.00     0.091 C 
ENDROOT
BRANCH   1   7
ATOM      7  O   LIG d   1      -2.153  76.400 117.587  0.00  0.00    -0.368 OA
BRANCH   7   8
ATOM      8  C   LIG d   1      -0.989  77.258 117.499  0.00  0.00     0.119 C 
BRANCH   8   9
ATOM      9  C   LIG d   1      -1.030  77.952 116.124  0.00  0.00     0.028 C 
ATOM     10  C   LIG d   1      -0.847  79.476 116.230  0.00  0.00     0.006 C 
ENDBRANCH   8   9
BRANCH   8  11
ATOM     11  C   LIG d   1       0.307  76.442 117.503  0.00  0.00     0.028 C 
ATOM     12  C   LIG d   1       1.448  77.141 118.258  0.00  0.00     0.006 C 
ENDBRANCH   8  11
ENDBRANCH   7   8
ENDBRANCH   1   7
BRANCH   6  13
ATOM     13  N   LIG d   1      -2.273  74.766 115.058  0.00  0.00    -0.311 N 
ATOM     14  C   LIG d   1      -1.359  73.869 115.421  0.00  0.00     0.210 C 
ATOM     15  C   LIG d   1      -0.239  73.637 114.401  0.00  0.00     0.109 C 
ATOM     16  O   LIG d   1      -1.387  73.218 116.476  0.00  0.00    -0.276 OA
ATOM     17  H   LIG d   1      -2.191  75.223 114.170  0.00  0.00     0.149 HD
ENDBRANCH   6  13
BRANCH   5  18
ATOM     18  N   LIG d   1      -5.148  73.827 114.626  0.00  0.00     0.381 N 
ATOM     19  H   LIG d   1      -5.135  73.165 115.376  0.00  0.00    -0.090 HD
ATOM     20  H   LIG d   1      -4.480  73.533 113.935  0.00  0.00    -0.090 HD
ATOM     21  H   LIG d   1      -6.059  73.865 114.224  0.00  0.00    -0.090 HD
ENDBRANCH   5  18
BRANCH   3  22
ATOM     22  C   LIG d   1      -6.619  77.701 117.027  0.00  0.00     0.382 C 
ATOM     23  O   LIG d   1      -6.427  78.940 117.079  0.00  0.00    -0.241 OA
ATOM     24  O   LIG d   1      -7.741  77.242 117.313  0.00  0.00    -0.241 OA
ENDBRANCH   3  22
TORSDOF 7
ENDMDL
MODEL 9
REMARK VINA RESULT:      -3.9      9.511     12.393
REMARK  7 active torsions:
REMARK  status: ('A' for Active; 'I' for Inactive)
REMARK    1  A    between atoms: C_2  and  C_3 
REMARK    2  A    between atoms: C_3  and  O_6 
REMARK    3  A    between atoms: C_3  and  C_4 
REMARK    4  A    between atoms: C_7  and  O_6 
REMARK    5  A    between atoms: C_9  and  C_10 
REMARK    6  A    between atoms: N_15  and  C_14 
REMARK    7  A    between atoms: N_20  and  C_19 
REMARK       I    between atoms: C_22  and  N_20 
ROOT
ATOM      1  C   LIG d   1      -3.111  76.869 118.198  0.00  0.00     0.161 C 
ATOM      2  C   LIG d   1      -2.338  75.708 118.033  0.00  0.00     0.016 C 
ATOM      3  C   LIG d   1      -2.627  74.712 117.072  0.00  0.00     0.038 C 
ATOM      4  C   LIG d   1      -3.627  74.883 116.104  0.00  0.00     0.028 C 
ATOM      5  C   LIG d   1      -4.753  75.808 116.553  0.00  0.00    -0.047 C 
ATOM      6  C   LIG d   1      -4.141  77.126 117.077  0.00  0.00     0.091 C 
ENDROOT
BRANCH   1   7
ATOM      7  O   LIG d   1      -2.248  78.013 118.357  0.00  0.00    -0.368 OA
BRANCH   7   8
ATOM      8  C   LIG d   1      -1.001  77.977 117.620  0.00  0.00     0.119 C 
BRANCH   8   9
ATOM      9  C   LIG d   1       0.090  78.580 118.526  0.00  0.00     0.028 C 
ATOM     10  C   LIG d   1       1.452  77.892 118.341  0.00  0.00     0.006 C 
ENDBRANCH   8   9
BRANCH   8  11
ATOM     11  C   LIG d   1      -1.056  78.888 116.389  0.00  0.00     0.028 C 
ATOM     12  C   LIG d   1      -1.305  78.113 115.086  0.00  0.00     0.006 C 
ENDBRANCH   8  11
ENDBRANCH   7   8
ENDBRANCH   1   7
BRANCH   6  13
ATOM     13  N   LIG d   1      -5.169  78.055 117.615  0.00  0.00    -0.311 N 
ATOM     14  C   LIG d   1      -5.197  79.357 117.338  0.00  0.00     0.210 C 
ATOM     15  C   LIG d   1      -6.330  80.137 118.012  0.00  0.00     0.109 C 
ATOM     16  O   LIG d   1      -4.411  79.935 116.572  0.00  0.00    -0.276 OA
ATOM     17  H   LIG d   1      -5.864  77.664 118.221  0.00  0.00     0.149 HD
ENDBRANCH   6  13
BRANCH   5  18
ATOM     18  N   LIG d   1      -5.654  76.006 115.402  0.00  0.00     0.381 N 
ATOM     19  H   LIG d   1      -5.123  76.286 114.601  0.00  0.00    -0.090 HD
ATOM     20  H   LIG d   1      -6.305  76.739 115.621  0.00  0.00    -0.090 HD
ATOM     21  H   LIG d   1      -6.146  75.162 115.204  0.00  0.00    -0.090 HD
ENDBRANCH   5  18
BRANCH   3  22
ATOM     22  C   LIG d   1      -1.936  73.510 117.100  0.00  0.00     0.382 C 
ATOM     23  O   LIG d   1      -1.158  73.212 116.161  0.00  0.00    -0.241 OA
ATOM     24  O   LIG d   1      -2.113  72.700 118.029  0.00  0.00    -0.241 OA
ENDBRANCH   3  22
TORSDOF 7
ENDMDL
