MODEL 1
REMARK VINA RESULT:      -5.3      0.000      0.000
REMARK  7 active torsions:
REMARK  status: ('A' for Active; 'I' for Inactive)
REMARK    1  A    between atoms: C_2  and  C_3 
REMARK    2  A    between atoms: C_3  and  O_6 
REMARK    3  A    between atoms: C_3  and  C_4 
REMARK    4  A    between atoms: C_7  and  O_6 
REMARK    5  A    between atoms: C_9  and  C_10 
REMARK    6  A    between atoms: N_15  and  C_14 
REMARK    7  A    between atoms: N_20  and  C_19 
REMARK       I    between atoms: C_22  and  N_20 
ROOT
ATOM      1  C   LIG d   1       2.774  84.981 113.432  0.00  0.00     0.161 C 
ATOM      2  C   LIG d   1       1.444  84.666 113.109  0.00  0.00     0.016 C 
ATOM      3  C   LIG d   1       0.529  85.605 112.578  0.00  0.00     0.038 C 
ATOM      4  C   LIG d   1       0.928  86.893 112.192  0.00  0.00     0.028 C 
ATOM      5  C   LIG d   1       2.134  87.411 112.968  0.00  0.00    -0.047 C 
ATOM      6  C   LIG d   1       3.259  86.352 112.914  0.00  0.00     0.091 C 
ENDROOT
BRANCH   1   7
ATOM      7  O   LIG d   1       3.650  83.934 112.972  0.00  0.00    -0.368 OA
BRANCH   7   8
ATOM      8  C   LIG d   1       3.950  82.887 113.929  0.00  0.00     0.119 C 
BRANCH   8   9
ATOM      9  C   LIG d   1       4.380  83.570 115.242  0.00  0.00     0.028 C 
ATOM     10  C   LIG d   1       5.891  83.852 115.289  0.00  0.00     0.006 C 
ENDBRANCH   8   9
BRANCH   8  11
ATOM     11  C   LIG d   1       5.160  82.059 113.487  0.00  0.00     0.028 C 
ATOM     12  C   LIG d   1       5.414  82.135 111.974  0.00  0.00     0.006 C 
ENDBRANCH   8  11
ENDBRANCH   7   8
ENDBRANCH   1   7
BRANCH   6  13
ATOM     13  N   LIG d   1       4.445  86.743 113.719  0.00  0.00    -0.311 N 
ATOM     14  C   LIG d   1       5.501  87.375 113.209  0.00  0.00     0.210 C 
ATOM     15  C   LIG d   1       6.624  87.668 114.208  0.00  0.00     0.109 C 
ATOM     16  O   LIG d   1       5.600  87.750 112.031  0.00  0.00    -0.276 OA
ATOM     17  H   LIG d   1       4.435  86.505 114.691  0.00  0.00     0.149 HD
ENDBRANCH   6  13
BRANCH   5  18
ATOM     18  N   LIG d   1       2.527  88.702 112.371  0.00  0.00     0.381 N 
ATOM     19  H   LIG d   1       2.702  88.583 111.393  0.00  0.00    -0.090 HD
ATOM     20  H   LIG d   1       3.375  89.017 112.807  0.00  0.00    -0.090 HD
ATOM     21  H   LIG d   1       1.805  89.374 112.507  0.00  0.00    -0.090 HD
ENDBRANCH   5  18
BRANCH   3  22
ATOM     22  C   LIG d   1      -0.812  85.270 112.467  0.00  0.00     0.382 C 
ATOM     23  O   LIG d   1      -1.685  86.171 112.464  0.00  0.00    -0.241 OA
ATOM     24  O   LIG d   1      -1.163  84.076 112.414  0.00  0.00    -0.241 OA
ENDBRANCH   3  22
TORSDOF 7
ENDMDL
MODEL 2
REMARK VINA RESULT:      -5.2     26.001     28.498
REMARK  7 active torsions:
REMARK  status: ('A' for Active; 'I' for Inactive)
REMARK    1  A    between atoms: C_2  and  C_3 
REMARK    2  A    between atoms: C_3  and  O_6 
REMARK    3  A    between atoms: C_3  and  C_4 
REMARK    4  A    between atoms: C_7  and  O_6 
REMARK    5  A    between atoms: C_9  and  C_10 
REMARK    6  A    between atoms: N_15  and  C_14 
REMARK    7  A    between atoms: N_20  and  C_19 
REMARK       I    between atoms: C_22  and  N_20 
ROOT
ATOM      1  C   LIG d   1     -16.288  65.094 114.235  0.00  0.00     0.161 C 
ATOM      2  C   LIG d   1     -15.786  66.096 113.388  0.00  0.00     0.016 C 
ATOM      3  C   LIG d   1     -15.150  67.267 113.860  0.00  0.00     0.038 C 
ATOM      4  C   LIG d   1     -14.836  67.445 115.215  0.00  0.00     0.028 C 
ATOM      5  C   LIG d   1     -15.772  66.695 116.157  0.00  0.00    -0.047 C 
ATOM      6  C   LIG d   1     -15.856  65.218 115.710  0.00  0.00     0.091 C 
ENDROOT
BRANCH   1   7
ATOM      7  O   LIG d   1     -15.937  63.796 113.717  0.00  0.00    -0.368 OA
BRANCH   7   8
ATOM      8  C   LIG d   1     -17.029  63.001 113.193  0.00  0.00     0.119 C 
BRANCH   8   9
ATOM      9  C   LIG d   1     -18.317  63.837 113.329  0.00  0.00     0.028 C 
ATOM     10  C   LIG d   1     -19.071  63.976 111.996  0.00  0.00     0.006 C 
ENDBRANCH   8   9
BRANCH   8  11
ATOM     11  C   LIG d   1     -17.267  61.750 114.043  0.00  0.00     0.028 C 
ATOM     12  C   LIG d   1     -17.931  60.611 113.254  0.00  0.00     0.006 C 
ENDBRANCH   8  11
ENDBRANCH   7   8
ENDBRANCH   1   7
BRANCH   6  13
ATOM     13  N   LIG d   1     -16.816  64.432 116.528  0.00  0.00    -0.311 N 
ATOM     14  C   LIG d   1     -16.489  63.309 117.166  0.00  0.00     0.210 C 
ATOM     15  C   LIG d   1     -17.635  62.646 117.936  0.00  0.00     0.109 C 
ATOM     16  O   LIG d   1     -15.351  62.817 117.193  0.00  0.00    -0.276 OA
ATOM     17  H   LIG d   1     -17.755  64.777 116.586  0.00  0.00     0.149 HD
ENDBRANCH   6  13
BRANCH   5  18
ATOM     18  N   LIG d   1     -15.248  66.856 117.527  0.00  0.00     0.381 N 
ATOM     19  H   LIG d   1     -15.907  66.493 118.186  0.00  0.00    -0.090 HD
ATOM     20  H   LIG d   1     -15.121  67.835 117.714  0.00  0.00    -0.090 HD
ATOM     21  H   LIG d   1     -14.378  66.378 117.618  0.00  0.00    -0.090 HD
ENDBRANCH   5  18
BRANCH   3  22
ATOM     22  C   LIG d   1     -14.857  68.294 112.975  0.00  0.00     0.382 C 
ATOM     23  O   LIG d   1     -15.310  68.263 111.806  0.00  0.00    -0.241 OA
ATOM     24  O   LIG d   1     -14.110  69.230 113.319  0.00  0.00    -0.241 OA
ENDBRANCH   3  22
TORSDOF 7
ENDMDL
MODEL 3
REMARK VINA RESULT:      -4.5     27.687     30.148
REMARK  7 active torsions:
REMARK  status: ('A' for Active; 'I' for Inactive)
REMARK    1  A    between atoms: C_2  and  C_3 
REMARK    2  A    between atoms: C_3  and  O_6 
REMARK    3  A    between atoms: C_3  and  C_4 
REMARK    4  A    between atoms: C_7  and  O_6 
REMARK    5  A    between atoms: C_9  and  C_10 
REMARK    6  A    between atoms: N_15  and  C_14 
REMARK    7  A    between atoms: N_20  and  C_19 
REMARK       I    between atoms: C_22  and  N_20 
ROOT
ATOM      1  C   LIG d   1     -16.220  63.290 116.337  0.00  0.00     0.161 C 
ATOM      2  C   LIG d   1     -15.837  64.598 116.678  0.00  0.00     0.016 C 
ATOM      3  C   LIG d   1     -15.787  65.662 115.749  0.00  0.00     0.038 C 
ATOM      4  C   LIG d   1     -16.265  65.523 114.437  0.00  0.00     0.028 C 
ATOM      5  C   LIG d   1     -16.187  64.094 113.912  0.00  0.00    -0.047 C 
ATOM      6  C   LIG d   1     -16.851  63.146 114.937  0.00  0.00     0.091 C 
ENDROOT
BRANCH   1   7
ATOM      7  O   LIG d   1     -17.108  62.763 117.343  0.00  0.00    -0.368 OA
BRANCH   7   8
ATOM      8  C   LIG d   1     -18.525  62.889 117.073  0.00  0.00     0.119 C 
BRANCH   8   9
ATOM      9  C   LIG d   1     -19.117  63.836 118.135  0.00  0.00     0.028 C 
ATOM     10  C   LIG d   1     -19.332  65.261 117.596  0.00  0.00     0.006 C 
ENDBRANCH   8   9
BRANCH   8  11
ATOM     11  C   LIG d   1     -19.251  61.555 117.269  0.00  0.00     0.028 C 
ATOM     12  C   LIG d   1     -18.288  60.385 117.529  0.00  0.00     0.006 C 
ENDBRANCH   8  11
ENDBRANCH   7   8
ENDBRANCH   1   7
BRANCH   6  13
ATOM     13  N   LIG d   1     -16.744  61.718 114.540  0.00  0.00    -0.311 N 
ATOM     14  C   LIG d   1     -17.682  61.078 113.843  0.00  0.00     0.210 C 
ATOM     15  C   LIG d   1     -17.382  59.603 113.557  0.00  0.00     0.109 C 
ATOM     16  O   LIG d   1     -18.718  61.600 113.406  0.00  0.00    -0.276 OA
ATOM     17  H   LIG d   1     -15.921  61.225 114.826  0.00  0.00     0.149 HD
ENDBRANCH   6  13
BRANCH   5  18
ATOM     18  N   LIG d   1     -16.843  64.068 112.591  0.00  0.00     0.381 N 
ATOM     19  H   LIG d   1     -17.721  64.547 112.639  0.00  0.00    -0.090 HD
ATOM     20  H   LIG d   1     -17.019  63.112 112.334  0.00  0.00    -0.090 HD
ATOM     21  H   LIG d   1     -16.257  64.500 111.911  0.00  0.00    -0.090 HD
ENDBRANCH   5  18
BRANCH   3  22
ATOM     22  C   LIG d   1     -15.217  66.871 116.117  0.00  0.00     0.382 C 
ATOM     23  O   LIG d   1     -14.097  66.889 116.683  0.00  0.00    -0.241 OA
ATOM     24  O   LIG d   1     -15.828  67.940 115.931  0.00  0.00    -0.241 OA
ENDBRANCH   3  22
TORSDOF 7
ENDMDL
MODEL 4
REMARK VINA RESULT:      -4.5      9.703     11.589
REMARK  7 active torsions:
REMARK  status: ('A' for Active; 'I' for Inactive)
REMARK    1  A    between atoms: C_2  and  C_3 
REMARK    2  A    between atoms: C_3  and  O_6 
REMARK    3  A    between atoms: C_3  and  C_4 
REMARK    4  A    between atoms: C_7  and  O_6 
REMARK    5  A    between atoms: C_9  and  C_10 
REMARK    6  A    between atoms: N_15  and  C_14 
REMARK    7  A    between atoms: N_20  and  C_19 
REMARK       I    between atoms: C_22  and  N_20 
ROOT
ATOM      1  C   LIG d   1      -2.324  76.981 114.986  0.00  0.00     0.161 C 
ATOM      2  C   LIG d   1      -3.565  76.456 114.588  0.00  0.00     0.016 C 
ATOM      3  C   LIG d   1      -3.987  75.141 114.891  0.00  0.00     0.038 C 
ATOM      4  C   LIG d   1      -3.254  74.306 115.748  0.00  0.00     0.028 C 
ATOM      5  C   LIG d   1      -1.760  74.611 115.759  0.00  0.00    -0.047 C 
ATOM      6  C   LIG d   1      -1.559  76.122 116.015  0.00  0.00     0.091 C 
ENDROOT
BRANCH   1   7
ATOM      7  O   LIG d   1      -2.498  78.322 115.483  0.00  0.00    -0.368 OA
BRANCH   7   8
ATOM      8  C   LIG d   1      -3.047  78.442 116.818  0.00  0.00     0.119 C 
BRANCH   8   9
ATOM      9  C   LIG d   1      -4.326  79.296 116.718  0.00  0.00     0.028 C 
ATOM     10  C   LIG d   1      -5.601  78.476 116.975  0.00  0.00     0.006 C 
ENDBRANCH   8   9
BRANCH   8  11
ATOM     11  C   LIG d   1      -2.107  79.225 117.739  0.00  0.00     0.028 C 
ATOM     12  C   LIG d   1      -1.016  79.986 116.970  0.00  0.00     0.006 C 
ENDBRANCH   8  11
ENDBRANCH   7   8
ENDBRANCH   1   7
BRANCH   6  13
ATOM     13  N   LIG d   1      -0.129  76.521 115.959  0.00  0.00    -0.311 N 
ATOM     14  C   LIG d   1       0.642  76.644 117.039  0.00  0.00     0.210 C 
ATOM     15  C   LIG d   1       2.082  77.085 116.759  0.00  0.00     0.109 C 
ATOM     16  O   LIG d   1       0.278  76.397 118.199  0.00  0.00    -0.276 OA
ATOM     17  H   LIG d   1       0.257  76.710 115.054  0.00  0.00     0.149 HD
ENDBRANCH   6  13
BRANCH   5  18
ATOM     18  N   LIG d   1      -1.140  73.762 116.794  0.00  0.00     0.381 N 
ATOM     19  H   LIG d   1      -1.567  72.857 116.790  0.00  0.00    -0.090 HD
ATOM     20  H   LIG d   1      -1.295  74.181 117.694  0.00  0.00    -0.090 HD
ATOM     21  H   LIG d   1      -0.162  73.676 116.623  0.00  0.00    -0.090 HD
ENDBRANCH   5  18
BRANCH   3  22
ATOM     22  C   LIG d   1      -5.135  74.635 114.302  0.00  0.00     0.382 C 
ATOM     23  O   LIG d   1      -5.703  73.630 114.795  0.00  0.00    -0.241 OA
ATOM     24  O   LIG d   1      -5.586  75.143 113.257  0.00  0.00    -0.241 OA
ENDBRANCH   3  22
TORSDOF 7
ENDMDL
MODEL 5
REMARK VINA RESULT:      -4.4     26.062     28.235
REMARK  7 active torsions:
REMARK  status: ('A' for Active; 'I' for Inactive)
REMARK    1  A    between atoms: C_2  and  C_3 
REMARK    2  A    between atoms: C_3  and  O_6 
REMARK    3  A    between atoms: C_3  and  C_4 
REMARK    4  A    between atoms: C_7  and  O_6 
REMARK    5  A    between atoms: C_9  and  C_10 
REMARK    6  A    between atoms: N_15  and  C_14 
REMARK    7  A    between atoms: N_20  and  C_19 
REMARK       I    between atoms: C_22  and  N_20 
ROOT
ATOM      1  C   LIG d   1     -24.136  83.599 113.023  0.00  0.00     0.161 C 
ATOM      2  C   LIG d   1     -23.178  84.565 113.375  0.00  0.00     0.016 C 
ATOM      3  C   LIG d   1     -23.510  85.878 113.779  0.00  0.00     0.038 C 
ATOM      4  C   LIG d   1     -24.837  86.271 114.005  0.00  0.00     0.028 C 
ATOM      5  C   LIG d   1     -25.851  85.487 113.180  0.00  0.00    -0.047 C 
ATOM      6  C   LIG d   1     -25.591  83.975 113.371  0.00  0.00     0.091 C 
ENDROOT
BRANCH   1   7
ATOM      7  O   LIG d   1     -23.791  82.331 113.615  0.00  0.00    -0.368 OA
BRANCH   7   8
ATOM      8  C   LIG d   1     -24.398  82.040 114.898  0.00  0.00     0.119 C 
BRANCH   8   9
ATOM      9  C   LIG d   1     -23.270  82.008 115.948  0.00  0.00     0.028 C 
ATOM     10  C   LIG d   1     -23.420  83.116 117.004  0.00  0.00     0.006 C 
ENDBRANCH   8   9
BRANCH   8  11
ATOM     11  C   LIG d   1     -25.011  80.636 114.919  0.00  0.00     0.028 C 
ATOM     12  C   LIG d   1     -23.954  79.523 114.843  0.00  0.00     0.006 C 
ENDBRANCH   8  11
ENDBRANCH   7   8
ENDBRANCH   1   7
BRANCH   6  13
ATOM     13  N   LIG d   1     -26.486  83.135 112.532  0.00  0.00    -0.311 N 
ATOM     14  C   LIG d   1     -27.623  82.604 112.977  0.00  0.00     0.210 C 
ATOM     15  C   LIG d   1     -28.384  81.755 111.954  0.00  0.00     0.109 C 
ATOM     16  O   LIG d   1     -28.090  82.782 114.112  0.00  0.00    -0.276 OA
ATOM     17  H   LIG d   1     -26.199  82.966 111.588  0.00  0.00     0.149 HD
ENDBRANCH   6  13
BRANCH   5  18
ATOM     18  N   LIG d   1     -27.198  85.902 113.615  0.00  0.00     0.381 N 
ATOM     19  H   LIG d   1     -27.481  85.357 114.404  0.00  0.00    -0.090 HD
ATOM     20  H   LIG d   1     -27.847  85.735 112.867  0.00  0.00    -0.090 HD
ATOM     21  H   LIG d   1     -27.196  86.869 113.854  0.00  0.00    -0.090 HD
ENDBRANCH   5  18
BRANCH   3  22
ATOM     22  C   LIG d   1     -22.508  86.827 113.921  0.00  0.00     0.382 C 
ATOM     23  O   LIG d   1     -22.664  87.789 114.712  0.00  0.00    -0.241 OA
ATOM     24  O   LIG d   1     -21.470  86.757 113.237  0.00  0.00    -0.241 OA
ENDBRANCH   3  22
TORSDOF 7
ENDMDL
MODEL 6
REMARK VINA RESULT:      -4.4      9.513     11.443
REMARK  7 active torsions:
REMARK  status: ('A' for Active; 'I' for Inactive)
REMARK    1  A    between atoms: C_2  and  C_3 
REMARK    2  A    between atoms: C_3  and  O_6 
REMARK    3  A    between atoms: C_3  and  C_4 
REMARK    4  A    between atoms: C_7  and  O_6 
REMARK    5  A    between atoms: C_9  and  C_10 
REMARK    6  A    between atoms: N_15  and  C_14 
REMARK    7  A    between atoms: N_20  and  C_19 
REMARK       I    between atoms: C_22  and  N_20 
ROOT
ATOM      1  C   LIG d   1      -2.662  76.334 114.530  0.00  0.00     0.161 C 
ATOM      2  C   LIG d   1      -2.195  77.596 114.128  0.00  0.00     0.016 C 
ATOM      3  C   LIG d   1      -2.634  78.809 114.708  0.00  0.00     0.038 C 
ATOM      4  C   LIG d   1      -3.463  78.833 115.839  0.00  0.00     0.028 C 
ATOM      5  C   LIG d   1      -4.356  77.603 115.962  0.00  0.00    -0.047 C 
ATOM      6  C   LIG d   1      -3.482  76.334 115.837  0.00  0.00     0.091 C 
ENDROOT
BRANCH   1   7
ATOM      7  O   LIG d   1      -1.557  75.414 114.632  0.00  0.00    -0.368 OA
BRANCH   7   8
ATOM      8  C   LIG d   1      -0.772  75.492 115.848  0.00  0.00     0.119 C 
BRANCH   8   9
ATOM      9  C   LIG d   1       0.634  75.989 115.460  0.00  0.00     0.028 C 
ATOM     10  C   LIG d   1       1.101  77.169 116.329  0.00  0.00     0.006 C 
ENDBRANCH   8   9
BRANCH   8  11
ATOM     11  C   LIG d   1      -0.558  74.106 116.463  0.00  0.00     0.028 C 
ATOM     12  C   LIG d   1      -1.377  73.891 117.745  0.00  0.00     0.006 C 
ENDBRANCH   8  11
ENDBRANCH   7   8
ENDBRANCH   1   7
BRANCH   6  13
ATOM     13  N   LIG d   1      -4.288  75.085 115.862  0.00  0.00    -0.311 N 
ATOM     14  C   LIG d   1      -5.032  74.672 114.837  0.00  0.00     0.210 C 
ATOM     15  C   LIG d   1      -5.800  73.369 115.080  0.00  0.00     0.109 C 
ATOM     16  O   LIG d   1      -5.103  75.244 113.739  0.00  0.00    -0.276 OA
ATOM     17  H   LIG d   1      -4.264  74.543 116.704  0.00  0.00     0.149 HD
ENDBRANCH   6  13
BRANCH   5  18
ATOM     18  N   LIG d   1      -5.063  77.693 117.253  0.00  0.00     0.381 N 
ATOM     19  H   LIG d   1      -5.323  78.642 117.432  0.00  0.00    -0.090 HD
ATOM     20  H   LIG d   1      -4.444  77.392 117.985  0.00  0.00    -0.090 HD
ATOM     21  H   LIG d   1      -5.876  77.116 117.238  0.00  0.00    -0.090 HD
ENDBRANCH   5  18
BRANCH   3  22
ATOM     22  C   LIG d   1      -2.275  80.017 114.129  0.00  0.00     0.382 C 
ATOM     23  O   LIG d   1      -1.064  80.329 114.031  0.00  0.00    -0.241 OA
ATOM     24  O   LIG d   1      -3.148  80.817 113.744  0.00  0.00    -0.241 OA
ENDBRANCH   3  22
TORSDOF 7
ENDMDL
MODEL 7
REMARK VINA RESULT:      -4.4     26.153     28.111
REMARK  7 active torsions:
REMARK  status: ('A' for Active; 'I' for Inactive)
REMARK    1  A    between atoms: C_2  and  C_3 
REMARK    2  A    between atoms: C_3  and  O_6 
REMARK    3  A    between atoms: C_3  and  C_4 
REMARK    4  A    between atoms: C_7  and  O_6 
REMARK    5  A    between atoms: C_9  and  C_10 
REMARK    6  A    between atoms: N_15  and  C_14 
REMARK    7  A    between atoms: N_20  and  C_19 
REMARK       I    between atoms: C_22  and  N_20 
ROOT
ATOM      1  C   LIG d   1     -24.199  83.358 114.489  0.00  0.00     0.161 C 
ATOM      2  C   LIG d   1     -23.355  84.478 114.578  0.00  0.00     0.016 C 
ATOM      3  C   LIG d   1     -23.619  85.705 113.927  0.00  0.00     0.038 C 
ATOM      4  C   LIG d   1     -24.830  85.945 113.261  0.00  0.00     0.028 C 
ATOM      5  C   LIG d   1     -25.486  84.679 112.720  0.00  0.00    -0.047 C 
ATOM      6  C   LIG d   1     -25.579  83.637 113.859  0.00  0.00     0.091 C 
ENDROOT
BRANCH   1   7
ATOM      7  O   LIG d   1     -24.355  82.759 115.791  0.00  0.00    -0.368 OA
BRANCH   7   8
ATOM      8  C   LIG d   1     -23.447  81.676 116.106  0.00  0.00     0.119 C 
BRANCH   8   9
ATOM      9  C   LIG d   1     -24.255  80.365 116.058  0.00  0.00     0.028 C 
ATOM     10  C   LIG d   1     -24.012  79.573 114.762  0.00  0.00     0.006 C 
ENDBRANCH   8   9
BRANCH   8  11
ATOM     11  C   LIG d   1     -22.932  81.781 117.545  0.00  0.00     0.028 C 
ATOM     12  C   LIG d   1     -22.970  83.218 118.088  0.00  0.00     0.006 C 
ENDBRANCH   8  11
ENDBRANCH   7   8
ENDBRANCH   1   7
BRANCH   6  13
ATOM     13  N   LIG d   1     -26.133  82.338 113.394  0.00  0.00    -0.311 N 
ATOM     14  C   LIG d   1     -27.099  81.682 114.034  0.00  0.00     0.210 C 
ATOM     15  C   LIG d   1     -27.509  80.351 113.396  0.00  0.00     0.109 C 
ATOM     16  O   LIG d   1     -27.677  82.091 115.052  0.00  0.00    -0.276 OA
ATOM     17  H   LIG d   1     -25.742  81.949 112.558  0.00  0.00     0.149 HD
ENDBRANCH   6  13
BRANCH   5  18
ATOM     18  N   LIG d   1     -26.803  85.058 112.174  0.00  0.00     0.381 N 
ATOM     19  H   LIG d   1     -26.834  86.046 112.019  0.00  0.00    -0.090 HD
ATOM     20  H   LIG d   1     -27.513  84.821 112.844  0.00  0.00    -0.090 HD
ATOM     21  H   LIG d   1     -26.968  84.575 111.318  0.00  0.00    -0.090 HD
ENDBRANCH   5  18
BRANCH   3  22
ATOM     22  C   LIG d   1     -22.648  86.694 113.905  0.00  0.00     0.382 C 
ATOM     23  O   LIG d   1     -22.816  87.753 114.555  0.00  0.00    -0.241 OA
ATOM     24  O   LIG d   1     -21.625  86.559 113.207  0.00  0.00    -0.241 OA
ENDBRANCH   3  22
TORSDOF 7
ENDMDL
MODEL 8
REMARK VINA RESULT:      -4.4      9.378     11.191
REMARK  7 active torsions:
REMARK  status: ('A' for Active; 'I' for Inactive)
REMARK    1  A    between atoms: C_2  and  C_3 
REMARK    2  A    between atoms: C_3  and  O_6 
REMARK    3  A    between atoms: C_3  and  C_4 
REMARK    4  A    between atoms: C_7  and  O_6 
REMARK    5  A    between atoms: C_9  and  C_10 
REMARK    6  A    between atoms: N_15  and  C_14 
REMARK    7  A    between atoms: N_20  and  C_19 
REMARK       I    between atoms: C_22  and  N_20 
ROOT
ATOM      1  C   LIG d   1      -2.103  76.734 114.890  0.00  0.00     0.161 C 
ATOM      2  C   LIG d   1      -3.381  76.260 114.551  0.00  0.00     0.016 C 
ATOM      3  C   LIG d   1      -3.876  75.000 114.959  0.00  0.00     0.038 C 
ATOM      4  C   LIG d   1      -3.180  74.187 115.867  0.00  0.00     0.028 C 
ATOM      5  C   LIG d   1      -1.670  74.399 115.834  0.00  0.00    -0.047 C 
ATOM      6  C   LIG d   1      -1.372  75.910 115.971  0.00  0.00     0.091 C 
ENDROOT
BRANCH   1   7
ATOM      7  O   LIG d   1      -2.185  78.118 115.286  0.00  0.00    -0.368 OA
BRANCH   7   8
ATOM      8  C   LIG d   1      -1.575  79.075 114.385  0.00  0.00     0.119 C 
BRANCH   8   9
ATOM      9  C   LIG d   1      -1.061  78.295 113.159  0.00  0.00     0.028 C 
ATOM     10  C   LIG d   1      -1.717  78.762 111.849  0.00  0.00     0.006 C 
ENDBRANCH   8   9
BRANCH   8  11
ATOM     11  C   LIG d   1      -0.332  79.715 115.009  0.00  0.00     0.028 C 
ATOM     12  C   LIG d   1      -0.504  80.014 116.507  0.00  0.00     0.006 C 
ENDBRANCH   8  11
ENDBRANCH   7   8
ENDBRANCH   1   7
BRANCH   6  13
ATOM     13  N   LIG d   1       0.079  76.214 115.864  0.00  0.00    -0.311 N 
ATOM     14  C   LIG d   1       0.804  76.692 116.873  0.00  0.00     0.210 C 
ATOM     15  C   LIG d   1       2.277  76.955 116.543  0.00  0.00     0.109 C 
ATOM     16  O   LIG d   1       0.375  76.894 118.019  0.00  0.00    -0.276 OA
ATOM     17  H   LIG d   1       0.515  76.050 114.977  0.00  0.00     0.149 HD
ENDBRANCH   6  13
BRANCH   5  18
ATOM     18  N   LIG d   1      -1.083  73.593 116.921  0.00  0.00     0.381 N 
ATOM     19  H   LIG d   1      -0.636  72.784 116.539  0.00  0.00    -0.090 HD
ATOM     20  H   LIG d   1      -1.819  73.288 117.533  0.00  0.00    -0.090 HD
ATOM     21  H   LIG d   1      -0.422  74.137 117.430  0.00  0.00    -0.090 HD
ENDBRANCH   5  18
BRANCH   3  22
ATOM     22  C   LIG d   1      -5.065  74.523 114.427  0.00  0.00     0.382 C 
ATOM     23  O   LIG d   1      -5.539  75.043 113.388  0.00  0.00    -0.241 OA
ATOM     24  O   LIG d   1      -5.691  73.610 114.997  0.00  0.00    -0.241 OA
ENDBRANCH   3  22
TORSDOF 7
ENDMDL
MODEL 9
REMARK VINA RESULT:      -4.3     10.682     13.132
REMARK  7 active torsions:
REMARK  status: ('A' for Active; 'I' for Inactive)
REMARK    1  A    between atoms: C_2  and  C_3 
REMARK    2  A    between atoms: C_3  and  O_6 
REMARK    3  A    between atoms: C_3  and  C_4 
REMARK    4  A    between atoms: C_7  and  O_6 
REMARK    5  A    between atoms: C_9  and  C_10 
REMARK    6  A    between atoms: N_15  and  C_14 
REMARK    7  A    between atoms: N_20  and  C_19 
REMARK       I    between atoms: C_22  and  N_20 
ROOT
ATOM      1  C   LIG d   1      13.200  78.225 115.117  0.00  0.00     0.161 C 
ATOM      2  C   LIG d   1      13.293  79.500 114.534  0.00  0.00     0.016 C 
ATOM      3  C   LIG d   1      13.619  79.712 113.175  0.00  0.00     0.038 C 
ATOM      4  C   LIG d   1      13.727  78.651 112.264  0.00  0.00     0.028 C 
ATOM      5  C   LIG d   1      14.139  77.334 112.914  0.00  0.00    -0.047 C 
ATOM      6  C   LIG d   1      13.205  77.053 114.113  0.00  0.00     0.091 C 
ENDROOT
BRANCH   1   7
ATOM      7  O   LIG d   1      12.033  78.157 115.960  0.00  0.00    -0.368 OA
BRANCH   7   8
ATOM      8  C   LIG d   1      10.873  78.897 115.504  0.00  0.00     0.119 C 
BRANCH   8   9
ATOM      9  C   LIG d   1      10.237  79.566 116.738  0.00  0.00     0.028 C 
ATOM     10  C   LIG d   1      11.259  79.829 117.856  0.00  0.00     0.006 C 
ENDBRANCH   8   9
BRANCH   8  11
ATOM     11  C   LIG d   1       9.797  77.959 114.950  0.00  0.00     0.028 C 
ATOM     12  C   LIG d   1       8.374  78.386 115.346  0.00  0.00     0.006 C 
ENDBRANCH   8  11
ENDBRANCH   7   8
ENDBRANCH   1   7
BRANCH   6  13
ATOM     13  N   LIG d   1      13.591  75.825 114.857  0.00  0.00    -0.311 N 
ATOM     14  C   LIG d   1      12.718  74.896 115.240  0.00  0.00     0.210 C 
ATOM     15  C   LIG d   1      13.323  73.719 116.012  0.00  0.00     0.109 C 
ATOM     16  O   LIG d   1      11.504  74.917 114.986  0.00  0.00    -0.276 OA
ATOM     17  H   LIG d   1      14.561  75.712 115.077  0.00  0.00     0.149 HD
ENDBRANCH   6  13
BRANCH   5  18
ATOM     18  N   LIG d   1      14.078  76.287 111.876  0.00  0.00     0.381 N 
ATOM     19  H   LIG d   1      13.518  76.602 111.109  0.00  0.00    -0.090 HD
ATOM     20  H   LIG d   1      13.647  75.468 112.266  0.00  0.00    -0.090 HD
ATOM     21  H   LIG d   1      14.997  76.068 111.559  0.00  0.00    -0.090 HD
ENDBRANCH   5  18
BRANCH   3  22
ATOM     22  C   LIG d   1      13.881  80.997 112.724  0.00  0.00     0.382 C 
ATOM     23  O   LIG d   1      13.070  81.569 111.956  0.00  0.00    -0.241 OA
ATOM     24  O   LIG d   1      14.939  81.574 113.039  0.00  0.00    -0.241 OA
ENDBRANCH   3  22
TORSDOF 7
ENDMDL
