MODEL 1
REMARK VINA RESULT:      -5.2      0.000      0.000
REMARK  7 active torsions:
REMARK  status: ('A' for Active; 'I' for Inactive)
REMARK    1  A    between atoms: C_2  and  C_3 
REMARK    2  A    between atoms: C_3  and  O_6 
REMARK    3  A    between atoms: C_3  and  C_4 
REMARK    4  A    between atoms: C_7  and  O_6 
REMARK    5  A    between atoms: C_9  and  C_10 
REMARK    6  A    between atoms: N_15  and  C_14 
REMARK    7  A    between atoms: N_20  and  C_19 
REMARK       I    between atoms: C_22  and  N_20 
ROOT
ATOM      1  C   LIG d   1      -2.116  75.056 114.753  0.00  0.00     0.161 C 
ATOM      2  C   LIG d   1      -1.558  74.305 115.800  0.00  0.00     0.016 C 
ATOM      3  C   LIG d   1      -0.705  74.856 116.785  0.00  0.00     0.038 C 
ATOM      4  C   LIG d   1      -0.473  76.236 116.877  0.00  0.00     0.028 C 
ATOM      5  C   LIG d   1      -0.609  76.963 115.543  0.00  0.00    -0.047 C 
ATOM      6  C   LIG d   1      -1.963  76.585 114.901  0.00  0.00     0.091 C 
ENDROOT
BRANCH   1   7
ATOM      7  O   LIG d   1      -3.503  74.705 114.585  0.00  0.00    -0.368 OA
BRANCH   7   8
ATOM      8  C   LIG d   1      -4.416  75.215 115.589  0.00  0.00     0.119 C 
BRANCH   8   9
ATOM      9  C   LIG d   1      -4.968  74.007 116.369  0.00  0.00     0.028 C 
ATOM     10  C   LIG d   1      -5.451  72.880 115.440  0.00  0.00     0.006 C 
ENDBRANCH   8   9
BRANCH   8  11
ATOM     11  C   LIG d   1      -5.638  75.877 114.946  0.00  0.00     0.028 C 
ATOM     12  C   LIG d   1      -5.563  75.905 113.411  0.00  0.00     0.006 C 
ENDBRANCH   8  11
ENDBRANCH   7   8
ENDBRANCH   1   7
BRANCH   6  13
ATOM     13  N   LIG d   1      -2.139  77.187 113.554  0.00  0.00    -0.311 N 
ATOM     14  C   LIG d   1      -2.786  78.331 113.341  0.00  0.00     0.210 C 
ATOM     15  C   LIG d   1      -2.871  78.764 111.874  0.00  0.00     0.109 C 
ATOM     16  O   LIG d   1      -3.271  79.046 114.231  0.00  0.00    -0.276 OA
ATOM     17  H   LIG d   1      -1.750  76.689 112.777  0.00  0.00     0.149 HD
ENDBRANCH   6  13
BRANCH   5  18
ATOM     18  N   LIG d   1      -0.477  78.408 115.807  0.00  0.00     0.381 N 
ATOM     19  H   LIG d   1       0.470  78.624 116.045  0.00  0.00    -0.090 HD
ATOM     20  H   LIG d   1      -1.061  78.650 116.589  0.00  0.00    -0.090 HD
ATOM     21  H   LIG d   1      -0.753  78.928 115.004  0.00  0.00    -0.090 HD
ENDBRANCH   5  18
BRANCH   3  22
ATOM     22  C   LIG d   1      -0.043  74.016 117.668  0.00  0.00     0.382 C 
ATOM     23  O   LIG d   1       0.701  74.500 118.555  0.00  0.00    -0.241 OA
ATOM     24  O   LIG d   1      -0.145  72.779 117.561  0.00  0.00    -0.241 OA
ENDBRANCH   3  22
TORSDOF 7
ENDMDL
MODEL 2
REMARK VINA RESULT:      -4.9      1.781      4.763
REMARK  7 active torsions:
REMARK  status: ('A' for Active; 'I' for Inactive)
REMARK    1  A    between atoms: C_2  and  C_3 
REMARK    2  A    between atoms: C_3  and  O_6 
REMARK    3  A    between atoms: C_3  and  C_4 
REMARK    4  A    between atoms: C_7  and  O_6 
REMARK    5  A    between atoms: C_9  and  C_10 
REMARK    6  A    between atoms: N_15  and  C_14 
REMARK    7  A    between atoms: N_20  and  C_19 
REMARK       I    between atoms: C_22  and  N_20 
ROOT
ATOM      1  C   LIG d   1      -2.669  75.745 115.876  0.00  0.00     0.161 C 
ATOM      2  C   LIG d   1      -3.007  76.913 115.171  0.00  0.00     0.016 C 
ATOM      3  C   LIG d   1      -2.248  77.416 114.089  0.00  0.00     0.038 C 
ATOM      4  C   LIG d   1      -1.177  76.697 113.537  0.00  0.00     0.028 C 
ATOM      5  C   LIG d   1      -0.494  75.767 114.534  0.00  0.00    -0.047 C 
ATOM      6  C   LIG d   1      -1.567  74.889 115.217  0.00  0.00     0.091 C 
ENDROOT
BRANCH   1   7
ATOM      7  O   LIG d   1      -3.851  74.953 116.103  0.00  0.00    -0.368 OA
BRANCH   7   8
ATOM      8  C   LIG d   1      -4.714  74.752 114.957  0.00  0.00     0.119 C 
BRANCH   8   9
ATOM      9  C   LIG d   1      -6.087  75.363 115.298  0.00  0.00     0.028 C 
ATOM     10  C   LIG d   1      -6.618  76.276 114.180  0.00  0.00     0.006 C 
ENDBRANCH   8   9
BRANCH   8  11
ATOM     11  C   LIG d   1      -4.982  73.264 114.714  0.00  0.00     0.028 C 
ATOM     12  C   LIG d   1      -5.732  72.596 115.877  0.00  0.00     0.006 C 
ENDBRANCH   8  11
ENDBRANCH   7   8
ENDBRANCH   1   7
BRANCH   6  13
ATOM     13  N   LIG d   1      -0.994  74.008 116.268  0.00  0.00    -0.311 N 
ATOM     14  C   LIG d   1      -0.287  74.463 117.301  0.00  0.00     0.210 C 
ATOM     15  C   LIG d   1       0.229  73.384 118.257  0.00  0.00     0.109 C 
ATOM     16  O   LIG d   1      -0.066  75.661 117.533  0.00  0.00    -0.276 OA
ATOM     17  H   LIG d   1      -1.152  73.024 116.174  0.00  0.00     0.149 HD
ENDBRANCH   6  13
BRANCH   5  18
ATOM     18  N   LIG d   1       0.511  74.981 113.794  0.00  0.00     0.381 N 
ATOM     19  H   LIG d   1       0.352  74.004 113.940  0.00  0.00    -0.090 HD
ATOM     20  H   LIG d   1       1.424  75.208 114.145  0.00  0.00    -0.090 HD
ATOM     21  H   LIG d   1       0.459  75.191 112.821  0.00  0.00    -0.090 HD
ENDBRANCH   5  18
BRANCH   3  22
ATOM     22  C   LIG d   1      -2.535  78.671 113.573  0.00  0.00     0.382 C 
ATOM     23  O   LIG d   1      -3.395  78.795 112.668  0.00  0.00    -0.241 OA
ATOM     24  O   LIG d   1      -1.913  79.674 113.971  0.00  0.00    -0.241 OA
ENDBRANCH   3  22
TORSDOF 7
ENDMDL
MODEL 3
REMARK VINA RESULT:      -4.7      2.047      5.299
REMARK  7 active torsions:
REMARK  status: ('A' for Active; 'I' for Inactive)
REMARK    1  A    between atoms: C_2  and  C_3 
REMARK    2  A    between atoms: C_3  and  O_6 
REMARK    3  A    between atoms: C_3  and  C_4 
REMARK    4  A    between atoms: C_7  and  O_6 
REMARK    5  A    between atoms: C_9  and  C_10 
REMARK    6  A    between atoms: N_15  and  C_14 
REMARK    7  A    between atoms: N_20  and  C_19 
REMARK       I    between atoms: C_22  and  N_20 
ROOT
ATOM      1  C   LIG d   1      -3.166  77.940 114.781  0.00  0.00     0.161 C 
ATOM      2  C   LIG d   1      -3.315  79.224 114.232  0.00  0.00     0.016 C 
ATOM      3  C   LIG d   1      -2.765  79.606 112.986  0.00  0.00     0.038 C 
ATOM      4  C   LIG d   1      -2.154  78.678 112.130  0.00  0.00     0.028 C 
ATOM      5  C   LIG d   1      -1.538  77.491 112.864  0.00  0.00    -0.047 C 
ATOM      6  C   LIG d   1      -2.597  76.883 113.811  0.00  0.00     0.091 C 
ENDROOT
BRANCH   1   7
ATOM      7  O   LIG d   1      -4.423  77.494 115.328  0.00  0.00    -0.368 OA
BRANCH   7   8
ATOM      8  C   LIG d   1      -4.896  76.204 114.867  0.00  0.00     0.119 C 
BRANCH   8   9
ATOM      9  C   LIG d   1      -6.326  76.400 114.329  0.00  0.00     0.028 C 
ATOM     10  C   LIG d   1      -6.385  76.367 112.792  0.00  0.00     0.006 C 
ENDBRANCH   8   9
BRANCH   8  11
ATOM     11  C   LIG d   1      -5.032  75.213 116.027  0.00  0.00     0.028 C 
ATOM     12  C   LIG d   1      -5.413  73.799 115.562  0.00  0.00     0.006 C 
ENDBRANCH   8  11
ENDBRANCH   7   8
ENDBRANCH   1   7
BRANCH   6  13
ATOM     13  N   LIG d   1      -2.052  75.769 114.630  0.00  0.00    -0.311 N 
ATOM     14  C   LIG d   1      -1.015  75.904 115.454  0.00  0.00     0.210 C 
ATOM     15  C   LIG d   1      -0.602  74.624 116.188  0.00  0.00     0.109 C 
ATOM     16  O   LIG d   1      -0.418  76.969 115.671  0.00  0.00    -0.276 OA
ATOM     17  H   LIG d   1      -2.497  74.876 114.539  0.00  0.00     0.149 HD
ENDBRANCH   6  13
BRANCH   5  18
ATOM     18  N   LIG d   1      -1.059  76.538 111.845  0.00  0.00     0.381 N 
ATOM     19  H   LIG d   1      -1.793  75.904 111.601  0.00  0.00    -0.090 HD
ATOM     20  H   LIG d   1      -0.298  76.006 112.230  0.00  0.00    -0.090 HD
ATOM     21  H   LIG d   1      -0.752  77.030 111.035  0.00  0.00    -0.090 HD
ENDBRANCH   5  18
BRANCH   3  22
ATOM     22  C   LIG d   1      -2.790  80.938 112.604  0.00  0.00     0.382 C 
ATOM     23  O   LIG d   1      -3.866  81.582 112.643  0.00  0.00    -0.241 OA
ATOM     24  O   LIG d   1      -1.759  81.493 112.178  0.00  0.00    -0.241 OA
ENDBRANCH   3  22
TORSDOF 7
ENDMDL
MODEL 4
REMARK VINA RESULT:      -4.6      9.488     12.153
REMARK  7 active torsions:
REMARK  status: ('A' for Active; 'I' for Inactive)
REMARK    1  A    between atoms: C_2  and  C_3 
REMARK    2  A    between atoms: C_3  and  O_6 
REMARK    3  A    between atoms: C_3  and  C_4 
REMARK    4  A    between atoms: C_7  and  O_6 
REMARK    5  A    between atoms: C_9  and  C_10 
REMARK    6  A    between atoms: N_15  and  C_14 
REMARK    7  A    between atoms: N_20  and  C_19 
REMARK       I    between atoms: C_22  and  N_20 
ROOT
ATOM      1  C   LIG d   1       3.196  85.565 114.090  0.00  0.00     0.161 C 
ATOM      2  C   LIG d   1       3.834  86.596 113.380  0.00  0.00     0.016 C 
ATOM      3  C   LIG d   1       4.731  87.512 113.977  0.00  0.00     0.038 C 
ATOM      4  C   LIG d   1       5.171  87.364 115.301  0.00  0.00     0.028 C 
ATOM      5  C   LIG d   1       4.169  86.641 116.194  0.00  0.00    -0.047 C 
ATOM      6  C   LIG d   1       3.749  85.320 115.510  0.00  0.00     0.091 C 
ENDROOT
BRANCH   1   7
ATOM      7  O   LIG d   1       3.233  84.347 113.321  0.00  0.00    -0.368 OA
BRANCH   7   8
ATOM      8  C   LIG d   1       2.176  84.176 112.346  0.00  0.00     0.119 C 
BRANCH   8   9
ATOM      9  C   LIG d   1       0.834  84.368 113.080  0.00  0.00     0.028 C 
ATOM     10  C   LIG d   1      -0.047  85.443 112.421  0.00  0.00     0.006 C 
ENDBRANCH   8   9
BRANCH   8  11
ATOM     11  C   LIG d   1       2.141  82.744 111.806  0.00  0.00     0.028 C 
ATOM     12  C   LIG d   1       1.349  81.785 112.709  0.00  0.00     0.006 C 
ENDBRANCH   8  11
ENDBRANCH   7   8
ENDBRANCH   1   7
BRANCH   6  13
ATOM     13  N   LIG d   1       2.706  84.590 116.278  0.00  0.00    -0.311 N 
ATOM     14  C   LIG d   1       2.775  83.289 116.554  0.00  0.00     0.210 C 
ATOM     15  C   LIG d   1       1.585  82.731 117.341  0.00  0.00     0.109 C 
ATOM     16  O   LIG d   1       3.724  82.551 116.250  0.00  0.00    -0.276 OA
ATOM     17  H   LIG d   1       1.916  85.119 116.591  0.00  0.00     0.149 HD
ENDBRANCH   6  13
BRANCH   5  18
ATOM     18  N   LIG d   1       4.810  86.434 117.506  0.00  0.00     0.381 N 
ATOM     19  H   LIG d   1       4.760  85.467 117.759  0.00  0.00    -0.090 HD
ATOM     20  H   LIG d   1       4.314  86.967 118.199  0.00  0.00    -0.090 HD
ATOM     21  H   LIG d   1       5.762  86.726 117.471  0.00  0.00    -0.090 HD
ENDBRANCH   5  18
BRANCH   3  22
ATOM     22  C   LIG d   1       5.168  88.614 113.257  0.00  0.00     0.382 C 
ATOM     23  O   LIG d   1       4.402  89.592 113.083  0.00  0.00    -0.241 OA
ATOM     24  O   LIG d   1       6.302  88.623 112.742  0.00  0.00    -0.241 OA
ENDBRANCH   3  22
TORSDOF 7
ENDMDL
MODEL 5
REMARK VINA RESULT:      -4.5      2.539      2.877
REMARK  7 active torsions:
REMARK  status: ('A' for Active; 'I' for Inactive)
REMARK    1  A    between atoms: C_2  and  C_3 
REMARK    2  A    between atoms: C_3  and  O_6 
REMARK    3  A    between atoms: C_3  and  C_4 
REMARK    4  A    between atoms: C_7  and  O_6 
REMARK    5  A    between atoms: C_9  and  C_10 
REMARK    6  A    between atoms: N_15  and  C_14 
REMARK    7  A    between atoms: N_20  and  C_19 
REMARK       I    between atoms: C_22  and  N_20 
ROOT
ATOM      1  C   LIG d   1      -3.609  75.603 116.138  0.00  0.00     0.161 C 
ATOM      2  C   LIG d   1      -2.566  75.015 115.403  0.00  0.00     0.016 C 
ATOM      3  C   LIG d   1      -1.219  75.437 115.490  0.00  0.00     0.038 C 
ATOM      4  C   LIG d   1      -0.798  76.381 116.438  0.00  0.00     0.028 C 
ATOM      5  C   LIG d   1      -1.894  77.359 116.848  0.00  0.00    -0.047 C 
ATOM      6  C   LIG d   1      -3.152  76.559 117.259  0.00  0.00     0.091 C 
ENDROOT
BRANCH   1   7
ATOM      7  O   LIG d   1      -4.467  74.577 116.674  0.00  0.00    -0.368 OA
BRANCH   7   8
ATOM      8  C   LIG d   1      -5.662  74.281 115.910  0.00  0.00     0.119 C 
BRANCH   8   9
ATOM      9  C   LIG d   1      -5.402  72.979 115.129  0.00  0.00     0.028 C 
ATOM     10  C   LIG d   1      -6.077  71.760 115.779  0.00  0.00     0.006 C 
ENDBRANCH   8   9
BRANCH   8  11
ATOM     11  C   LIG d   1      -5.920  75.350 114.843  0.00  0.00     0.028 C 
ATOM     12  C   LIG d   1      -7.180  76.183 115.126  0.00  0.00     0.006 C 
ENDBRANCH   8  11
ENDBRANCH   7   8
ENDBRANCH   1   7
BRANCH   6  13
ATOM     13  N   LIG d   1      -4.300  77.442 117.594  0.00  0.00    -0.311 N 
ATOM     14  C   LIG d   1      -4.765  78.382 116.774  0.00  0.00     0.210 C 
ATOM     15  C   LIG d   1      -5.943  79.193 117.322  0.00  0.00     0.109 C 
ATOM     16  O   LIG d   1      -4.335  78.600 115.631  0.00  0.00    -0.276 OA
ATOM     17  H   LIG d   1      -4.729  77.312 118.489  0.00  0.00     0.149 HD
ENDBRANCH   6  13
BRANCH   5  18
ATOM     18  N   LIG d   1      -1.359  78.196 117.938  0.00  0.00     0.381 N 
ATOM     19  H   LIG d   1      -0.837  77.629 118.576  0.00  0.00    -0.090 HD
ATOM     20  H   LIG d   1      -2.127  78.608 118.439  0.00  0.00    -0.090 HD
ATOM     21  H   LIG d   1      -0.776  78.912 117.564  0.00  0.00    -0.090 HD
ENDBRANCH   5  18
BRANCH   3  22
ATOM     22  C   LIG d   1      -0.284  74.940 114.595  0.00  0.00     0.382 C 
ATOM     23  O   LIG d   1       0.822  75.515 114.460  0.00  0.00    -0.241 OA
ATOM     24  O   LIG d   1      -0.551  73.949 113.888  0.00  0.00    -0.241 OA
ENDBRANCH   3  22
TORSDOF 7
ENDMDL
MODEL 6
REMARK VINA RESULT:      -4.4     10.392     13.088
REMARK  7 active torsions:
REMARK  status: ('A' for Active; 'I' for Inactive)
REMARK    1  A    between atoms: C_2  and  C_3 
REMARK    2  A    between atoms: C_3  and  O_6 
REMARK    3  A    between atoms: C_3  and  C_4 
REMARK    4  A    between atoms: C_7  and  O_6 
REMARK    5  A    between atoms: C_9  and  C_10 
REMARK    6  A    between atoms: N_15  and  C_14 
REMARK    7  A    between atoms: N_20  and  C_19 
REMARK       I    between atoms: C_22  and  N_20 
ROOT
ATOM      1  C   LIG d   1       2.392  87.267 115.313  0.00  0.00     0.161 C 
ATOM      2  C   LIG d   1       3.049  88.470 115.001  0.00  0.00     0.016 C 
ATOM      3  C   LIG d   1       4.421  88.696 115.256  0.00  0.00     0.038 C 
ATOM      4  C   LIG d   1       5.270  87.673 115.704  0.00  0.00     0.028 C 
ATOM      5  C   LIG d   1       4.549  86.596 116.507  0.00  0.00    -0.047 C 
ATOM      6  C   LIG d   1       3.326  86.102 115.700  0.00  0.00     0.091 C 
ENDROOT
BRANCH   1   7
ATOM      7  O   LIG d   1       1.535  86.881 114.220  0.00  0.00    -0.368 OA
BRANCH   7   8
ATOM      8  C   LIG d   1       2.078  85.901 113.301  0.00  0.00     0.119 C 
BRANCH   8   9
ATOM      9  C   LIG d   1       2.588  86.661 112.062  0.00  0.00     0.028 C 
ATOM     10  C   LIG d   1       4.110  86.531 111.879  0.00  0.00     0.006 C 
ENDBRANCH   8   9
BRANCH   8  11
ATOM     11  C   LIG d   1       0.986  84.962 112.779  0.00  0.00     0.028 C 
ATOM     12  C   LIG d   1       1.297  83.481 113.043  0.00  0.00     0.006 C 
ENDBRANCH   8  11
ENDBRANCH   7   8
ENDBRANCH   1   7
BRANCH   6  13
ATOM     13  N   LIG d   1       2.517  85.106 116.450  0.00  0.00    -0.311 N 
ATOM     14  C   LIG d   1       2.727  83.793 116.386  0.00  0.00     0.210 C 
ATOM     15  C   LIG d   1       1.766  82.943 117.222  0.00  0.00     0.109 C 
ATOM     16  O   LIG d   1       3.640  83.253 115.742  0.00  0.00    -0.276 OA
ATOM     17  H   LIG d   1       1.775  85.460 117.022  0.00  0.00     0.149 HD
ENDBRANCH   6  13
BRANCH   5  18
ATOM     18  N   LIG d   1       5.523  85.526 116.793  0.00  0.00     0.381 N 
ATOM     19  H   LIG d   1       5.133  84.638 116.548  0.00  0.00    -0.090 HD
ATOM     20  H   LIG d   1       5.722  85.522 117.778  0.00  0.00    -0.090 HD
ATOM     21  H   LIG d   1       6.362  85.681 116.278  0.00  0.00    -0.090 HD
ENDBRANCH   5  18
BRANCH   3  22
ATOM     22  C   LIG d   1       4.948  89.968 115.099  0.00  0.00     0.382 C 
ATOM     23  O   LIG d   1       5.391  90.591 116.094  0.00  0.00    -0.241 OA
ATOM     24  O   LIG d   1       4.946  90.520 113.982  0.00  0.00    -0.241 OA
ENDBRANCH   3  22
TORSDOF 7
ENDMDL
MODEL 7
REMARK VINA RESULT:      -4.1     12.484     15.021
REMARK  7 active torsions:
REMARK  status: ('A' for Active; 'I' for Inactive)
REMARK    1  A    between atoms: C_2  and  C_3 
REMARK    2  A    between atoms: C_3  and  O_6 
REMARK    3  A    between atoms: C_3  and  C_4 
REMARK    4  A    between atoms: C_7  and  O_6 
REMARK    5  A    between atoms: C_9  and  C_10 
REMARK    6  A    between atoms: N_15  and  C_14 
REMARK    7  A    between atoms: N_20  and  C_19 
REMARK       I    between atoms: C_22  and  N_20 
ROOT
ATOM      1  C   LIG d   1       3.714  88.099 116.535  0.00  0.00     0.161 C 
ATOM      2  C   LIG d   1       2.543  88.874 116.592  0.00  0.00     0.016 C 
ATOM      3  C   LIG d   1       2.548  90.282 116.719  0.00  0.00     0.038 C 
ATOM      4  C   LIG d   1       3.733  91.030 116.645  0.00  0.00     0.028 C 
ATOM      5  C   LIG d   1       4.966  90.255 117.096  0.00  0.00    -0.047 C 
ATOM      6  C   LIG d   1       5.015  88.906 116.342  0.00  0.00     0.091 C 
ENDROOT
BRANCH   1   7
ATOM      7  O   LIG d   1       3.587  87.098 115.506  0.00  0.00    -0.368 OA
BRANCH   7   8
ATOM      8  C   LIG d   1       2.660  87.399 114.434  0.00  0.00     0.119 C 
BRANCH   8   9
ATOM      9  C   LIG d   1       2.099  86.060 113.918  0.00  0.00     0.028 C 
ATOM     10  C   LIG d   1       0.626  86.167 113.490  0.00  0.00     0.006 C 
ENDBRANCH   8   9
BRANCH   8  11
ATOM     11  C   LIG d   1       3.378  88.027 113.236  0.00  0.00     0.028 C 
ATOM     12  C   LIG d   1       4.294  87.033 112.503  0.00  0.00     0.006 C 
ENDBRANCH   8  11
ENDBRANCH   7   8
ENDBRANCH   1   7
BRANCH   6  13
ATOM     13  N   LIG d   1       6.145  88.049 116.785  0.00  0.00    -0.311 N 
ATOM     14  C   LIG d   1       7.093  87.603 115.963  0.00  0.00     0.210 C 
ATOM     15  C   LIG d   1       8.156  86.717 116.621  0.00  0.00     0.109 C 
ATOM     16  O   LIG d   1       7.173  87.882 114.757  0.00  0.00    -0.276 OA
ATOM     17  H   LIG d   1       6.176  87.799 117.754  0.00  0.00     0.149 HD
ENDBRANCH   6  13
BRANCH   5  18
ATOM     18  N   LIG d   1       6.145  91.103 116.838  0.00  0.00     0.381 N 
ATOM     19  H   LIG d   1       6.233  91.272 115.855  0.00  0.00    -0.090 HD
ATOM     20  H   LIG d   1       6.969  90.620 117.149  0.00  0.00    -0.090 HD
ATOM     21  H   LIG d   1       6.055  91.969 117.324  0.00  0.00    -0.090 HD
ENDBRANCH   5  18
BRANCH   3  22
ATOM     22  C   LIG d   1       1.359  90.954 116.961  0.00  0.00     0.382 C 
ATOM     23  O   LIG d   1       1.381  92.109 117.452  0.00  0.00    -0.241 OA
ATOM     24  O   LIG d   1       0.265  90.404 116.737  0.00  0.00    -0.241 OA
ENDBRANCH   3  22
TORSDOF 7
ENDMDL
MODEL 8
REMARK VINA RESULT:      -4.1      2.217      4.626
REMARK  7 active torsions:
REMARK  status: ('A' for Active; 'I' for Inactive)
REMARK    1  A    between atoms: C_2  and  C_3 
REMARK    2  A    between atoms: C_3  and  O_6 
REMARK    3  A    between atoms: C_3  and  C_4 
REMARK    4  A    between atoms: C_7  and  O_6 
REMARK    5  A    between atoms: C_9  and  C_10 
REMARK    6  A    between atoms: N_15  and  C_14 
REMARK    7  A    between atoms: N_20  and  C_19 
REMARK       I    between atoms: C_22  and  N_20 
ROOT
ATOM      1  C   LIG d   1      -2.377  78.404 115.624  0.00  0.00     0.161 C 
ATOM      2  C   LIG d   1      -1.049  78.540 116.062  0.00  0.00     0.016 C 
ATOM      3  C   LIG d   1      -0.242  77.446 116.450  0.00  0.00     0.038 C 
ATOM      4  C   LIG d   1      -0.661  76.118 116.280  0.00  0.00     0.028 C 
ATOM      5  C   LIG d   1      -2.176  75.952 116.316  0.00  0.00    -0.047 C 
ATOM      6  C   LIG d   1      -2.814  76.954 115.327  0.00  0.00     0.091 C 
ENDROOT
BRANCH   1   7
ATOM      7  O   LIG d   1      -2.599  79.240 114.472  0.00  0.00    -0.368 OA
BRANCH   7   8
ATOM      8  C   LIG d   1      -1.665  79.078 113.376  0.00  0.00     0.119 C 
BRANCH   8   9
ATOM      9  C   LIG d   1      -1.731  80.356 112.518  0.00  0.00     0.028 C 
ATOM     10  C   LIG d   1      -0.399  80.656 111.810  0.00  0.00     0.006 C 
ENDBRANCH   8   9
BRANCH   8  11
ATOM     11  C   LIG d   1      -2.092  77.941 112.443  0.00  0.00     0.028 C 
ATOM     12  C   LIG d   1      -3.470  78.180 111.805  0.00  0.00     0.006 C 
ENDBRANCH   8  11
ENDBRANCH   7   8
ENDBRANCH   1   7
BRANCH   6  13
ATOM     13  N   LIG d   1      -4.300  76.917 115.361  0.00  0.00    -0.311 N 
ATOM     14  C   LIG d   1      -5.034  76.174 114.534  0.00  0.00     0.210 C 
ATOM     15  C   LIG d   1      -6.548  76.297 114.726  0.00  0.00     0.109 C 
ATOM     16  O   LIG d   1      -4.573  75.400 113.682  0.00  0.00    -0.276 OA
ATOM     17  H   LIG d   1      -4.755  77.491 116.043  0.00  0.00     0.149 HD
ENDBRANCH   6  13
BRANCH   5  18
ATOM     18  N   LIG d   1      -2.478  74.546 115.990  0.00  0.00     0.381 N 
ATOM     19  H   LIG d   1      -3.468  74.399 116.007  0.00  0.00    -0.090 HD
ATOM     20  H   LIG d   1      -2.060  73.953 116.685  0.00  0.00    -0.090 HD
ATOM     21  H   LIG d   1      -2.117  74.319 115.089  0.00  0.00    -0.090 HD
ENDBRANCH   5  18
BRANCH   3  22
ATOM     22  C   LIG d   1       0.986  77.677 117.051  0.00  0.00     0.382 C 
ATOM     23  O   LIG d   1       1.473  78.834 117.057  0.00  0.00    -0.241 OA
ATOM     24  O   LIG d   1       1.633  76.736 117.549  0.00  0.00    -0.241 OA
ENDBRANCH   3  22
TORSDOF 7
ENDMDL
MODEL 9
REMARK VINA RESULT:      -4.1     17.560     20.093
REMARK  7 active torsions:
REMARK  status: ('A' for Active; 'I' for Inactive)
REMARK    1  A    between atoms: C_2  and  C_3 
REMARK    2  A    between atoms: C_3  and  O_6 
REMARK    3  A    between atoms: C_3  and  C_4 
REMARK    4  A    between atoms: C_7  and  O_6 
REMARK    5  A    between atoms: C_9  and  C_10 
REMARK    6  A    between atoms: N_15  and  C_14 
REMARK    7  A    between atoms: N_20  and  C_19 
REMARK       I    between atoms: C_22  and  N_20 
ROOT
ATOM      1  C   LIG d   1       2.283  57.637 117.270  0.00  0.00     0.161 C 
ATOM      2  C   LIG d   1       1.739  58.506 116.309  0.00  0.00     0.016 C 
ATOM      3  C   LIG d   1       0.491  58.289 115.681  0.00  0.00     0.038 C 
ATOM      4  C   LIG d   1      -0.372  57.260 116.085  0.00  0.00     0.028 C 
ATOM      5  C   LIG d   1       0.353  56.065 116.695  0.00  0.00    -0.047 C 
ATOM      6  C   LIG d   1       1.306  56.569 117.803  0.00  0.00     0.091 C 
ENDROOT
BRANCH   1   7
ATOM      7  O   LIG d   1       2.836  58.399 118.361  0.00  0.00    -0.368 OA
BRANCH   7   8
ATOM      8  C   LIG d   1       4.279  58.528 118.382  0.00  0.00     0.119 C 
BRANCH   8   9
ATOM      9  C   LIG d   1       4.642  59.803 117.596  0.00  0.00     0.028 C 
ATOM     10  C   LIG d   1       6.144  60.127 117.664  0.00  0.00     0.006 C 
ENDBRANCH   8   9
BRANCH   8  11
ATOM     11  C   LIG d   1       4.952  57.379 117.623  0.00  0.00     0.028 C 
ATOM     12  C   LIG d   1       5.680  56.397 118.554  0.00  0.00     0.006 C 
ENDBRANCH   8  11
ENDBRANCH   7   8
ENDBRANCH   1   7
BRANCH   6  13
ATOM     13  N   LIG d   1       2.116  55.473 118.395  0.00  0.00    -0.311 N 
ATOM     14  C   LIG d   1       2.640  54.480 117.679  0.00  0.00     0.210 C 
ATOM     15  C   LIG d   1       3.425  53.443 118.489  0.00  0.00     0.109 C 
ATOM     16  O   LIG d   1       2.557  54.376 116.446  0.00  0.00    -0.276 OA
ATOM     17  H   LIG d   1       2.260  55.496 119.386  0.00  0.00     0.149 HD
ENDBRANCH   6  13
BRANCH   5  18
ATOM     18  N   LIG d   1      -0.673  55.130 117.196  0.00  0.00     0.381 N 
ATOM     19  H   LIG d   1      -0.930  55.378 118.130  0.00  0.00    -0.090 HD
ATOM     20  H   LIG d   1      -0.287  54.202 117.211  0.00  0.00    -0.090 HD
ATOM     21  H   LIG d   1      -1.474  55.154 116.605  0.00  0.00    -0.090 HD
ENDBRANCH   5  18
BRANCH   3  22
ATOM     22  C   LIG d   1       0.114  59.084 114.610  0.00  0.00     0.382 C 
ATOM     23  O   LIG d   1       0.968  59.787 114.019  0.00  0.00    -0.241 OA
ATOM     24  O   LIG d   1      -1.079  59.140 114.254  0.00  0.00    -0.241 OA
ENDBRANCH   3  22
TORSDOF 7
ENDMDL
