MODEL 1
REMARK VINA RESULT:      -5.9      0.000      0.000
REMARK  7 active torsions:
REMARK  status: ('A' for Active; 'I' for Inactive)
REMARK    1  A    between atoms: C_2  and  C_3 
REMARK    2  A    between atoms: C_3  and  O_6 
REMARK    3  A    between atoms: C_3  and  C_4 
REMARK    4  A    between atoms: C_7  and  O_6 
REMARK    5  A    between atoms: C_9  and  C_10 
REMARK    6  A    between atoms: N_15  and  C_14 
REMARK    7  A    between atoms: N_20  and  C_19 
REMARK       I    between atoms: C_22  and  N_20 
ROOT
ATOM      1  C   LIG d   1     -16.183  66.009 114.213  0.00  0.00     0.161 C 
ATOM      2  C   LIG d   1     -15.623  66.819 113.211  0.00  0.00     0.016 C 
ATOM      3  C   LIG d   1     -15.024  68.074 113.469  0.00  0.00     0.038 C 
ATOM      4  C   LIG d   1     -14.809  68.538 114.775  0.00  0.00     0.028 C 
ATOM      5  C   LIG d   1     -15.809  67.987 115.786  0.00  0.00    -0.047 C 
ATOM      6  C   LIG d   1     -15.858  66.448 115.656  0.00  0.00     0.091 C 
ENDROOT
BRANCH   1   7
ATOM      7  O   LIG d   1     -15.792  64.637 114.007  0.00  0.00    -0.368 OA
BRANCH   7   8
ATOM      8  C   LIG d   1     -16.864  63.706 113.718  0.00  0.00     0.119 C 
BRANCH   8   9
ATOM      9  C   LIG d   1     -18.163  64.523 113.580  0.00  0.00     0.028 C 
ATOM     10  C   LIG d   1     -18.910  64.222 112.270  0.00  0.00     0.006 C 
ENDBRANCH   8   9
BRANCH   8  11
ATOM     11  C   LIG d   1     -17.107  62.753 114.892  0.00  0.00     0.028 C 
ATOM     12  C   LIG d   1     -17.748  61.425 114.459  0.00  0.00     0.006 C 
ENDBRANCH   8  11
ENDBRANCH   7   8
ENDBRANCH   1   7
BRANCH   6  13
ATOM     13  N   LIG d   1     -16.873  65.835 116.552  0.00  0.00    -0.311 N 
ATOM     14  C   LIG d   1     -16.589  65.351 117.760  0.00  0.00     0.210 C 
ATOM     15  C   LIG d   1     -17.779  64.745 118.510  0.00  0.00     0.109 C 
ATOM     16  O   LIG d   1     -15.471  65.395 118.294  0.00  0.00    -0.276 OA
ATOM     17  H   LIG d   1     -17.813  65.787 116.210  0.00  0.00     0.149 HD
ENDBRANCH   6  13
BRANCH   5  18
ATOM     18  N   LIG d   1     -15.386  68.441 117.125  0.00  0.00     0.381 N 
ATOM     19  H   LIG d   1     -15.907  67.957 117.827  0.00  0.00    -0.090 HD
ATOM     20  H   LIG d   1     -15.578  69.424 117.210  0.00  0.00    -0.090 HD
ATOM     21  H   LIG d   1     -14.411  68.274 117.249  0.00  0.00    -0.090 HD
ENDBRANCH   5  18
BRANCH   3  22
ATOM     22  C   LIG d   1     -14.670  68.897 112.411  0.00  0.00     0.382 C 
ATOM     23  O   LIG d   1     -13.498  68.874 111.964  0.00  0.00    -0.241 OA
ATOM     24  O   LIG d   1     -15.496  69.693 111.926  0.00  0.00    -0.241 OA
ENDBRANCH   3  22
TORSDOF 7
ENDMDL
MODEL 2
REMARK VINA RESULT:      -5.6     14.021     16.611
REMARK  7 active torsions:
REMARK  status: ('A' for Active; 'I' for Inactive)
REMARK    1  A    between atoms: C_2  and  C_3 
REMARK    2  A    between atoms: C_3  and  O_6 
REMARK    3  A    between atoms: C_3  and  C_4 
REMARK    4  A    between atoms: C_7  and  O_6 
REMARK    5  A    between atoms: C_9  and  C_10 
REMARK    6  A    between atoms: N_15  and  C_14 
REMARK    7  A    between atoms: N_20  and  C_19 
REMARK       I    between atoms: C_22  and  N_20 
ROOT
ATOM      1  C   LIG d   1      -3.303  75.996 115.131  0.00  0.00     0.161 C 
ATOM      2  C   LIG d   1      -3.422  77.021 114.177  0.00  0.00     0.016 C 
ATOM      3  C   LIG d   1      -2.311  77.676 113.597  0.00  0.00     0.038 C 
ATOM      4  C   LIG d   1      -0.996  77.244 113.820  0.00  0.00     0.028 C 
ATOM      5  C   LIG d   1      -0.807  76.543 115.161  0.00  0.00    -0.047 C 
ATOM      6  C   LIG d   1      -1.876  75.436 115.303  0.00  0.00     0.091 C 
ENDROOT
BRANCH   1   7
ATOM      7  O   LIG d   1      -4.226  74.933 114.822  0.00  0.00    -0.368 OA
BRANCH   7   8
ATOM      8  C   LIG d   1      -5.276  74.698 115.792  0.00  0.00     0.119 C 
BRANCH   8   9
ATOM      9  C   LIG d   1      -5.828  73.281 115.542  0.00  0.00     0.028 C 
ATOM     10  C   LIG d   1      -7.077  72.981 116.388  0.00  0.00     0.006 C 
ENDBRANCH   8   9
BRANCH   8  11
ATOM     11  C   LIG d   1      -6.462  75.641 115.568  0.00  0.00     0.028 C 
ATOM     12  C   LIG d   1      -6.583  76.715 116.661  0.00  0.00     0.006 C 
ENDBRANCH   8  11
ENDBRANCH   7   8
ENDBRANCH   1   7
BRANCH   6  13
ATOM     13  N   LIG d   1      -1.816  74.756 116.624  0.00  0.00    -0.311 N 
ATOM     14  C   LIG d   1      -1.166  73.612 116.831  0.00  0.00     0.210 C 
ATOM     15  C   LIG d   1      -1.248  73.073 118.262  0.00  0.00     0.109 C 
ATOM     16  O   LIG d   1      -0.503  73.010 115.973  0.00  0.00    -0.276 OA
ATOM     17  H   LIG d   1      -2.301  75.193 117.384  0.00  0.00     0.149 HD
ENDBRANCH   6  13
BRANCH   5  18
ATOM     18  N   LIG d   1       0.573  76.024 115.203  0.00  0.00     0.381 N 
ATOM     19  H   LIG d   1       0.926  75.925 114.272  0.00  0.00    -0.090 HD
ATOM     20  H   LIG d   1       0.566  75.117 115.636  0.00  0.00    -0.090 HD
ATOM     21  H   LIG d   1       1.155  76.644 115.723  0.00  0.00    -0.090 HD
ENDBRANCH   5  18
BRANCH   3  22
ATOM     22  C   LIG d   1      -2.511  78.803 112.813  0.00  0.00     0.382 C 
ATOM     23  O   LIG d   1      -1.790  79.001 111.805  0.00  0.00    -0.241 OA
ATOM     24  O   LIG d   1      -3.372  79.646 113.127  0.00  0.00    -0.241 OA
ENDBRANCH   3  22
TORSDOF 7
ENDMDL
MODEL 3
REMARK VINA RESULT:      -5.4      2.587      4.277
REMARK  7 active torsions:
REMARK  status: ('A' for Active; 'I' for Inactive)
REMARK    1  A    between atoms: C_2  and  C_3 
REMARK    2  A    between atoms: C_3  and  O_6 
REMARK    3  A    between atoms: C_3  and  C_4 
REMARK    4  A    between atoms: C_7  and  O_6 
REMARK    5  A    between atoms: C_9  and  C_10 
REMARK    6  A    between atoms: N_15  and  C_14 
REMARK    7  A    between atoms: N_20  and  C_19 
REMARK       I    between atoms: C_22  and  N_20 
ROOT
ATOM      1  C   LIG d   1     -16.354  64.612 116.557  0.00  0.00     0.161 C 
ATOM      2  C   LIG d   1     -15.756  65.861 116.792  0.00  0.00     0.016 C 
ATOM      3  C   LIG d   1     -15.362  66.742 115.759  0.00  0.00     0.038 C 
ATOM      4  C   LIG d   1     -15.678  66.496 114.414  0.00  0.00     0.028 C 
ATOM      5  C   LIG d   1     -15.829  65.014 114.089  0.00  0.00    -0.047 C 
ATOM      6  C   LIG d   1     -16.808  64.376 115.101  0.00  0.00     0.091 C 
ENDROOT
BRANCH   1   7
ATOM      7  O   LIG d   1     -17.458  64.420 117.463  0.00  0.00    -0.368 OA
BRANCH   7   8
ATOM      8  C   LIG d   1     -18.755  64.862 116.991  0.00  0.00     0.119 C 
BRANCH   8   9
ATOM      9  C   LIG d   1     -19.228  65.992 117.925  0.00  0.00     0.028 C 
ATOM     10  C   LIG d   1     -19.276  67.357 117.218  0.00  0.00     0.006 C 
ENDBRANCH   8   9
BRANCH   8  11
ATOM     11  C   LIG d   1     -19.805  63.755 117.129  0.00  0.00     0.028 C 
ATOM     12  C   LIG d   1     -20.948  63.889 116.110  0.00  0.00     0.006 C 
ENDBRANCH   8  11
ENDBRANCH   7   8
ENDBRANCH   1   7
BRANCH   6  13
ATOM     13  N   LIG d   1     -16.948  62.909 114.906  0.00  0.00    -0.311 N 
ATOM     14  C   LIG d   1     -17.897  62.357 114.152  0.00  0.00     0.210 C 
ATOM     15  C   LIG d   1     -17.875  60.826 114.102  0.00  0.00     0.109 C 
ATOM     16  O   LIG d   1     -18.735  62.991 113.494  0.00  0.00    -0.276 OA
ATOM     17  H   LIG d   1     -16.290  62.321 115.379  0.00  0.00     0.149 HD
ENDBRANCH   6  13
BRANCH   5  18
ATOM     18  N   LIG d   1     -16.293  64.910 112.692  0.00  0.00     0.381 N 
ATOM     19  H   LIG d   1     -17.216  64.524 112.670  0.00  0.00    -0.090 HD
ATOM     20  H   LIG d   1     -15.680  64.291 112.192  0.00  0.00    -0.090 HD
ATOM     21  H   LIG d   1     -16.291  65.809 112.264  0.00  0.00    -0.090 HD
ENDBRANCH   5  18
BRANCH   3  22
ATOM     22  C   LIG d   1     -14.607  67.864 116.063  0.00  0.00     0.382 C 
ATOM     23  O   LIG d   1     -13.606  67.762 116.813  0.00  0.00    -0.241 OA
ATOM     24  O   LIG d   1     -14.940  68.985 115.634  0.00  0.00    -0.241 OA
ENDBRANCH   3  22
TORSDOF 7
ENDMDL
MODEL 4
REMARK VINA RESULT:      -4.8     11.947     15.114
REMARK  7 active torsions:
REMARK  status: ('A' for Active; 'I' for Inactive)
REMARK    1  A    between atoms: C_2  and  C_3 
REMARK    2  A    between atoms: C_3  and  O_6 
REMARK    3  A    between atoms: C_3  and  C_4 
REMARK    4  A    between atoms: C_7  and  O_6 
REMARK    5  A    between atoms: C_9  and  C_10 
REMARK    6  A    between atoms: N_15  and  C_14 
REMARK    7  A    between atoms: N_20  and  C_19 
REMARK       I    between atoms: C_22  and  N_20 
ROOT
ATOM      1  C   LIG d   1      -5.241  74.674 116.504  0.00  0.00     0.161 C 
ATOM      2  C   LIG d   1      -5.947  73.493 116.217  0.00  0.00     0.016 C 
ATOM      3  C   LIG d   1      -7.266  73.248 116.662  0.00  0.00     0.038 C 
ATOM      4  C   LIG d   1      -8.029  74.236 117.301  0.00  0.00     0.028 C 
ATOM      5  C   LIG d   1      -7.186  75.260 118.054  0.00  0.00    -0.047 C 
ATOM      6  C   LIG d   1      -6.097  75.809 117.104  0.00  0.00     0.091 C 
ENDROOT
BRANCH   1   7
ATOM      7  O   LIG d   1      -4.558  75.134 115.321  0.00  0.00    -0.368 OA
BRANCH   7   8
ATOM      8  C   LIG d   1      -3.111  75.072 115.357  0.00  0.00     0.119 C 
BRANCH   8   9
ATOM      9  C   LIG d   1      -2.711  74.297 116.627  0.00  0.00     0.028 C 
ATOM     10  C   LIG d   1      -1.277  73.748 116.553  0.00  0.00     0.006 C 
ENDBRANCH   8   9
BRANCH   8  11
ATOM     11  C   LIG d   1      -2.498  76.466 115.523  0.00  0.00     0.028 C 
ATOM     12  C   LIG d   1      -3.062  77.488 114.524  0.00  0.00     0.006 C 
ENDBRANCH   8  11
ENDBRANCH   7   8
ENDBRANCH   1   7
BRANCH   6  13
ATOM     13  N   LIG d   1      -5.175  76.755 117.786  0.00  0.00    -0.311 N 
ATOM     14  C   LIG d   1      -5.312  78.078 117.733  0.00  0.00     0.210 C 
ATOM     15  C   LIG d   1      -4.241  78.870 118.490  0.00  0.00     0.109 C 
ATOM     16  O   LIG d   1      -6.238  78.671 117.159  0.00  0.00    -0.276 OA
ATOM     17  H   LIG d   1      -4.413  76.358 118.301  0.00  0.00     0.149 HD
ENDBRANCH   6  13
BRANCH   5  18
ATOM     18  N   LIG d   1      -8.097  76.306 118.554  0.00  0.00     0.381 N 
ATOM     19  H   LIG d   1      -7.571  77.025 119.009  0.00  0.00    -0.090 HD
ATOM     20  H   LIG d   1      -8.722  75.899 119.228  0.00  0.00    -0.090 HD
ATOM     21  H   LIG d   1      -8.619  76.694 117.799  0.00  0.00    -0.090 HD
ENDBRANCH   5  18
BRANCH   3  22
ATOM     22  C   LIG d   1      -7.821  71.987 116.504  0.00  0.00     0.382 C 
ATOM     23  O   LIG d   1      -8.931  71.721 117.025  0.00  0.00    -0.241 OA
ATOM     24  O   LIG d   1      -7.205  71.099 115.885  0.00  0.00    -0.241 OA
ENDBRANCH   3  22
TORSDOF 7
ENDMDL
MODEL 5
REMARK VINA RESULT:      -4.8     14.171     17.065
REMARK  7 active torsions:
REMARK  status: ('A' for Active; 'I' for Inactive)
REMARK    1  A    between atoms: C_2  and  C_3 
REMARK    2  A    between atoms: C_3  and  O_6 
REMARK    3  A    between atoms: C_3  and  C_4 
REMARK    4  A    between atoms: C_7  and  O_6 
REMARK    5  A    between atoms: C_9  and  C_10 
REMARK    6  A    between atoms: N_15  and  C_14 
REMARK    7  A    between atoms: N_20  and  C_19 
REMARK       I    between atoms: C_22  and  N_20 
ROOT
ATOM      1  C   LIG d   1      -2.973  75.188 115.437  0.00  0.00     0.161 C 
ATOM      2  C   LIG d   1      -2.577  74.316 116.465  0.00  0.00     0.016 C 
ATOM      3  C   LIG d   1      -1.342  74.424 117.144  0.00  0.00     0.038 C 
ATOM      4  C   LIG d   1      -0.478  75.511 116.943  0.00  0.00     0.028 C 
ATOM      5  C   LIG d   1      -0.604  76.137 115.559  0.00  0.00    -0.047 C 
ATOM      6  C   LIG d   1      -2.093  76.446 115.281  0.00  0.00     0.091 C 
ENDROOT
BRANCH   1   7
ATOM      7  O   LIG d   1      -4.354  75.562 115.619  0.00  0.00    -0.368 OA
BRANCH   7   8
ATOM      8  C   LIG d   1      -5.174  74.628 116.363  0.00  0.00     0.119 C 
BRANCH   8   9
ATOM      9  C   LIG d   1      -5.980  73.804 115.340  0.00  0.00     0.028 C 
ATOM     10  C   LIG d   1      -6.580  72.529 115.957  0.00  0.00     0.006 C 
ENDBRANCH   8   9
BRANCH   8  11
ATOM     11  C   LIG d   1      -6.221  75.358 117.210  0.00  0.00     0.028 C 
ATOM     12  C   LIG d   1      -7.124  76.281 116.376  0.00  0.00     0.006 C 
ENDBRANCH   8  11
ENDBRANCH   7   8
ENDBRANCH   1   7
BRANCH   6  13
ATOM     13  N   LIG d   1      -2.315  76.983 113.913  0.00  0.00    -0.311 N 
ATOM     14  C   LIG d   1      -2.392  78.284 113.640  0.00  0.00     0.210 C 
ATOM     15  C   LIG d   1      -2.646  78.622 112.168  0.00  0.00     0.109 C 
ATOM     16  O   LIG d   1      -2.242  79.192 114.473  0.00  0.00    -0.276 OA
ATOM     17  H   LIG d   1      -2.417  76.317 113.173  0.00  0.00     0.149 HD
ENDBRANCH   6  13
BRANCH   5  18
ATOM     18  N   LIG d   1       0.250  77.340 115.534  0.00  0.00     0.381 N 
ATOM     19  H   LIG d   1       0.163  77.799 114.649  0.00  0.00    -0.090 HD
ATOM     20  H   LIG d   1       1.208  77.061 115.652  0.00  0.00    -0.090 HD
ATOM     21  H   LIG d   1      -0.015  77.962 116.266  0.00  0.00    -0.090 HD
ENDBRANCH   5  18
BRANCH   3  22
ATOM     22  C   LIG d   1      -0.942  73.416 118.008  0.00  0.00     0.382 C 
ATOM     23  O   LIG d   1      -1.725  72.474 118.278  0.00  0.00    -0.241 OA
ATOM     24  O   LIG d   1       0.177  73.460 118.555  0.00  0.00    -0.241 OA
ENDBRANCH   3  22
TORSDOF 7
ENDMDL
MODEL 6
REMARK VINA RESULT:      -4.8     28.119     30.642
REMARK  7 active torsions:
REMARK  status: ('A' for Active; 'I' for Inactive)
REMARK    1  A    between atoms: C_2  and  C_3 
REMARK    2  A    between atoms: C_3  and  O_6 
REMARK    3  A    between atoms: C_3  and  C_4 
REMARK    4  A    between atoms: C_7  and  O_6 
REMARK    5  A    between atoms: C_9  and  C_10 
REMARK    6  A    between atoms: N_15  and  C_14 
REMARK    7  A    between atoms: N_20  and  C_19 
REMARK       I    between atoms: C_22  and  N_20 
ROOT
ATOM      1  C   LIG d   1       4.632  88.030 115.946  0.00  0.00     0.161 C 
ATOM      2  C   LIG d   1       3.520  87.729 115.142  0.00  0.00     0.016 C 
ATOM      3  C   LIG d   1       3.476  87.977 113.750  0.00  0.00     0.038 C 
ATOM      4  C   LIG d   1       4.606  88.407 113.038  0.00  0.00     0.028 C 
ATOM      5  C   LIG d   1       5.592  89.201 113.888  0.00  0.00    -0.047 C 
ATOM      6  C   LIG d   1       5.913  88.396 115.168  0.00  0.00     0.091 C 
ENDROOT
BRANCH   1   7
ATOM      7  O   LIG d   1       4.890  86.938 116.851  0.00  0.00    -0.368 OA
BRANCH   7   8
ATOM      8  C   LIG d   1       5.723  85.869 116.339  0.00  0.00     0.119 C 
BRANCH   8   9
ATOM      9  C   LIG d   1       4.858  84.595 116.282  0.00  0.00     0.028 C 
ATOM     10  C   LIG d   1       4.368  84.282 114.858  0.00  0.00     0.006 C 
ENDBRANCH   8   9
BRANCH   8  11
ATOM     11  C   LIG d   1       6.865  85.541 117.306  0.00  0.00     0.028 C 
ATOM     12  C   LIG d   1       8.191  85.253 116.585  0.00  0.00     0.006 C 
ENDBRANCH   8  11
ENDBRANCH   7   8
ENDBRANCH   1   7
BRANCH   6  13
ATOM     13  N   LIG d   1       6.806  89.138 116.095  0.00  0.00    -0.311 N 
ATOM     14  C   LIG d   1       6.486  90.311 116.640  0.00  0.00     0.210 C 
ATOM     15  C   LIG d   1       7.558  90.915 117.552  0.00  0.00     0.109 C 
ATOM     16  O   LIG d   1       5.402  90.893 116.480  0.00  0.00    -0.276 OA
ATOM     17  H   LIG d   1       7.693  88.723 116.305  0.00  0.00     0.149 HD
ENDBRANCH   6  13
BRANCH   5  18
ATOM     18  N   LIG d   1       6.782  89.466 113.058  0.00  0.00     0.381 N 
ATOM     19  H   LIG d   1       6.532  90.045 112.282  0.00  0.00    -0.090 HD
ATOM     20  H   LIG d   1       7.131  88.594 112.702  0.00  0.00    -0.090 HD
ATOM     21  H   LIG d   1       7.485  89.915 113.604  0.00  0.00    -0.090 HD
ENDBRANCH   5  18
BRANCH   3  22
ATOM     22  C   LIG d   1       2.280  87.833 113.064  0.00  0.00     0.382 C 
ATOM     23  O   LIG d   1       1.896  88.732 112.278  0.00  0.00    -0.241 OA
ATOM     24  O   LIG d   1       1.559  86.836 113.254  0.00  0.00    -0.241 OA
ENDBRANCH   3  22
TORSDOF 7
ENDMDL
MODEL 7
REMARK VINA RESULT:      -4.7     28.400     30.396
REMARK  7 active torsions:
REMARK  status: ('A' for Active; 'I' for Inactive)
REMARK    1  A    between atoms: C_2  and  C_3 
REMARK    2  A    between atoms: C_3  and  O_6 
REMARK    3  A    between atoms: C_3  and  C_4 
REMARK    4  A    between atoms: C_7  and  O_6 
REMARK    5  A    between atoms: C_9  and  C_10 
REMARK    6  A    between atoms: N_15  and  C_14 
REMARK    7  A    between atoms: N_20  and  C_19 
REMARK       I    between atoms: C_22  and  N_20 
ROOT
ATOM      1  C   LIG d   1       3.817  88.923 115.725  0.00  0.00     0.161 C 
ATOM      2  C   LIG d   1       2.915  88.389 114.790  0.00  0.00     0.016 C 
ATOM      3  C   LIG d   1       3.235  88.186 113.428  0.00  0.00     0.038 C 
ATOM      4  C   LIG d   1       4.538  88.363 112.939  0.00  0.00     0.028 C 
ATOM      5  C   LIG d   1       5.351  89.379 113.734  0.00  0.00    -0.047 C 
ATOM      6  C   LIG d   1       5.276  89.018 115.235  0.00  0.00     0.091 C 
ENDROOT
BRANCH   1   7
ATOM      7  O   LIG d   1       3.749  88.171 116.953  0.00  0.00    -0.368 OA
BRANCH   7   8
ATOM      8  C   LIG d   1       3.408  86.769 116.824  0.00  0.00     0.119 C 
BRANCH   8   9
ATOM      9  C   LIG d   1       2.416  86.427 117.953  0.00  0.00     0.028 C 
ATOM     10  C   LIG d   1       1.284  87.462 118.072  0.00  0.00     0.006 C 
ENDBRANCH   8   9
BRANCH   8  11
ATOM     11  C   LIG d   1       4.627  85.874 117.071  0.00  0.00     0.028 C 
ATOM     12  C   LIG d   1       5.117  85.170 115.796  0.00  0.00     0.006 C 
ENDBRANCH   8  11
ENDBRANCH   7   8
ENDBRANCH   1   7
BRANCH   6  13
ATOM     13  N   LIG d   1       5.975  90.010 116.092  0.00  0.00    -0.311 N 
ATOM     14  C   LIG d   1       7.051  89.720 116.822  0.00  0.00     0.210 C 
ATOM     15  C   LIG d   1       7.604  90.884 117.650  0.00  0.00     0.109 C 
ATOM     16  O   LIG d   1       7.618  88.618 116.838  0.00  0.00    -0.276 OA
ATOM     17  H   LIG d   1       5.600  90.938 116.114  0.00  0.00     0.149 HD
ENDBRANCH   6  13
BRANCH   5  18
ATOM     18  N   LIG d   1       6.727  89.364 113.202  0.00  0.00     0.381 N 
ATOM     19  H   LIG d   1       7.356  89.744 113.881  0.00  0.00    -0.090 HD
ATOM     20  H   LIG d   1       6.764  89.939 112.380  0.00  0.00    -0.090 HD
ATOM     21  H   LIG d   1       6.994  88.431 112.976  0.00  0.00    -0.090 HD
ENDBRANCH   5  18
BRANCH   3  22
ATOM     22  C   LIG d   1       2.236  87.839 112.531  0.00  0.00     0.382 C 
ATOM     23  O   LIG d   1       1.393  88.694 112.170  0.00  0.00    -0.241 OA
ATOM     24  O   LIG d   1       2.141  86.669 112.113  0.00  0.00    -0.241 OA
ENDBRANCH   3  22
TORSDOF 7
ENDMDL
MODEL 8
REMARK VINA RESULT:      -4.6     25.321     27.948
REMARK  7 active torsions:
REMARK  status: ('A' for Active; 'I' for Inactive)
REMARK    1  A    between atoms: C_2  and  C_3 
REMARK    2  A    between atoms: C_3  and  O_6 
REMARK    3  A    between atoms: C_3  and  C_4 
REMARK    4  A    between atoms: C_7  and  O_6 
REMARK    5  A    between atoms: C_9  and  C_10 
REMARK    6  A    between atoms: N_15  and  C_14 
REMARK    7  A    between atoms: N_20  and  C_19 
REMARK       I    between atoms: C_22  and  N_20 
ROOT
ATOM      1  C   LIG d   1       2.347  86.915 115.021  0.00  0.00     0.161 C 
ATOM      2  C   LIG d   1       3.107  87.812 114.252  0.00  0.00     0.016 C 
ATOM      3  C   LIG d   1       4.484  88.048 114.466  0.00  0.00     0.038 C 
ATOM      4  C   LIG d   1       5.235  87.285 115.373  0.00  0.00     0.028 C 
ATOM      5  C   LIG d   1       4.406  86.722 116.522  0.00  0.00    -0.047 C 
ATOM      6  C   LIG d   1       3.173  85.992 115.941  0.00  0.00     0.091 C 
ENDROOT
BRANCH   1   7
ATOM      7  O   LIG d   1       1.496  86.132 114.160  0.00  0.00    -0.368 OA
BRANCH   7   8
ATOM      8  C   LIG d   1       2.033  85.813 112.853  0.00  0.00     0.119 C 
BRANCH   8   9
ATOM      9  C   LIG d   1       0.969  86.202 111.808  0.00  0.00     0.028 C 
ATOM     10  C   LIG d   1      -0.365  85.469 112.028  0.00  0.00     0.006 C 
ENDBRANCH   8   9
BRANCH   8  11
ATOM     11  C   LIG d   1       2.233  84.304 112.686  0.00  0.00     0.028 C 
ATOM     12  C   LIG d   1       3.709  83.884 112.775  0.00  0.00     0.006 C 
ENDBRANCH   8  11
ENDBRANCH   7   8
ENDBRANCH   1   7
BRANCH   6  13
ATOM     13  N   LIG d   1       2.264  85.483 117.001  0.00  0.00    -0.311 N 
ATOM     14  C   LIG d   1       1.874  84.213 117.085  0.00  0.00     0.210 C 
ATOM     15  C   LIG d   1       0.919  83.904 118.242  0.00  0.00     0.109 C 
ATOM     16  O   LIG d   1       2.253  83.305 116.329  0.00  0.00    -0.276 OA
ATOM     17  H   LIG d   1       1.933  86.146 117.675  0.00  0.00     0.149 HD
ENDBRANCH   6  13
BRANCH   5  18
ATOM     18  N   LIG d   1       5.283  85.837 117.312  0.00  0.00     0.381 N 
ATOM     19  H   LIG d   1       6.199  86.234 117.374  0.00  0.00    -0.090 HD
ATOM     20  H   LIG d   1       5.355  84.950 116.846  0.00  0.00    -0.090 HD
ATOM     21  H   LIG d   1       4.905  85.710 118.226  0.00  0.00    -0.090 HD
ENDBRANCH   5  18
BRANCH   3  22
ATOM     22  C   LIG d   1       5.116  89.084 113.796  0.00  0.00     0.382 C 
ATOM     23  O   LIG d   1       6.304  89.379 114.075  0.00  0.00    -0.241 OA
ATOM     24  O   LIG d   1       4.500  89.757 112.949  0.00  0.00    -0.241 OA
ENDBRANCH   3  22
TORSDOF 7
ENDMDL
MODEL 9
REMARK VINA RESULT:      -4.6     28.139     30.636
REMARK  7 active torsions:
REMARK  status: ('A' for Active; 'I' for Inactive)
REMARK    1  A    between atoms: C_2  and  C_3 
REMARK    2  A    between atoms: C_3  and  O_6 
REMARK    3  A    between atoms: C_3  and  C_4 
REMARK    4  A    between atoms: C_7  and  O_6 
REMARK    5  A    between atoms: C_9  and  C_10 
REMARK    6  A    between atoms: N_15  and  C_14 
REMARK    7  A    between atoms: N_20  and  C_19 
REMARK       I    between atoms: C_22  and  N_20 
ROOT
ATOM      1  C   LIG d   1       3.818  88.813 115.697  0.00  0.00     0.161 C 
ATOM      2  C   LIG d   1       2.935  88.287 114.739  0.00  0.00     0.016 C 
ATOM      3  C   LIG d   1       3.267  88.138 113.373  0.00  0.00     0.038 C 
ATOM      4  C   LIG d   1       4.567  88.366 112.897  0.00  0.00     0.028 C 
ATOM      5  C   LIG d   1       5.348  89.377 113.730  0.00  0.00    -0.047 C 
ATOM      6  C   LIG d   1       5.277  88.964 115.218  0.00  0.00     0.091 C 
ENDROOT
BRANCH   1   7
ATOM      7  O   LIG d   1       3.765  88.019 116.899  0.00  0.00    -0.368 OA
BRANCH   7   8
ATOM      8  C   LIG d   1       3.092  88.622 118.032  0.00  0.00     0.119 C 
BRANCH   8   9
ATOM      9  C   LIG d   1       1.815  87.803 118.302  0.00  0.00     0.028 C 
ATOM     10  C   LIG d   1       1.919  86.363 117.772  0.00  0.00     0.006 C 
ENDBRANCH   8   9
BRANCH   8  11
ATOM     11  C   LIG d   1       2.605  90.036 117.703  0.00  0.00     0.028 C 
ATOM     12  C   LIG d   1       1.072  90.151 117.695  0.00  0.00     0.006 C 
ENDBRANCH   8  11
ENDBRANCH   7   8
ENDBRANCH   1   7
BRANCH   6  13
ATOM     13  N   LIG d   1       5.944  89.946 116.112  0.00  0.00    -0.311 N 
ATOM     14  C   LIG d   1       7.031  89.664 116.829  0.00  0.00     0.210 C 
ATOM     15  C   LIG d   1       7.547  90.814 117.700  0.00  0.00     0.109 C 
ATOM     16  O   LIG d   1       7.635  88.582 116.801  0.00  0.00    -0.276 OA
ATOM     17  H   LIG d   1       5.538  90.859 116.170  0.00  0.00     0.149 HD
ENDBRANCH   6  13
BRANCH   5  18
ATOM     18  N   LIG d   1       6.726  89.417 113.206  0.00  0.00     0.381 N 
ATOM     19  H   LIG d   1       6.719  89.243 112.221  0.00  0.00    -0.090 HD
ATOM     20  H   LIG d   1       7.263  88.693 113.650  0.00  0.00    -0.090 HD
ATOM     21  H   LIG d   1       7.136  90.305 113.391  0.00  0.00    -0.090 HD
ENDBRANCH   5  18
BRANCH   3  22
ATOM     22  C   LIG d   1       2.282  87.794 112.460  0.00  0.00     0.382 C 
ATOM     23  O   LIG d   1       2.313  86.673 111.897  0.00  0.00    -0.241 OA
ATOM     24  O   LIG d   1       1.388  88.607 112.159  0.00  0.00    -0.241 OA
ENDBRANCH   3  22
TORSDOF 7
ENDMDL
