MODEL 1
REMARK VINA RESULT:      -5.2      0.000      0.000
REMARK  7 active torsions:
REMARK  status: ('A' for Active; 'I' for Inactive)
REMARK    1  A    between atoms: C_2  and  C_3 
REMARK    2  A    between atoms: C_3  and  O_6 
REMARK    3  A    between atoms: C_3  and  C_4 
REMARK    4  A    between atoms: C_7  and  O_6 
REMARK    5  A    between atoms: C_9  and  C_10 
REMARK    6  A    between atoms: N_15  and  C_14 
REMARK    7  A    between atoms: N_20  and  C_19 
REMARK       I    between atoms: C_22  and  N_20 
ROOT
ATOM      1  C   LIG d   1      -2.040  76.475 114.710  0.00  0.00     0.161 C 
ATOM      2  C   LIG d   1      -1.701  75.460 115.621  0.00  0.00     0.016 C 
ATOM      3  C   LIG d   1      -1.116  75.711 116.883  0.00  0.00     0.038 C 
ATOM      4  C   LIG d   1      -0.969  77.012 117.387  0.00  0.00     0.028 C 
ATOM      5  C   LIG d   1      -0.832  78.071 116.299  0.00  0.00    -0.047 C 
ATOM      6  C   LIG d   1      -1.989  77.905 115.288  0.00  0.00     0.091 C 
ENDROOT
BRANCH   1   7
ATOM      7  O   LIG d   1      -3.338  76.209 114.143  0.00  0.00    -0.368 OA
BRANCH   7   8
ATOM      8  C   LIG d   1      -4.289  75.544 115.011  0.00  0.00     0.119 C 
BRANCH   8   9
ATOM      9  C   LIG d   1      -4.990  74.453 114.180  0.00  0.00     0.028 C 
ATOM     10  C   LIG d   1      -5.764  73.454 115.056  0.00  0.00     0.006 C 
ENDBRANCH   8   9
BRANCH   8  11
ATOM     11  C   LIG d   1      -5.403  76.498 115.451  0.00  0.00     0.028 C 
ATOM     12  C   LIG d   1      -5.166  77.085 116.852  0.00  0.00     0.006 C 
ENDBRANCH   8  11
ENDBRANCH   7   8
ENDBRANCH   1   7
BRANCH   6  13
ATOM     13  N   LIG d   1      -1.883  78.848 114.144  0.00  0.00    -0.311 N 
ATOM     14  C   LIG d   1      -2.471  80.043 114.122  0.00  0.00     0.210 C 
ATOM     15  C   LIG d   1      -2.249  80.849 112.839  0.00  0.00     0.109 C 
ATOM     16  O   LIG d   1      -3.128  80.525 115.057  0.00  0.00    -0.276 OA
ATOM     17  H   LIG d   1      -1.342  78.550 113.356  0.00  0.00     0.149 HD
ENDBRANCH   6  13
BRANCH   5  18
ATOM     18  N   LIG d   1      -0.825  79.390 116.959  0.00  0.00     0.381 N 
ATOM     19  H   LIG d   1      -1.486  79.397 117.709  0.00  0.00    -0.090 HD
ATOM     20  H   LIG d   1      -1.099  80.089 116.291  0.00  0.00    -0.090 HD
ATOM     21  H   LIG d   1       0.086  79.592 117.308  0.00  0.00    -0.090 HD
ENDBRANCH   5  18
BRANCH   3  22
ATOM     22  C   LIG d   1      -0.635  74.653 117.640  0.00  0.00     0.382 C 
ATOM     23  O   LIG d   1       0.197  74.864 118.555  0.00  0.00    -0.241 OA
ATOM     24  O   LIG d   1      -0.989  73.485 117.390  0.00  0.00    -0.241 OA
ENDBRANCH   3  22
TORSDOF 7
ENDMDL
MODEL 2
REMARK VINA RESULT:      -4.9      2.332      4.466
REMARK  7 active torsions:
REMARK  status: ('A' for Active; 'I' for Inactive)
REMARK    1  A    between atoms: C_2  and  C_3 
REMARK    2  A    between atoms: C_3  and  O_6 
REMARK    3  A    between atoms: C_3  and  C_4 
REMARK    4  A    between atoms: C_7  and  O_6 
REMARK    5  A    between atoms: C_9  and  C_10 
REMARK    6  A    between atoms: N_15  and  C_14 
REMARK    7  A    between atoms: N_20  and  C_19 
REMARK       I    between atoms: C_22  and  N_20 
ROOT
ATOM      1  C   LIG d   1      -2.923  77.392 116.723  0.00  0.00     0.161 C 
ATOM      2  C   LIG d   1      -3.751  78.442 117.152  0.00  0.00     0.016 C 
ATOM      3  C   LIG d   1      -3.563  79.790 116.767  0.00  0.00     0.038 C 
ATOM      4  C   LIG d   1      -2.617  80.158 115.798  0.00  0.00     0.028 C 
ATOM      5  C   LIG d   1      -1.429  79.206 115.719  0.00  0.00    -0.047 C 
ATOM      6  C   LIG d   1      -1.954  77.759 115.579  0.00  0.00     0.091 C 
ENDROOT
BRANCH   1   7
ATOM      7  O   LIG d   1      -3.727  76.255 116.354  0.00  0.00    -0.368 OA
BRANCH   7   8
ATOM      8  C   LIG d   1      -4.894  76.536 115.542  0.00  0.00     0.119 C 
BRANCH   8   9
ATOM      9  C   LIG d   1      -6.085  75.783 116.166  0.00  0.00     0.028 C 
ATOM     10  C   LIG d   1      -6.792  76.603 117.258  0.00  0.00     0.006 C 
ENDBRANCH   8   9
BRANCH   8  11
ATOM     11  C   LIG d   1      -4.743  75.960 114.131  0.00  0.00     0.028 C 
ATOM     12  C   LIG d   1      -5.211  74.500 114.031  0.00  0.00     0.006 C 
ENDBRANCH   8  11
ENDBRANCH   7   8
ENDBRANCH   1   7
BRANCH   6  13
ATOM     13  N   LIG d   1      -0.858  76.755 115.579  0.00  0.00    -0.311 N 
ATOM     14  C   LIG d   1      -0.469  76.094 114.490  0.00  0.00     0.210 C 
ATOM     15  C   LIG d   1       0.666  75.090 114.714  0.00  0.00     0.109 C 
ATOM     16  O   LIG d   1      -0.935  76.268 113.354  0.00  0.00    -0.276 OA
ATOM     17  H   LIG d   1      -0.404  76.575 116.454  0.00  0.00     0.149 HD
ENDBRANCH   6  13
BRANCH   5  18
ATOM     18  N   LIG d   1      -0.593  79.630 114.580  0.00  0.00     0.381 N 
ATOM     19  H   LIG d   1       0.217  80.111 114.915  0.00  0.00    -0.090 HD
ATOM     20  H   LIG d   1      -1.122  80.264 114.007  0.00  0.00    -0.090 HD
ATOM     21  H   LIG d   1      -0.319  78.836 114.044  0.00  0.00    -0.090 HD
ENDBRANCH   5  18
BRANCH   3  22
ATOM     22  C   LIG d   1      -4.300  80.790 117.382  0.00  0.00     0.382 C 
ATOM     23  O   LIG d   1      -3.712  81.733 117.965  0.00  0.00    -0.241 OA
ATOM     24  O   LIG d   1      -5.544  80.738 117.400  0.00  0.00    -0.241 OA
ENDBRANCH   3  22
TORSDOF 7
ENDMDL
MODEL 3
REMARK VINA RESULT:      -4.9      8.890     12.643
REMARK  7 active torsions:
REMARK  status: ('A' for Active; 'I' for Inactive)
REMARK    1  A    between atoms: C_2  and  C_3 
REMARK    2  A    between atoms: C_3  and  O_6 
REMARK    3  A    between atoms: C_3  and  C_4 
REMARK    4  A    between atoms: C_7  and  O_6 
REMARK    5  A    between atoms: C_9  and  C_10 
REMARK    6  A    between atoms: N_15  and  C_14 
REMARK    7  A    between atoms: N_20  and  C_19 
REMARK       I    between atoms: C_22  and  N_20 
ROOT
ATOM      1  C   LIG d   1       1.998  87.275 115.130  0.00  0.00     0.161 C 
ATOM      2  C   LIG d   1       2.847  88.313 114.712  0.00  0.00     0.016 C 
ATOM      3  C   LIG d   1       3.444  88.362 113.432  0.00  0.00     0.038 C 
ATOM      4  C   LIG d   1       3.110  87.446 112.423  0.00  0.00     0.028 C 
ATOM      5  C   LIG d   1       2.647  86.096 112.959  0.00  0.00    -0.047 C 
ATOM      6  C   LIG d   1       1.534  86.326 114.006  0.00  0.00     0.091 C 
ENDROOT
BRANCH   1   7
ATOM      7  O   LIG d   1       0.860  87.824 115.824  0.00  0.00    -0.368 OA
BRANCH   7   8
ATOM      8  C   LIG d   1       1.107  89.014 116.613  0.00  0.00     0.119 C 
BRANCH   8   9
ATOM      9  C   LIG d   1       1.426  88.558 118.050  0.00  0.00     0.028 C 
ATOM     10  C   LIG d   1       2.851  88.940 118.485  0.00  0.00     0.006 C 
ENDBRANCH   8   9
BRANCH   8  11
ATOM     11  C   LIG d   1      -0.153  89.876 116.732  0.00  0.00     0.028 C 
ATOM     12  C   LIG d   1      -1.244  89.221 117.593  0.00  0.00     0.006 C 
ENDBRANCH   8  11
ENDBRANCH   7   8
ENDBRANCH   1   7
BRANCH   6  13
ATOM     13  N   LIG d   1       1.083  85.061 114.642  0.00  0.00    -0.311 N 
ATOM     14  C   LIG d   1      -0.153  84.580 114.522  0.00  0.00     0.210 C 
ATOM     15  C   LIG d   1      -0.413  83.271 115.275  0.00  0.00     0.109 C 
ATOM     16  O   LIG d   1      -1.049  85.095 113.838  0.00  0.00    -0.276 OA
ATOM     17  H   LIG d   1       1.756  84.561 115.190  0.00  0.00     0.149 HD
ENDBRANCH   6  13
BRANCH   5  18
ATOM     18  N   LIG d   1       2.201  85.288 111.808  0.00  0.00     0.381 N 
ATOM     19  H   LIG d   1       1.885  85.890 111.074  0.00  0.00    -0.090 HD
ATOM     20  H   LIG d   1       1.431  84.710 112.095  0.00  0.00    -0.090 HD
ATOM     21  H   LIG d   1       2.950  84.718 111.480  0.00  0.00    -0.090 HD
ENDBRANCH   5  18
BRANCH   3  22
ATOM     22  C   LIG d   1       4.417  89.312 113.163  0.00  0.00     0.382 C 
ATOM     23  O   LIG d   1       4.092  90.425 112.684  0.00  0.00    -0.241 OA
ATOM     24  O   LIG d   1       5.621  89.054 113.352  0.00  0.00    -0.241 OA
ENDBRANCH   3  22
TORSDOF 7
ENDMDL
MODEL 4
REMARK VINA RESULT:      -4.8     10.369     13.191
REMARK  7 active torsions:
REMARK  status: ('A' for Active; 'I' for Inactive)
REMARK    1  A    between atoms: C_2  and  C_3 
REMARK    2  A    between atoms: C_3  and  O_6 
REMARK    3  A    between atoms: C_3  and  C_4 
REMARK    4  A    between atoms: C_7  and  O_6 
REMARK    5  A    between atoms: C_9  and  C_10 
REMARK    6  A    between atoms: N_15  and  C_14 
REMARK    7  A    between atoms: N_20  and  C_19 
REMARK       I    between atoms: C_22  and  N_20 
ROOT
ATOM      1  C   LIG d   1       1.181  88.346 116.334  0.00  0.00     0.161 C 
ATOM      2  C   LIG d   1      -0.134  88.524 116.794  0.00  0.00     0.016 C 
ATOM      3  C   LIG d   1      -0.647  89.770 117.222  0.00  0.00     0.038 C 
ATOM      4  C   LIG d   1       0.080  90.961 117.075  0.00  0.00     0.028 C 
ATOM      5  C   LIG d   1       1.591  90.754 117.086  0.00  0.00    -0.047 C 
ATOM      6  C   LIG d   1       1.954  89.654 116.062  0.00  0.00     0.091 C 
ENDROOT
BRANCH   1   7
ATOM      7  O   LIG d   1       1.179  87.512 115.159  0.00  0.00    -0.368 OA
BRANCH   7   8
ATOM      8  C   LIG d   1       1.768  86.197 115.310  0.00  0.00     0.119 C 
BRANCH   8   9
ATOM      9  C   LIG d   1       2.917  86.084 114.289  0.00  0.00     0.028 C 
ATOM     10  C   LIG d   1       2.699  86.980 113.059  0.00  0.00     0.006 C 
ENDBRANCH   8   9
BRANCH   8  11
ATOM     11  C   LIG d   1       0.775  85.095 114.927  0.00  0.00     0.028 C 
ATOM     12  C   LIG d   1      -0.514  85.646 114.298  0.00  0.00     0.006 C 
ENDBRANCH   8  11
ENDBRANCH   7   8
ENDBRANCH   1   7
BRANCH   6  13
ATOM     13  N   LIG d   1       3.404  89.330 116.069  0.00  0.00    -0.311 N 
ATOM     14  C   LIG d   1       4.233  89.658 115.080  0.00  0.00     0.210 C 
ATOM     15  C   LIG d   1       5.685  89.211 115.278  0.00  0.00     0.109 C 
ATOM     16  O   LIG d   1       3.911  90.305 114.072  0.00  0.00    -0.276 OA
ATOM     17  H   LIG d   1       3.756  88.833 116.864  0.00  0.00     0.149 HD
ENDBRANCH   6  13
BRANCH   5  18
ATOM     18  N   LIG d   1       2.221  92.054 116.786  0.00  0.00     0.381 N 
ATOM     19  H   LIG d   1       2.648  92.022 115.882  0.00  0.00    -0.090 HD
ATOM     20  H   LIG d   1       2.938  92.232 117.467  0.00  0.00    -0.090 HD
ATOM     21  H   LIG d   1       1.538  92.778 116.814  0.00  0.00    -0.090 HD
ENDBRANCH   5  18
BRANCH   3  22
ATOM     22  C   LIG d   1      -1.887  89.827 117.841  0.00  0.00     0.382 C 
ATOM     23  O   LIG d   1      -2.187  90.817 118.551  0.00  0.00    -0.241 OA
ATOM     24  O   LIG d   1      -2.690  88.882 117.733  0.00  0.00    -0.241 OA
ENDBRANCH   3  22
TORSDOF 7
ENDMDL
MODEL 5
REMARK VINA RESULT:      -4.6      2.960      5.827
REMARK  7 active torsions:
REMARK  status: ('A' for Active; 'I' for Inactive)
REMARK    1  A    between atoms: C_2  and  C_3 
REMARK    2  A    between atoms: C_3  and  O_6 
REMARK    3  A    between atoms: C_3  and  C_4 
REMARK    4  A    between atoms: C_7  and  O_6 
REMARK    5  A    between atoms: C_9  and  C_10 
REMARK    6  A    between atoms: N_15  and  C_14 
REMARK    7  A    between atoms: N_20  and  C_19 
REMARK       I    between atoms: C_22  and  N_20 
ROOT
ATOM      1  C   LIG d   1      -2.598  80.099 115.623  0.00  0.00     0.161 C 
ATOM      2  C   LIG d   1      -2.088  81.384 115.371  0.00  0.00     0.016 C 
ATOM      3  C   LIG d   1      -1.332  81.709 114.222  0.00  0.00     0.038 C 
ATOM      4  C   LIG d   1      -1.162  80.803 113.165  0.00  0.00     0.028 C 
ATOM      5  C   LIG d   1      -1.230  79.343 113.602  0.00  0.00    -0.047 C 
ATOM      6  C   LIG d   1      -2.518  79.126 114.428  0.00  0.00     0.091 C 
ENDROOT
BRANCH   1   7
ATOM      7  O   LIG d   1      -3.955  80.198 116.099  0.00  0.00    -0.368 OA
BRANCH   7   8
ATOM      8  C   LIG d   1      -4.141  80.054 117.528  0.00  0.00     0.119 C 
BRANCH   8   9
ATOM      9  C   LIG d   1      -5.373  79.155 117.747  0.00  0.00     0.028 C 
ATOM     10  C   LIG d   1      -5.054  77.664 117.550  0.00  0.00     0.006 C 
ENDBRANCH   8   9
BRANCH   8  11
ATOM     11  C   LIG d   1      -4.495  81.393 118.181  0.00  0.00     0.028 C 
ATOM     12  C   LIG d   1      -5.999  81.704 118.125  0.00  0.00     0.006 C 
ENDBRANCH   8  11
ENDBRANCH   7   8
ENDBRANCH   1   7
BRANCH   6  13
ATOM     13  N   LIG d   1      -2.620  77.745 114.966  0.00  0.00    -0.311 N 
ATOM     14  C   LIG d   1      -3.275  76.763 114.347  0.00  0.00     0.210 C 
ATOM     15  C   LIG d   1      -3.274  75.420 115.084  0.00  0.00     0.109 C 
ATOM     16  O   LIG d   1      -3.828  76.870 113.242  0.00  0.00    -0.276 OA
ATOM     17  H   LIG d   1      -2.173  77.562 115.843  0.00  0.00     0.149 HD
ENDBRANCH   6  13
BRANCH   5  18
ATOM     18  N   LIG d   1      -1.176  78.511 112.385  0.00  0.00     0.381 N 
ATOM     19  H   LIG d   1      -1.813  78.868 111.702  0.00  0.00    -0.090 HD
ATOM     20  H   LIG d   1      -1.456  77.575 112.619  0.00  0.00    -0.090 HD
ATOM     21  H   LIG d   1      -0.250  78.506 112.016  0.00  0.00    -0.090 HD
ENDBRANCH   5  18
BRANCH   3  22
ATOM     22  C   LIG d   1      -0.702  82.942 114.140  0.00  0.00     0.382 C 
ATOM     23  O   LIG d   1      -1.191  83.850 113.425  0.00  0.00    -0.241 OA
ATOM     24  O   LIG d   1       0.373  83.143 114.736  0.00  0.00    -0.241 OA
ENDBRANCH   3  22
TORSDOF 7
ENDMDL
MODEL 6
REMARK VINA RESULT:      -4.6      9.515     12.451
REMARK  7 active torsions:
REMARK  status: ('A' for Active; 'I' for Inactive)
REMARK    1  A    between atoms: C_2  and  C_3 
REMARK    2  A    between atoms: C_3  and  O_6 
REMARK    3  A    between atoms: C_3  and  C_4 
REMARK    4  A    between atoms: C_7  and  O_6 
REMARK    5  A    between atoms: C_9  and  C_10 
REMARK    6  A    between atoms: N_15  and  C_14 
REMARK    7  A    between atoms: N_20  and  C_19 
REMARK       I    between atoms: C_22  and  N_20 
ROOT
ATOM      1  C   LIG d   1       3.117  86.616 115.390  0.00  0.00     0.161 C 
ATOM      2  C   LIG d   1       3.372  85.659 114.393  0.00  0.00     0.016 C 
ATOM      3  C   LIG d   1       2.352  84.996 113.672  0.00  0.00     0.038 C 
ATOM      4  C   LIG d   1       1.002  85.358 113.793  0.00  0.00     0.028 C 
ATOM      5  C   LIG d   1       0.657  85.964 115.150  0.00  0.00    -0.047 C 
ATOM      6  C   LIG d   1       1.655  87.105 115.458  0.00  0.00     0.091 C 
ENDROOT
BRANCH   1   7
ATOM      7  O   LIG d   1       4.012  87.734 115.233  0.00  0.00    -0.368 OA
BRANCH   7   8
ATOM      8  C   LIG d   1       3.535  88.821 114.403  0.00  0.00     0.119 C 
BRANCH   8   9
ATOM      9  C   LIG d   1       4.288  88.743 113.060  0.00  0.00     0.028 C 
ATOM     10  C   LIG d   1       5.587  89.566 113.067  0.00  0.00     0.006 C 
ENDBRANCH   8   9
BRANCH   8  11
ATOM     11  C   LIG d   1       3.907  90.182 114.998  0.00  0.00     0.028 C 
ATOM     12  C   LIG d   1       4.335  90.091 116.471  0.00  0.00     0.006 C 
ENDBRANCH   8  11
ENDBRANCH   7   8
ENDBRANCH   1   7
BRANCH   6  13
ATOM     13  N   LIG d   1       1.441  87.696 116.804  0.00  0.00    -0.311 N 
ATOM     14  C   LIG d   1       0.912  88.903 116.999  0.00  0.00     0.210 C 
ATOM     15  C   LIG d   1       0.798  89.330 118.466  0.00  0.00     0.109 C 
ATOM     16  O   LIG d   1       0.498  89.648 116.098  0.00  0.00    -0.276 OA
ATOM     17  H   LIG d   1       1.720  87.147 117.594  0.00  0.00     0.149 HD
ENDBRANCH   6  13
BRANCH   5  18
ATOM     18  N   LIG d   1      -0.744  86.422 115.090  0.00  0.00     0.381 N 
ATOM     19  H   LIG d   1      -0.957  86.967 115.901  0.00  0.00    -0.090 HD
ATOM     20  H   LIG d   1      -1.348  85.619 115.083  0.00  0.00    -0.090 HD
ATOM     21  H   LIG d   1      -0.890  86.965 114.268  0.00  0.00    -0.090 HD
ENDBRANCH   5  18
BRANCH   3  22
ATOM     22  C   LIG d   1       2.676  83.930 112.846  0.00  0.00     0.382 C 
ATOM     23  O   LIG d   1       2.343  82.764 113.168  0.00  0.00    -0.241 OA
ATOM     24  O   LIG d   1       3.336  84.115 111.806  0.00  0.00    -0.241 OA
ENDBRANCH   3  22
TORSDOF 7
ENDMDL
MODEL 7
REMARK VINA RESULT:      -4.4     12.422     14.667
REMARK  7 active torsions:
REMARK  status: ('A' for Active; 'I' for Inactive)
REMARK    1  A    between atoms: C_2  and  C_3 
REMARK    2  A    between atoms: C_3  and  O_6 
REMARK    3  A    between atoms: C_3  and  C_4 
REMARK    4  A    between atoms: C_7  and  O_6 
REMARK    5  A    between atoms: C_9  and  C_10 
REMARK    6  A    between atoms: N_15  and  C_14 
REMARK    7  A    between atoms: N_20  and  C_19 
REMARK       I    between atoms: C_22  and  N_20 
ROOT
ATOM      1  C   LIG d   1      11.083  78.808 114.494  0.00  0.00     0.161 C 
ATOM      2  C   LIG d   1       9.716  79.030 114.730  0.00  0.00     0.016 C 
ATOM      3  C   LIG d   1       8.829  78.022 115.170  0.00  0.00     0.038 C 
ATOM      4  C   LIG d   1       9.281  76.750 115.551  0.00  0.00     0.028 C 
ATOM      5  C   LIG d   1      10.570  76.331 114.851  0.00  0.00    -0.047 C 
ATOM      6  C   LIG d   1      11.617  77.456 115.011  0.00  0.00     0.091 C 
ENDROOT
BRANCH   1   7
ATOM      7  O   LIG d   1      11.857  79.894 115.042  0.00  0.00    -0.368 OA
BRANCH   7   8
ATOM      8  C   LIG d   1      12.344  80.873 114.091  0.00  0.00     0.119 C 
BRANCH   8   9
ATOM      9  C   LIG d   1      11.418  82.101 114.175  0.00  0.00     0.028 C 
ATOM     10  C   LIG d   1      11.203  82.577 115.622  0.00  0.00     0.006 C 
ENDBRANCH   8   9
BRANCH   8  11
ATOM     11  C   LIG d   1      12.214  80.364 112.652  0.00  0.00     0.028 C 
ATOM     12  C   LIG d   1      11.253  81.212 111.805  0.00  0.00     0.006 C 
ENDBRANCH   8  11
ENDBRANCH   7   8
ENDBRANCH   1   7
BRANCH   6  13
ATOM     13  N   LIG d   1      12.880  77.163 114.283  0.00  0.00    -0.311 N 
ATOM     14  C   LIG d   1      14.087  77.284 114.832  0.00  0.00     0.210 C 
ATOM     15  C   LIG d   1      15.257  76.951 113.901  0.00  0.00     0.109 C 
ATOM     16  O   LIG d   1      14.299  77.604 116.011  0.00  0.00    -0.276 OA
ATOM     17  H   LIG d   1      12.799  76.867 113.330  0.00  0.00     0.149 HD
ENDBRANCH   6  13
BRANCH   5  18
ATOM     18  N   LIG d   1      11.001  75.050 115.441  0.00  0.00     0.381 N 
ATOM     19  H   LIG d   1      12.000  74.994 115.437  0.00  0.00    -0.090 HD
ATOM     20  H   LIG d   1      10.641  74.296 114.883  0.00  0.00    -0.090 HD
ATOM     21  H   LIG d   1      10.662  74.973 116.375  0.00  0.00    -0.090 HD
ENDBRANCH   5  18
BRANCH   3  22
ATOM     22  C   LIG d   1       7.464  78.270 115.193  0.00  0.00     0.382 C 
ATOM     23  O   LIG d   1       6.659  77.378 114.833  0.00  0.00    -0.241 OA
ATOM     24  O   LIG d   1       7.031  79.388 115.529  0.00  0.00    -0.241 OA
ENDBRANCH   3  22
TORSDOF 7
ENDMDL
MODEL 8
REMARK VINA RESULT:      -4.4      2.976      6.133
REMARK  7 active torsions:
REMARK  status: ('A' for Active; 'I' for Inactive)
REMARK    1  A    between atoms: C_2  and  C_3 
REMARK    2  A    between atoms: C_3  and  O_6 
REMARK    3  A    between atoms: C_3  and  C_4 
REMARK    4  A    between atoms: C_7  and  O_6 
REMARK    5  A    between atoms: C_9  and  C_10 
REMARK    6  A    between atoms: N_15  and  C_14 
REMARK    7  A    between atoms: N_20  and  C_19 
REMARK       I    between atoms: C_22  and  N_20 
ROOT
ATOM      1  C   LIG d   1      -0.890  80.140 115.716  0.00  0.00     0.161 C 
ATOM      2  C   LIG d   1      -1.151  81.519 115.658  0.00  0.00     0.016 C 
ATOM      3  C   LIG d   1      -1.549  82.186 114.476  0.00  0.00     0.038 C 
ATOM      4  C   LIG d   1      -1.860  81.488 113.300  0.00  0.00     0.028 C 
ATOM      5  C   LIG d   1      -1.125  80.158 113.172  0.00  0.00    -0.047 C 
ATOM      6  C   LIG d   1      -1.331  79.345 114.470  0.00  0.00     0.091 C 
ENDROOT
BRANCH   1   7
ATOM      7  O   LIG d   1      -1.483  79.580 116.904  0.00  0.00    -0.368 OA
BRANCH   7   8
ATOM      8  C   LIG d   1      -2.911  79.343 116.852  0.00  0.00     0.119 C 
BRANCH   8   9
ATOM      9  C   LIG d   1      -3.560  80.174 117.977  0.00  0.00     0.028 C 
ATOM     10  C   LIG d   1      -4.362  81.369 117.436  0.00  0.00     0.006 C 
ENDBRANCH   8   9
BRANCH   8  11
ATOM     11  C   LIG d   1      -3.247  77.885 117.181  0.00  0.00     0.028 C 
ATOM     12  C   LIG d   1      -2.048  77.112 117.752  0.00  0.00     0.006 C 
ENDBRANCH   8  11
ENDBRANCH   7   8
ENDBRANCH   1   7
BRANCH   6  13
ATOM     13  N   LIG d   1      -0.575  78.065 114.463  0.00  0.00    -0.311 N 
ATOM     14  C   LIG d   1      -1.127  76.890 114.165  0.00  0.00     0.210 C 
ATOM     15  C   LIG d   1      -0.174  75.692 114.236  0.00  0.00     0.109 C 
ATOM     16  O   LIG d   1      -2.306  76.730 113.817  0.00  0.00    -0.276 OA
ATOM     17  H   LIG d   1       0.396  78.107 114.703  0.00  0.00     0.149 HD
ENDBRANCH   6  13
BRANCH   5  18
ATOM     18  N   LIG d   1      -1.645  79.475 111.973  0.00  0.00     0.381 N 
ATOM     19  H   LIG d   1      -1.906  80.152 111.283  0.00  0.00    -0.090 HD
ATOM     20  H   LIG d   1      -2.465  78.952 112.226  0.00  0.00    -0.090 HD
ATOM     21  H   LIG d   1      -0.953  78.862 111.602  0.00  0.00    -0.090 HD
ENDBRANCH   5  18
BRANCH   3  22
ATOM     22  C   LIG d   1      -1.601  83.572 114.453  0.00  0.00     0.382 C 
ATOM     23  O   LIG d   1      -2.586  84.171 114.947  0.00  0.00    -0.241 OA
ATOM     24  O   LIG d   1      -0.695  84.228 113.906  0.00  0.00    -0.241 OA
ENDBRANCH   3  22
TORSDOF 7
ENDMDL
MODEL 9
REMARK VINA RESULT:      -4.4     11.619     13.851
REMARK  7 active torsions:
REMARK  status: ('A' for Active; 'I' for Inactive)
REMARK    1  A    between atoms: C_2  and  C_3 
REMARK    2  A    between atoms: C_3  and  O_6 
REMARK    3  A    between atoms: C_3  and  C_4 
REMARK    4  A    between atoms: C_7  and  O_6 
REMARK    5  A    between atoms: C_9  and  C_10 
REMARK    6  A    between atoms: N_15  and  C_14 
REMARK    7  A    between atoms: N_20  and  C_19 
REMARK       I    between atoms: C_22  and  N_20 
ROOT
ATOM      1  C   LIG d   1      10.002  79.136 114.621  0.00  0.00     0.161 C 
ATOM      2  C   LIG d   1       8.646  79.287 114.958  0.00  0.00     0.016 C 
ATOM      3  C   LIG d   1       7.830  78.219 115.396  0.00  0.00     0.038 C 
ATOM      4  C   LIG d   1       8.356  76.948 115.672  0.00  0.00     0.028 C 
ATOM      5  C   LIG d   1       9.609  76.623 114.867  0.00  0.00    -0.047 C 
ATOM      6  C   LIG d   1      10.621  77.781 115.023  0.00  0.00     0.091 C 
ENDROOT
BRANCH   1   7
ATOM      7  O   LIG d   1      10.768  80.222 115.179  0.00  0.00    -0.368 OA
BRANCH   7   8
ATOM      8  C   LIG d   1      10.855  81.421 114.372  0.00  0.00     0.119 C 
BRANCH   8   9
ATOM      9  C   LIG d   1      11.837  81.134 113.220  0.00  0.00     0.028 C 
ATOM     10  C   LIG d   1      11.174  81.263 111.838  0.00  0.00     0.006 C 
ENDBRANCH   8   9
BRANCH   8  11
ATOM     11  C   LIG d   1      11.479  82.578 115.158  0.00  0.00     0.028 C 
ATOM     12  C   LIG d   1      10.428  83.502 115.795  0.00  0.00     0.006 C 
ENDBRANCH   8  11
ENDBRANCH   7   8
ENDBRANCH   1   7
BRANCH   6  13
ATOM     13  N   LIG d   1      11.842  77.582 114.199  0.00  0.00    -0.311 N 
ATOM     14  C   LIG d   1      13.074  77.573 114.704  0.00  0.00     0.210 C 
ATOM     15  C   LIG d   1      14.193  77.373 113.677  0.00  0.00     0.109 C 
ATOM     16  O   LIG d   1      13.345  77.681 115.910  0.00  0.00    -0.276 OA
ATOM     17  H   LIG d   1      11.712  77.456 113.214  0.00  0.00     0.149 HD
ENDBRANCH   6  13
BRANCH   5  18
ATOM     18  N   LIG d   1      10.129  75.331 115.353  0.00  0.00     0.381 N 
ATOM     19  H   LIG d   1      10.454  75.429 116.294  0.00  0.00    -0.090 HD
ATOM     20  H   LIG d   1      10.905  75.055 114.778  0.00  0.00    -0.090 HD
ATOM     21  H   LIG d   1       9.414  74.638 115.312  0.00  0.00    -0.090 HD
ENDBRANCH   5  18
BRANCH   3  22
ATOM     22  C   LIG d   1       6.462  78.407 115.523  0.00  0.00     0.382 C 
ATOM     23  O   LIG d   1       5.996  79.567 115.626  0.00  0.00    -0.241 OA
ATOM     24  O   LIG d   1       5.692  77.429 115.579  0.00  0.00    -0.241 OA
ENDBRANCH   3  22
TORSDOF 7
ENDMDL
