MODEL 1
REMARK VINA RESULT:      -5.9      0.000      0.000
REMARK  7 active torsions:
REMARK  status: ('A' for Active; 'I' for Inactive)
REMARK    1  A    between atoms: C_2  and  C_3 
REMARK    2  A    between atoms: C_3  and  O_6 
REMARK    3  A    between atoms: C_3  and  C_4 
REMARK    4  A    between atoms: C_7  and  O_6 
REMARK    5  A    between atoms: C_9  and  C_10 
REMARK    6  A    between atoms: N_15  and  C_14 
REMARK    7  A    between atoms: N_20  and  C_19 
REMARK       I    between atoms: C_22  and  N_20 
ROOT
ATOM      1  C   LIG d   1      -2.738  77.516 116.316  0.00  0.00     0.161 C 
ATOM      2  C   LIG d   1      -2.991  78.478 115.324  0.00  0.00     0.016 C 
ATOM      3  C   LIG d   1      -2.264  78.558 114.114  0.00  0.00     0.038 C 
ATOM      4  C   LIG d   1      -1.329  77.579 113.745  0.00  0.00     0.028 C 
ATOM      5  C   LIG d   1      -0.685  76.878 114.935  0.00  0.00    -0.047 C 
ATOM      6  C   LIG d   1      -1.797  76.372 115.882  0.00  0.00     0.091 C 
ENDROOT
BRANCH   1   7
ATOM      7  O   LIG d   1      -3.983  76.981 116.806  0.00  0.00    -0.368 OA
BRANCH   7   8
ATOM      8  C   LIG d   1      -5.184  77.452 116.146  0.00  0.00     0.119 C 
BRANCH   8   9
ATOM      9  C   LIG d   1      -6.133  77.986 117.237  0.00  0.00     0.028 C 
ATOM     10  C   LIG d   1      -5.791  79.425 117.659  0.00  0.00     0.006 C 
ENDBRANCH   8   9
BRANCH   8  11
ATOM     11  C   LIG d   1      -5.941  76.301 115.477  0.00  0.00     0.028 C 
ATOM     12  C   LIG d   1      -5.350  75.912 114.113  0.00  0.00     0.006 C 
ENDBRANCH   8  11
ENDBRANCH   7   8
ENDBRANCH   1   7
BRANCH   6  13
ATOM     13  N   LIG d   1      -1.251  75.747 117.115  0.00  0.00    -0.311 N 
ATOM     14  C   LIG d   1      -0.867  74.474 117.183  0.00  0.00     0.210 C 
ATOM     15  C   LIG d   1      -0.353  74.026 118.555  0.00  0.00     0.109 C 
ATOM     16  O   LIG d   1      -0.874  73.681 116.229  0.00  0.00    -0.276 OA
ATOM     17  H   LIG d   1      -1.182  76.327 117.928  0.00  0.00     0.149 HD
ENDBRANCH   6  13
BRANCH   5  18
ATOM     18  N   LIG d   1       0.163  75.792 114.407  0.00  0.00     0.381 N 
ATOM     19  H   LIG d   1       0.477  75.212 115.159  0.00  0.00    -0.090 HD
ATOM     20  H   LIG d   1       0.968  76.195 113.962  0.00  0.00    -0.090 HD
ATOM     21  H   LIG d   1      -0.351  75.247 113.750  0.00  0.00    -0.090 HD
ENDBRANCH   5  18
BRANCH   3  22
ATOM     22  C   LIG d   1      -2.442  79.648 113.276  0.00  0.00     0.382 C 
ATOM     23  O   LIG d   1      -3.106  80.638 113.668  0.00  0.00    -0.241 OA
ATOM     24  O   LIG d   1      -1.985  79.636 112.118  0.00  0.00    -0.241 OA
ENDBRANCH   3  22
TORSDOF 7
ENDMDL
MODEL 2
REMARK VINA RESULT:      -5.0      3.673      6.964
REMARK  7 active torsions:
REMARK  status: ('A' for Active; 'I' for Inactive)
REMARK    1  A    between atoms: C_2  and  C_3 
REMARK    2  A    between atoms: C_3  and  O_6 
REMARK    3  A    between atoms: C_3  and  C_4 
REMARK    4  A    between atoms: C_7  and  O_6 
REMARK    5  A    between atoms: C_9  and  C_10 
REMARK    6  A    between atoms: N_15  and  C_14 
REMARK    7  A    between atoms: N_20  and  C_19 
REMARK       I    between atoms: C_22  and  N_20 
ROOT
ATOM      1  C   LIG d   1      -5.851  75.538 116.096  0.00  0.00     0.161 C 
ATOM      2  C   LIG d   1      -6.299  74.242 115.789  0.00  0.00     0.016 C 
ATOM      3  C   LIG d   1      -7.470  73.673 116.341  0.00  0.00     0.038 C 
ATOM      4  C   LIG d   1      -8.359  74.421 117.127  0.00  0.00     0.028 C 
ATOM      5  C   LIG d   1      -7.689  75.572 117.871  0.00  0.00    -0.047 C 
ATOM      6  C   LIG d   1      -6.867  76.409 116.864  0.00  0.00     0.091 C 
ENDROOT
BRANCH   1   7
ATOM      7  O   LIG d   1      -5.428  76.206 114.891  0.00  0.00    -0.368 OA
BRANCH   7   8
ATOM      8  C   LIG d   1      -4.000  76.234 114.645  0.00  0.00     0.119 C 
BRANCH   8   9
ATOM      9  C   LIG d   1      -3.294  75.939 115.983  0.00  0.00     0.028 C 
ATOM     10  C   LIG d   1      -2.152  74.920 115.831  0.00  0.00     0.006 C 
ENDBRANCH   8   9
BRANCH   8  11
ATOM     11  C   LIG d   1      -3.532  77.635 114.240  0.00  0.00     0.028 C 
ATOM     12  C   LIG d   1      -3.237  78.537 115.449  0.00  0.00     0.006 C 
ENDBRANCH   8  11
ENDBRANCH   7   8
ENDBRANCH   1   7
BRANCH   6  13
ATOM     13  N   LIG d   1      -6.111  77.506 117.523  0.00  0.00    -0.311 N 
ATOM     14  C   LIG d   1      -6.645  78.689 117.821  0.00  0.00     0.210 C 
ATOM     15  C   LIG d   1      -5.686  79.684 118.480  0.00  0.00     0.109 C 
ATOM     16  O   LIG d   1      -7.832  78.996 117.632  0.00  0.00    -0.276 OA
ATOM     17  H   LIG d   1      -5.149  77.330 117.741  0.00  0.00     0.149 HD
ENDBRANCH   6  13
BRANCH   5  18
ATOM     18  N   LIG d   1      -8.750  76.349 118.539  0.00  0.00     0.381 N 
ATOM     19  H   LIG d   1      -8.403  77.256 118.782  0.00  0.00    -0.090 HD
ATOM     20  H   LIG d   1      -9.016  75.876 119.384  0.00  0.00    -0.090 HD
ATOM     21  H   LIG d   1      -9.538  76.437 117.936  0.00  0.00    -0.090 HD
ENDBRANCH   5  18
BRANCH   3  22
ATOM     22  C   LIG d   1      -7.740  72.328 116.141  0.00  0.00     0.382 C 
ATOM     23  O   LIG d   1      -6.808  71.536 115.861  0.00  0.00    -0.241 OA
ATOM     24  O   LIG d   1      -8.910  71.904 116.193  0.00  0.00    -0.241 OA
ENDBRANCH   3  22
TORSDOF 7
ENDMDL
MODEL 3
REMARK VINA RESULT:      -4.7      8.987     11.294
REMARK  7 active torsions:
REMARK  status: ('A' for Active; 'I' for Inactive)
REMARK    1  A    between atoms: C_2  and  C_3 
REMARK    2  A    between atoms: C_3  and  O_6 
REMARK    3  A    between atoms: C_3  and  C_4 
REMARK    4  A    between atoms: C_7  and  O_6 
REMARK    5  A    between atoms: C_9  and  C_10 
REMARK    6  A    between atoms: N_15  and  C_14 
REMARK    7  A    between atoms: N_20  and  C_19 
REMARK       I    between atoms: C_22  and  N_20 
ROOT
ATOM      1  C   LIG d   1       3.836  85.247 112.865  0.00  0.00     0.161 C 
ATOM      2  C   LIG d   1       4.524  86.467 112.960  0.00  0.00     0.016 C 
ATOM      3  C   LIG d   1       3.926  87.721 112.698  0.00  0.00     0.038 C 
ATOM      4  C   LIG d   1       2.548  87.851 112.467  0.00  0.00     0.028 C 
ATOM      5  C   LIG d   1       1.914  86.602 111.864  0.00  0.00    -0.047 C 
ATOM      6  C   LIG d   1       2.305  85.377 112.723  0.00  0.00     0.091 C 
ENDROOT
BRANCH   1   7
ATOM      7  O   LIG d   1       4.165  84.410 113.991  0.00  0.00    -0.368 OA
BRANCH   7   8
ATOM      8  C   LIG d   1       3.581  84.792 115.261  0.00  0.00     0.119 C 
BRANCH   8   9
ATOM      9  C   LIG d   1       4.738  85.033 116.250  0.00  0.00     0.028 C 
ATOM     10  C   LIG d   1       4.858  86.509 116.664  0.00  0.00     0.006 C 
ENDBRANCH   8   9
BRANCH   8  11
ATOM     11  C   LIG d   1       2.763  83.647 115.865  0.00  0.00     0.028 C 
ATOM     12  C   LIG d   1       1.780  84.122 116.946  0.00  0.00     0.006 C 
ENDBRANCH   8  11
ENDBRANCH   7   8
ENDBRANCH   1   7
BRANCH   6  13
ATOM     13  N   LIG d   1       1.796  84.102 112.155  0.00  0.00    -0.311 N 
ATOM     14  C   LIG d   1       0.625  83.564 112.494  0.00  0.00     0.210 C 
ATOM     15  C   LIG d   1       0.301  82.235 111.805  0.00  0.00     0.109 C 
ATOM     16  O   LIG d   1      -0.190  84.078 113.275  0.00  0.00    -0.276 OA
ATOM     17  H   LIG d   1       2.379  83.633 111.490  0.00  0.00     0.149 HD
ENDBRANCH   6  13
BRANCH   5  18
ATOM     18  N   LIG d   1       0.458  86.826 111.805  0.00  0.00     0.381 N 
ATOM     19  H   LIG d   1       0.186  87.480 112.511  0.00  0.00    -0.090 HD
ATOM     20  H   LIG d   1      -0.012  85.956 111.984  0.00  0.00    -0.090 HD
ATOM     21  H   LIG d   1       0.202  87.171 110.906  0.00  0.00    -0.090 HD
ENDBRANCH   5  18
BRANCH   3  22
ATOM     22  C   LIG d   1       4.716  88.858 112.625  0.00  0.00     0.382 C 
ATOM     23  O   LIG d   1       4.181  89.993 112.605  0.00  0.00    -0.241 OA
ATOM     24  O   LIG d   1       5.955  88.762 112.535  0.00  0.00    -0.241 OA
ENDBRANCH   3  22
TORSDOF 7
ENDMDL
MODEL 4
REMARK VINA RESULT:      -4.6      8.940     10.891
REMARK  7 active torsions:
REMARK  status: ('A' for Active; 'I' for Inactive)
REMARK    1  A    between atoms: C_2  and  C_3 
REMARK    2  A    between atoms: C_3  and  O_6 
REMARK    3  A    between atoms: C_3  and  C_4 
REMARK    4  A    between atoms: C_7  and  O_6 
REMARK    5  A    between atoms: C_9  and  C_10 
REMARK    6  A    between atoms: N_15  and  C_14 
REMARK    7  A    between atoms: N_20  and  C_19 
REMARK       I    between atoms: C_22  and  N_20 
ROOT
ATOM      1  C   LIG d   1       2.369  86.312 113.957  0.00  0.00     0.161 C 
ATOM      2  C   LIG d   1       2.826  87.416 113.218  0.00  0.00     0.016 C 
ATOM      3  C   LIG d   1       3.992  88.144 113.548  0.00  0.00     0.038 C 
ATOM      4  C   LIG d   1       4.869  87.722 114.559  0.00  0.00     0.028 C 
ATOM      5  C   LIG d   1       4.186  86.908 115.653  0.00  0.00    -0.047 C 
ATOM      6  C   LIG d   1       3.372  85.769 114.996  0.00  0.00     0.091 C 
ENDROOT
BRANCH   1   7
ATOM      7  O   LIG d   1       1.958  85.260 113.061  0.00  0.00    -0.368 OA
BRANCH   7   8
ATOM      8  C   LIG d   1       0.571  84.850 113.153  0.00  0.00     0.119 C 
BRANCH   8   9
ATOM      9  C   LIG d   1       0.213  84.131 111.839  0.00  0.00     0.028 C 
ATOM     10  C   LIG d   1      -0.627  82.864 112.073  0.00  0.00     0.006 C 
ENDBRANCH   8   9
BRANCH   8  11
ATOM     11  C   LIG d   1      -0.364  86.061 113.221  0.00  0.00     0.028 C 
ATOM     12  C   LIG d   1      -0.731  86.609 111.833  0.00  0.00     0.006 C 
ENDBRANCH   8  11
ENDBRANCH   7   8
ENDBRANCH   1   7
BRANCH   6  13
ATOM     13  N   LIG d   1       2.605  84.975 115.991  0.00  0.00    -0.311 N 
ATOM     14  C   LIG d   1       2.629  83.644 116.042  0.00  0.00     0.210 C 
ATOM     15  C   LIG d   1       1.749  83.023 117.132  0.00  0.00     0.109 C 
ATOM     16  O   LIG d   1       3.320  82.920 115.310  0.00  0.00    -0.276 OA
ATOM     17  H   LIG d   1       2.042  85.483 116.644  0.00  0.00     0.149 HD
ENDBRANCH   6  13
BRANCH   5  18
ATOM     18  N   LIG d   1       5.236  86.418 116.565  0.00  0.00     0.381 N 
ATOM     19  H   LIG d   1       5.169  86.890 117.444  0.00  0.00    -0.090 HD
ATOM     20  H   LIG d   1       6.135  86.622 116.165  0.00  0.00    -0.090 HD
ATOM     21  H   LIG d   1       5.139  85.435 116.699  0.00  0.00    -0.090 HD
ENDBRANCH   5  18
BRANCH   3  22
ATOM     22  C   LIG d   1       4.269  89.332 112.889  0.00  0.00     0.382 C 
ATOM     23  O   LIG d   1       5.431  89.563 112.476  0.00  0.00    -0.241 OA
ATOM     24  O   LIG d   1       3.383  90.195 112.743  0.00  0.00    -0.241 OA
ENDBRANCH   3  22
TORSDOF 7
ENDMDL
MODEL 5
REMARK VINA RESULT:      -4.6      1.921      4.776
REMARK  7 active torsions:
REMARK  status: ('A' for Active; 'I' for Inactive)
REMARK    1  A    between atoms: C_2  and  C_3 
REMARK    2  A    between atoms: C_3  and  O_6 
REMARK    3  A    between atoms: C_3  and  C_4 
REMARK    4  A    between atoms: C_7  and  O_6 
REMARK    5  A    between atoms: C_9  and  C_10 
REMARK    6  A    between atoms: N_15  and  C_14 
REMARK    7  A    between atoms: N_20  and  C_19 
REMARK       I    between atoms: C_22  and  N_20 
ROOT
ATOM      1  C   LIG d   1      -2.777  76.309 115.887  0.00  0.00     0.161 C 
ATOM      2  C   LIG d   1      -2.188  75.346 116.724  0.00  0.00     0.016 C 
ATOM      3  C   LIG d   1      -0.877  75.460 117.240  0.00  0.00     0.038 C 
ATOM      4  C   LIG d   1      -0.114  76.626 117.075  0.00  0.00     0.028 C 
ATOM      5  C   LIG d   1      -0.472  77.412 115.819  0.00  0.00    -0.047 C 
ATOM      6  C   LIG d   1      -2.001  77.640 115.788  0.00  0.00     0.091 C 
ENDROOT
BRANCH   1   7
ATOM      7  O   LIG d   1      -4.136  76.551 116.301  0.00  0.00    -0.368 OA
BRANCH   7   8
ATOM      8  C   LIG d   1      -5.113  75.565 115.887  0.00  0.00     0.119 C 
BRANCH   8   9
ATOM      9  C   LIG d   1      -5.003  75.417 114.357  0.00  0.00     0.028 C 
ATOM     10  C   LIG d   1      -5.731  76.544 113.605  0.00  0.00     0.006 C 
ENDBRANCH   8   9
BRANCH   8  11
ATOM     11  C   LIG d   1      -6.542  76.054 116.146  0.00  0.00     0.028 C 
ATOM     12  C   LIG d   1      -6.603  77.204 117.163  0.00  0.00     0.006 C 
ENDBRANCH   8  11
ENDBRANCH   7   8
ENDBRANCH   1   7
BRANCH   6  13
ATOM     13  N   LIG d   1      -2.447  78.328 114.548  0.00  0.00    -0.311 N 
ATOM     14  C   LIG d   1      -2.184  77.876 113.323  0.00  0.00     0.210 C 
ATOM     15  C   LIG d   1      -2.718  78.749 112.183  0.00  0.00     0.109 C 
ATOM     16  O   LIG d   1      -1.588  76.818 113.073  0.00  0.00    -0.276 OA
ATOM     17  H   LIG d   1      -2.964  79.178 114.660  0.00  0.00     0.149 HD
ENDBRANCH   6  13
BRANCH   5  18
ATOM     18  N   LIG d   1       0.299  78.669 115.844  0.00  0.00     0.381 N 
ATOM     19  H   LIG d   1       0.719  78.790 116.744  0.00  0.00    -0.090 HD
ATOM     20  H   LIG d   1      -0.327  79.438 115.682  0.00  0.00    -0.090 HD
ATOM     21  H   LIG d   1       1.003  78.651 115.140  0.00  0.00    -0.090 HD
ENDBRANCH   5  18
BRANCH   3  22
ATOM     22  C   LIG d   1      -0.301  74.383 117.896  0.00  0.00     0.382 C 
ATOM     23  O   LIG d   1       0.755  74.542 118.554  0.00  0.00    -0.241 OA
ATOM     24  O   LIG d   1      -0.799  73.245 117.801  0.00  0.00    -0.241 OA
ENDBRANCH   3  22
TORSDOF 7
ENDMDL
MODEL 6
REMARK VINA RESULT:      -4.5     21.656     23.371
REMARK  7 active torsions:
REMARK  status: ('A' for Active; 'I' for Inactive)
REMARK    1  A    between atoms: C_2  and  C_3 
REMARK    2  A    between atoms: C_3  and  O_6 
REMARK    3  A    between atoms: C_3  and  C_4 
REMARK    4  A    between atoms: C_7  and  O_6 
REMARK    5  A    between atoms: C_9  and  C_10 
REMARK    6  A    between atoms: N_15  and  C_14 
REMARK    7  A    between atoms: N_20  and  C_19 
REMARK       I    between atoms: C_22  and  N_20 
ROOT
ATOM      1  C   LIG d   1     -24.001  83.619 112.864  0.00  0.00     0.161 C 
ATOM      2  C   LIG d   1     -23.023  84.552 113.247  0.00  0.00     0.016 C 
ATOM      3  C   LIG d   1     -23.329  85.840 113.744  0.00  0.00     0.038 C 
ATOM      4  C   LIG d   1     -24.645  86.230 114.035  0.00  0.00     0.028 C 
ATOM      5  C   LIG d   1     -25.691  85.508 113.191  0.00  0.00    -0.047 C 
ATOM      6  C   LIG d   1     -25.442  83.985 113.278  0.00  0.00     0.091 C 
ENDROOT
BRANCH   1   7
ATOM      7  O   LIG d   1     -23.652  82.313 113.364  0.00  0.00    -0.368 OA
BRANCH   7   8
ATOM      8  C   LIG d   1     -24.330  81.891 114.572  0.00  0.00     0.119 C 
BRANCH   8   9
ATOM      9  C   LIG d   1     -23.344  82.070 115.743  0.00  0.00     0.028 C 
ATOM     10  C   LIG d   1     -23.705  83.269 116.636  0.00  0.00     0.006 C 
ENDBRANCH   8   9
BRANCH   8  11
ATOM     11  C   LIG d   1     -24.651  80.394 114.537  0.00  0.00     0.028 C 
ATOM     12  C   LIG d   1     -23.736  79.567 115.455  0.00  0.00     0.006 C 
ENDBRANCH   8  11
ENDBRANCH   7   8
ENDBRANCH   1   7
BRANCH   6  13
ATOM     13  N   LIG d   1     -26.369  83.208 112.415  0.00  0.00    -0.311 N 
ATOM     14  C   LIG d   1     -27.503  82.668 112.856  0.00  0.00     0.210 C 
ATOM     15  C   LIG d   1     -28.302  81.891 111.805  0.00  0.00     0.109 C 
ATOM     16  O   LIG d   1     -27.940  82.786 114.011  0.00  0.00    -0.276 OA
ATOM     17  H   LIG d   1     -26.107  83.090 111.455  0.00  0.00     0.149 HD
ENDBRANCH   6  13
BRANCH   5  18
ATOM     18  N   LIG d   1     -27.020  85.906 113.692  0.00  0.00     0.381 N 
ATOM     19  H   LIG d   1     -27.186  85.485 114.584  0.00  0.00    -0.090 HD
ATOM     20  H   LIG d   1     -27.721  85.576 113.052  0.00  0.00    -0.090 HD
ATOM     21  H   LIG d   1     -27.072  86.898 113.770  0.00  0.00    -0.090 HD
ENDBRANCH   5  18
BRANCH   3  22
ATOM     22  C   LIG d   1     -22.314  86.769 113.917  0.00  0.00     0.382 C 
ATOM     23  O   LIG d   1     -22.470  87.727 114.712  0.00  0.00    -0.241 OA
ATOM     24  O   LIG d   1     -21.262  86.686 113.255  0.00  0.00    -0.241 OA
ENDBRANCH   3  22
TORSDOF 7
ENDMDL
MODEL 7
REMARK VINA RESULT:      -4.4     20.078     22.558
REMARK  7 active torsions:
REMARK  status: ('A' for Active; 'I' for Inactive)
REMARK    1  A    between atoms: C_2  and  C_3 
REMARK    2  A    between atoms: C_3  and  O_6 
REMARK    3  A    between atoms: C_3  and  C_4 
REMARK    4  A    between atoms: C_7  and  O_6 
REMARK    5  A    between atoms: C_9  and  C_10 
REMARK    6  A    between atoms: N_15  and  C_14 
REMARK    7  A    between atoms: N_20  and  C_19 
REMARK       I    between atoms: C_22  and  N_20 
ROOT
ATOM      1  C   LIG d   1     -23.801  82.867 114.883  0.00  0.00     0.161 C 
ATOM      2  C   LIG d   1     -23.075  84.069 114.848  0.00  0.00     0.016 C 
ATOM      3  C   LIG d   1     -23.481  85.202 114.107  0.00  0.00     0.038 C 
ATOM      4  C   LIG d   1     -24.728  85.261 113.467  0.00  0.00     0.028 C 
ATOM      5  C   LIG d   1     -25.264  83.894 113.057  0.00  0.00    -0.047 C 
ATOM      6  C   LIG d   1     -25.219  82.950 114.281  0.00  0.00     0.091 C 
ENDROOT
BRANCH   1   7
ATOM      7  O   LIG d   1     -23.859  82.371 116.235  0.00  0.00    -0.368 OA
BRANCH   7   8
ATOM      8  C   LIG d   1     -22.811  81.448 116.621  0.00  0.00     0.119 C 
BRANCH   8   9
ATOM      9  C   LIG d   1     -23.457  80.059 116.790  0.00  0.00     0.028 C 
ATOM     10  C   LIG d   1     -23.314  79.188 115.531  0.00  0.00     0.006 C 
ENDBRANCH   8   9
BRANCH   8  11
ATOM     11  C   LIG d   1     -22.238  81.799 117.997  0.00  0.00     0.028 C 
ATOM     12  C   LIG d   1     -21.052  80.906 118.394  0.00  0.00     0.006 C 
ENDBRANCH   8  11
ENDBRANCH   7   8
ENDBRANCH   1   7
BRANCH   6  13
ATOM     13  N   LIG d   1     -25.648  81.567 113.947  0.00  0.00    -0.311 N 
ATOM     14  C   LIG d   1     -26.531  80.879 114.669  0.00  0.00     0.210 C 
ATOM     15  C   LIG d   1     -26.817  79.462 114.160  0.00  0.00     0.109 C 
ATOM     16  O   LIG d   1     -27.127  81.318 115.663  0.00  0.00    -0.276 OA
ATOM     17  H   LIG d   1     -25.237  81.145 113.137  0.00  0.00     0.149 HD
ENDBRANCH   6  13
BRANCH   5  18
ATOM     18  N   LIG d   1     -26.627  84.089 112.528  0.00  0.00     0.381 N 
ATOM     19  H   LIG d   1     -27.231  83.371 112.874  0.00  0.00    -0.090 HD
ATOM     20  H   LIG d   1     -26.599  84.022 111.526  0.00  0.00    -0.090 HD
ATOM     21  H   LIG d   1     -26.973  84.984 112.799  0.00  0.00    -0.090 HD
ENDBRANCH   5  18
BRANCH   3  22
ATOM     22  C   LIG d   1     -22.617  86.278 113.967  0.00  0.00     0.382 C 
ATOM     23  O   LIG d   1     -21.613  86.183 113.222  0.00  0.00    -0.241 OA
ATOM     24  O   LIG d   1     -22.806  87.327 114.612  0.00  0.00    -0.241 OA
ENDBRANCH   3  22
TORSDOF 7
ENDMDL
MODEL 8
REMARK VINA RESULT:      -4.4     11.766     13.559
REMARK  7 active torsions:
REMARK  status: ('A' for Active; 'I' for Inactive)
REMARK    1  A    between atoms: C_2  and  C_3 
REMARK    2  A    between atoms: C_3  and  O_6 
REMARK    3  A    between atoms: C_3  and  C_4 
REMARK    4  A    between atoms: C_7  and  O_6 
REMARK    5  A    between atoms: C_9  and  C_10 
REMARK    6  A    between atoms: N_15  and  C_14 
REMARK    7  A    between atoms: N_20  and  C_19 
REMARK       I    between atoms: C_22  and  N_20 
ROOT
ATOM      1  C   LIG d   1       4.643  87.345 116.069  0.00  0.00     0.161 C 
ATOM      2  C   LIG d   1       3.716  88.242 115.514  0.00  0.00     0.016 C 
ATOM      3  C   LIG d   1       3.956  89.630 115.388  0.00  0.00     0.038 C 
ATOM      4  C   LIG d   1       5.208  90.194 115.672  0.00  0.00     0.028 C 
ATOM      5  C   LIG d   1       6.005  89.409 116.709  0.00  0.00    -0.047 C 
ATOM      6  C   LIG d   1       6.056  87.924 116.283  0.00  0.00     0.091 C 
ENDROOT
BRANCH   1   7
ATOM      7  O   LIG d   1       4.707  86.150 115.266  0.00  0.00    -0.368 OA
BRANCH   7   8
ATOM      8  C   LIG d   1       3.704  86.024 114.229  0.00  0.00     0.119 C 
BRANCH   8   9
ATOM      9  C   LIG d   1       2.943  84.708 114.478  0.00  0.00     0.028 C 
ATOM     10  C   LIG d   1       1.419  84.878 114.354  0.00  0.00     0.006 C 
ENDBRANCH   8   9
BRANCH   8  11
ATOM     11  C   LIG d   1       4.347  85.865 112.848  0.00  0.00     0.028 C 
ATOM     12  C   LIG d   1       4.514  87.204 112.111  0.00  0.00     0.006 C 
ENDBRANCH   8  11
ENDBRANCH   7   8
ENDBRANCH   1   7
BRANCH   6  13
ATOM     13  N   LIG d   1       6.746  87.071 117.286  0.00  0.00    -0.311 N 
ATOM     14  C   LIG d   1       8.064  86.881 117.305  0.00  0.00     0.210 C 
ATOM     15  C   LIG d   1       8.567  85.948 118.411  0.00  0.00     0.109 C 
ATOM     16  O   LIG d   1       8.868  87.423 116.531  0.00  0.00    -0.276 OA
ATOM     17  H   LIG d   1       6.173  86.618 117.970  0.00  0.00     0.149 HD
ENDBRANCH   6  13
BRANCH   5  18
ATOM     18  N   LIG d   1       7.340  90.029 116.808  0.00  0.00     0.381 N 
ATOM     19  H   LIG d   1       7.264  91.019 116.685  0.00  0.00    -0.090 HD
ATOM     20  H   LIG d   1       7.923  89.664 116.075  0.00  0.00    -0.090 HD
ATOM     21  H   LIG d   1       7.745  89.828 117.696  0.00  0.00    -0.090 HD
ENDBRANCH   5  18
BRANCH   3  22
ATOM     22  C   LIG d   1       2.924  90.474 115.010  0.00  0.00     0.382 C 
ATOM     23  O   LIG d   1       2.884  90.934 113.843  0.00  0.00    -0.241 OA
ATOM     24  O   LIG d   1       2.055  90.818 115.833  0.00  0.00    -0.241 OA
ENDBRANCH   3  22
TORSDOF 7
ENDMDL
MODEL 9
REMARK VINA RESULT:      -4.3     21.652     23.872
REMARK  7 active torsions:
REMARK  status: ('A' for Active; 'I' for Inactive)
REMARK    1  A    between atoms: C_2  and  C_3 
REMARK    2  A    between atoms: C_3  and  O_6 
REMARK    3  A    between atoms: C_3  and  C_4 
REMARK    4  A    between atoms: C_7  and  O_6 
REMARK    5  A    between atoms: C_9  and  C_10 
REMARK    6  A    between atoms: N_15  and  C_14 
REMARK    7  A    between atoms: N_20  and  C_19 
REMARK       I    between atoms: C_22  and  N_20 
ROOT
ATOM      1  C   LIG d   1     -25.341  84.805 114.916  0.00  0.00     0.161 C 
ATOM      2  C   LIG d   1     -24.435  85.855 114.696  0.00  0.00     0.016 C 
ATOM      3  C   LIG d   1     -23.235  85.706 113.963  0.00  0.00     0.038 C 
ATOM      4  C   LIG d   1     -22.933  84.527 113.267  0.00  0.00     0.028 C 
ATOM      5  C   LIG d   1     -23.571  83.283 113.876  0.00  0.00    -0.047 C 
ATOM      6  C   LIG d   1     -25.083  83.540 114.071  0.00  0.00     0.091 C 
ENDROOT
BRANCH   1   7
ATOM      7  O   LIG d   1     -26.690  85.274 114.717  0.00  0.00    -0.368 OA
BRANCH   7   8
ATOM      8  C   LIG d   1     -27.149  85.331 113.344  0.00  0.00     0.119 C 
BRANCH   8   9
ATOM      9  C   LIG d   1     -27.470  86.804 113.024  0.00  0.00     0.028 C 
ATOM     10  C   LIG d   1     -26.525  87.393 111.963  0.00  0.00     0.006 C 
ENDBRANCH   8   9
BRANCH   8  11
ATOM     11  C   LIG d   1     -28.471  84.580 113.167  0.00  0.00     0.028 C 
ATOM     12  C   LIG d   1     -28.579  83.874 111.806  0.00  0.00     0.006 C 
ENDBRANCH   8  11
ENDBRANCH   7   8
ENDBRANCH   1   7
BRANCH   6  13
ATOM     13  N   LIG d   1     -25.769  82.404 114.740  0.00  0.00    -0.311 N 
ATOM     14  C   LIG d   1     -26.374  81.419 114.078  0.00  0.00     0.210 C 
ATOM     15  C   LIG d   1     -27.037  80.358 114.961  0.00  0.00     0.109 C 
ATOM     16  O   LIG d   1     -26.395  81.307 112.843  0.00  0.00    -0.276 OA
ATOM     17  H   LIG d   1     -25.773  82.399 115.742  0.00  0.00     0.149 HD
ENDBRANCH   6  13
BRANCH   5  18
ATOM     18  N   LIG d   1     -23.289  82.150 112.975  0.00  0.00     0.381 N 
ATOM     19  H   LIG d   1     -23.904  82.182 112.187  0.00  0.00    -0.090 HD
ATOM     20  H   LIG d   1     -23.455  81.291 113.471  0.00  0.00    -0.090 HD
ATOM     21  H   LIG d   1     -22.342  82.186 112.668  0.00  0.00    -0.090 HD
ENDBRANCH   5  18
BRANCH   3  22
ATOM     22  C   LIG d   1     -22.303  86.733 113.954  0.00  0.00     0.382 C 
ATOM     23  O   LIG d   1     -21.280  86.645 113.233  0.00  0.00    -0.241 OA
ATOM     24  O   LIG d   1     -22.451  87.727 114.690  0.00  0.00    -0.241 OA
ENDBRANCH   3  22
TORSDOF 7
ENDMDL
