MODEL 1
REMARK VINA RESULT:      -5.5      0.000      0.000
REMARK  7 active torsions:
REMARK  status: ('A' for Active; 'I' for Inactive)
REMARK    1  A    between atoms: C_2  and  C_3 
REMARK    2  A    between atoms: C_3  and  O_6 
REMARK    3  A    between atoms: C_3  and  C_4 
REMARK    4  A    between atoms: C_7  and  O_6 
REMARK    5  A    between atoms: C_9  and  C_10 
REMARK    6  A    between atoms: N_15  and  C_14 
REMARK    7  A    between atoms: N_20  and  C_19 
REMARK       I    between atoms: C_22  and  N_20 
ROOT
ATOM      1  C   LIG d   1       2.007  88.973 115.457  0.00  0.00     0.161 C 
ATOM      2  C   LIG d   1       0.776  89.278 116.061  0.00  0.00     0.016 C 
ATOM      3  C   LIG d   1       0.593  90.361 116.951  0.00  0.00     0.038 C 
ATOM      4  C   LIG d   1       1.600  91.310 117.181  0.00  0.00     0.028 C 
ATOM      5  C   LIG d   1       3.008  90.759 116.987  0.00  0.00    -0.047 C 
ATOM      6  C   LIG d   1       3.089  90.063 115.609  0.00  0.00     0.091 C 
ENDROOT
BRANCH   1   7
ATOM      7  O   LIG d   1       1.804  88.659 114.065  0.00  0.00    -0.368 OA
BRANCH   7   8
ATOM      8  C   LIG d   1       2.211  87.334 113.645  0.00  0.00     0.119 C 
BRANCH   8   9
ATOM      9  C   LIG d   1       2.768  87.453 112.213  0.00  0.00     0.028 C 
ATOM     10  C   LIG d   1       4.078  86.669 112.027  0.00  0.00     0.006 C 
ENDBRANCH   8   9
BRANCH   8  11
ATOM     11  C   LIG d   1       1.009  86.391 113.535  0.00  0.00     0.028 C 
ATOM     12  C   LIG d   1       1.289  84.997 114.117  0.00  0.00     0.006 C 
ENDBRANCH   8  11
ENDBRANCH   7   8
ENDBRANCH   1   7
BRANCH   6  13
ATOM     13  N   LIG d   1       4.409  89.422 115.375  0.00  0.00    -0.311 N 
ATOM     14  C   LIG d   1       5.093  89.546 114.239  0.00  0.00     0.210 C 
ATOM     15  C   LIG d   1       6.423  88.787 114.198  0.00  0.00     0.109 C 
ATOM     16  O   LIG d   1       4.740  90.238 113.272  0.00  0.00    -0.276 OA
ATOM     17  H   LIG d   1       4.785  88.867 116.118  0.00  0.00     0.149 HD
ENDBRANCH   6  13
BRANCH   5  18
ATOM     18  N   LIG d   1       3.951  91.885 117.123  0.00  0.00     0.381 N 
ATOM     19  H   LIG d   1       3.851  92.506 116.344  0.00  0.00    -0.090 HD
ATOM     20  H   LIG d   1       4.889  91.526 117.121  0.00  0.00    -0.090 HD
ATOM     21  H   LIG d   1       3.776  92.375 117.972  0.00  0.00    -0.090 HD
ENDBRANCH   5  18
BRANCH   3  22
ATOM     22  C   LIG d   1      -0.597  90.480 117.653  0.00  0.00     0.382 C 
ATOM     23  O   LIG d   1      -0.976  89.551 118.406  0.00  0.00    -0.241 OA
ATOM     24  O   LIG d   1      -1.318  91.485 117.508  0.00  0.00    -0.241 OA
ENDBRANCH   3  22
TORSDOF 7
ENDMDL
MODEL 2
REMARK VINA RESULT:      -5.1     11.292     13.658
REMARK  7 active torsions:
REMARK  status: ('A' for Active; 'I' for Inactive)
REMARK    1  A    between atoms: C_2  and  C_3 
REMARK    2  A    between atoms: C_3  and  O_6 
REMARK    3  A    between atoms: C_3  and  C_4 
REMARK    4  A    between atoms: C_7  and  O_6 
REMARK    5  A    between atoms: C_9  and  C_10 
REMARK    6  A    between atoms: N_15  and  C_14 
REMARK    7  A    between atoms: N_20  and  C_19 
REMARK       I    between atoms: C_22  and  N_20 
ROOT
ATOM      1  C   LIG d   1      10.411  79.385 114.557  0.00  0.00     0.161 C 
ATOM      2  C   LIG d   1       9.056  79.341 114.927  0.00  0.00     0.016 C 
ATOM      3  C   LIG d   1       8.411  78.166 115.378  0.00  0.00     0.038 C 
ATOM      4  C   LIG d   1       9.120  76.984 115.637  0.00  0.00     0.028 C 
ATOM      5  C   LIG d   1      10.387  76.842 114.799  0.00  0.00    -0.047 C 
ATOM      6  C   LIG d   1      11.227  78.132 114.938  0.00  0.00     0.091 C 
ENDROOT
BRANCH   1   7
ATOM      7  O   LIG d   1      11.027  80.569 115.102  0.00  0.00    -0.368 OA
BRANCH   7   8
ATOM      8  C   LIG d   1      11.218  81.670 114.180  0.00  0.00     0.119 C 
BRANCH   8   9
ATOM      9  C   LIG d   1      10.017  82.621 114.339  0.00  0.00     0.028 C 
ATOM     10  C   LIG d   1       9.803  83.057 115.799  0.00  0.00     0.006 C 
ENDBRANCH   8   9
BRANCH   8  11
ATOM     11  C   LIG d   1      11.168  81.194 112.725  0.00  0.00     0.028 C 
ATOM     12  C   LIG d   1      10.415  82.167 111.805  0.00  0.00     0.006 C 
ENDBRANCH   8  11
ENDBRANCH   7   8
ENDBRANCH   1   7
BRANCH   6  13
ATOM     13  N   LIG d   1      12.443  78.111 114.084  0.00  0.00    -0.311 N 
ATOM     14  C   LIG d   1      13.614  77.621 114.488  0.00  0.00     0.210 C 
ATOM     15  C   LIG d   1      14.744  77.714 113.457  0.00  0.00     0.109 C 
ATOM     16  O   LIG d   1      13.815  77.088 115.589  0.00  0.00    -0.276 OA
ATOM     17  H   LIG d   1      12.360  78.495 113.163  0.00  0.00     0.149 HD
ENDBRANCH   6  13
BRANCH   5  18
ATOM     18  N   LIG d   1      11.097  75.637 115.267  0.00  0.00     0.381 N 
ATOM     19  H   LIG d   1      11.648  75.859 116.072  0.00  0.00    -0.090 HD
ATOM     20  H   LIG d   1      11.715  75.321 114.540  0.00  0.00    -0.090 HD
ATOM     21  H   LIG d   1      10.442  74.920 115.491  0.00  0.00    -0.090 HD
ENDBRANCH   5  18
BRANCH   3  22
ATOM     22  C   LIG d   1       7.034  78.157 115.539  0.00  0.00     0.382 C 
ATOM     23  O   LIG d   1       6.509  77.419 116.407  0.00  0.00    -0.241 OA
ATOM     24  O   LIG d   1       6.307  78.844 114.796  0.00  0.00    -0.241 OA
ENDBRANCH   3  22
TORSDOF 7
ENDMDL
MODEL 3
REMARK VINA RESULT:      -5.0     12.120     13.917
REMARK  7 active torsions:
REMARK  status: ('A' for Active; 'I' for Inactive)
REMARK    1  A    between atoms: C_2  and  C_3 
REMARK    2  A    between atoms: C_3  and  O_6 
REMARK    3  A    between atoms: C_3  and  C_4 
REMARK    4  A    between atoms: C_7  and  O_6 
REMARK    5  A    between atoms: C_9  and  C_10 
REMARK    6  A    between atoms: N_15  and  C_14 
REMARK    7  A    between atoms: N_20  and  C_19 
REMARK       I    between atoms: C_22  and  N_20 
ROOT
ATOM      1  C   LIG d   1      -5.226  77.369 117.603  0.00  0.00     0.161 C 
ATOM      2  C   LIG d   1      -6.404  78.132 117.544  0.00  0.00     0.016 C 
ATOM      3  C   LIG d   1      -6.428  79.539 117.680  0.00  0.00     0.038 C 
ATOM      4  C   LIG d   1      -5.250  80.299 117.735  0.00  0.00     0.028 C 
ATOM      5  C   LIG d   1      -4.061  79.532 118.305  0.00  0.00    -0.047 C 
ATOM      6  C   LIG d   1      -3.921  78.190 117.551  0.00  0.00     0.091 C 
ENDROOT
BRANCH   1   7
ATOM      7  O   LIG d   1      -5.235  76.375 116.560  0.00  0.00    -0.368 OA
BRANCH   7   8
ATOM      8  C   LIG d   1      -6.532  75.840 116.200  0.00  0.00     0.119 C 
BRANCH   8   9
ATOM      9  C   LIG d   1      -6.615  74.408 116.764  0.00  0.00     0.028 C 
ATOM     10  C   LIG d   1      -7.617  73.531 115.994  0.00  0.00     0.006 C 
ENDBRANCH   8   9
BRANCH   8  11
ATOM     11  C   LIG d   1      -6.670  75.687 114.682  0.00  0.00     0.028 C 
ATOM     12  C   LIG d   1      -5.314  75.635 113.962  0.00  0.00     0.006 C 
ENDBRANCH   8  11
ENDBRANCH   7   8
ENDBRANCH   1   7
BRANCH   6  13
ATOM     13  N   LIG d   1      -2.833  77.341 118.103  0.00  0.00    -0.311 N 
ATOM     14  C   LIG d   1      -1.595  77.325 117.611  0.00  0.00     0.210 C 
ATOM     15  C   LIG d   1      -0.633  76.363 118.315  0.00  0.00     0.109 C 
ATOM     16  O   LIG d   1      -1.194  78.039 116.680  0.00  0.00    -0.276 OA
ATOM     17  H   LIG d   1      -3.063  76.753 118.879  0.00  0.00     0.149 HD
ENDBRANCH   6  13
BRANCH   5  18
ATOM     18  N   LIG d   1      -2.871  80.395 118.176  0.00  0.00     0.381 N 
ATOM     19  H   LIG d   1      -2.563  80.684 119.083  0.00  0.00    -0.090 HD
ATOM     20  H   LIG d   1      -3.120  81.215 117.651  0.00  0.00    -0.090 HD
ATOM     21  H   LIG d   1      -2.142  79.902 117.710  0.00  0.00    -0.090 HD
ENDBRANCH   5  18
BRANCH   3  22
ATOM     22  C   LIG d   1      -7.642  80.197 117.803  0.00  0.00     0.382 C 
ATOM     23  O   LIG d   1      -8.548  79.713 118.524  0.00  0.00    -0.241 OA
ATOM     24  O   LIG d   1      -7.859  81.246 117.168  0.00  0.00    -0.241 OA
ENDBRANCH   3  22
TORSDOF 7
ENDMDL
MODEL 4
REMARK VINA RESULT:      -4.9      6.930     10.175
REMARK  7 active torsions:
REMARK  status: ('A' for Active; 'I' for Inactive)
REMARK    1  A    between atoms: C_2  and  C_3 
REMARK    2  A    between atoms: C_3  and  O_6 
REMARK    3  A    between atoms: C_3  and  C_4 
REMARK    4  A    between atoms: C_7  and  O_6 
REMARK    5  A    between atoms: C_9  and  C_10 
REMARK    6  A    between atoms: N_15  and  C_14 
REMARK    7  A    between atoms: N_20  and  C_19 
REMARK       I    between atoms: C_22  and  N_20 
ROOT
ATOM      1  C   LIG d   1      -2.381  81.837 113.413  0.00  0.00     0.161 C 
ATOM      2  C   LIG d   1      -2.712  80.481 113.255  0.00  0.00     0.016 C 
ATOM      3  C   LIG d   1      -1.846  79.532 112.665  0.00  0.00     0.038 C 
ATOM      4  C   LIG d   1      -0.522  79.847 112.327  0.00  0.00     0.028 C 
ATOM      5  C   LIG d   1      -0.313  81.322 112.004  0.00  0.00    -0.047 C 
ATOM      6  C   LIG d   1      -0.898  82.175 113.153  0.00  0.00     0.091 C 
ENDROOT
BRANCH   1   7
ATOM      7  O   LIG d   1      -2.774  82.286 114.725  0.00  0.00    -0.368 OA
BRANCH   7   8
ATOM      8  C   LIG d   1      -2.768  81.283 115.771  0.00  0.00     0.119 C 
BRANCH   8   9
ATOM      9  C   LIG d   1      -3.974  81.563 116.688  0.00  0.00     0.028 C 
ATOM     10  C   LIG d   1      -4.438  80.308 117.446  0.00  0.00     0.006 C 
ENDBRANCH   8   9
BRANCH   8  11
ATOM     11  C   LIG d   1      -1.535  81.422 116.669  0.00  0.00     0.028 C 
ATOM     12  C   LIG d   1      -0.424  80.422 116.314  0.00  0.00     0.006 C 
ENDBRANCH   8  11
ENDBRANCH   7   8
ENDBRANCH   1   7
BRANCH   6  13
ATOM     13  N   LIG d   1      -0.811  83.633 112.877  0.00  0.00    -0.311 N 
ATOM     14  C   LIG d   1       0.177  84.406 113.324  0.00  0.00     0.210 C 
ATOM     15  C   LIG d   1       0.064  85.885 112.943  0.00  0.00     0.109 C 
ATOM     16  O   LIG d   1       1.153  84.001 113.973  0.00  0.00    -0.276 OA
ATOM     17  H   LIG d   1      -1.546  84.039 112.331  0.00  0.00     0.149 HD
ENDBRANCH   6  13
BRANCH   5  18
ATOM     18  N   LIG d   1       1.133  81.535 111.806  0.00  0.00     0.381 N 
ATOM     19  H   LIG d   1       1.363  82.492 111.987  0.00  0.00    -0.090 HD
ATOM     20  H   LIG d   1       1.364  81.331 110.849  0.00  0.00    -0.090 HD
ATOM     21  H   LIG d   1       1.652  80.940 112.414  0.00  0.00    -0.090 HD
ENDBRANCH   5  18
BRANCH   3  22
ATOM     22  C   LIG d   1      -2.317  78.262 112.370  0.00  0.00     0.382 C 
ATOM     23  O   LIG d   1      -3.477  77.928 112.712  0.00  0.00    -0.241 OA
ATOM     24  O   LIG d   1      -1.581  77.431 111.805  0.00  0.00    -0.241 OA
ENDBRANCH   3  22
TORSDOF 7
ENDMDL
MODEL 5
REMARK VINA RESULT:      -4.9      9.021     11.821
REMARK  7 active torsions:
REMARK  status: ('A' for Active; 'I' for Inactive)
REMARK    1  A    between atoms: C_2  and  C_3 
REMARK    2  A    between atoms: C_3  and  O_6 
REMARK    3  A    between atoms: C_3  and  C_4 
REMARK    4  A    between atoms: C_7  and  O_6 
REMARK    5  A    between atoms: C_9  and  C_10 
REMARK    6  A    between atoms: N_15  and  C_14 
REMARK    7  A    between atoms: N_20  and  C_19 
REMARK       I    between atoms: C_22  and  N_20 
ROOT
ATOM      1  C   LIG d   1      -1.142  79.700 115.425  0.00  0.00     0.161 C 
ATOM      2  C   LIG d   1      -1.357  80.983 114.893  0.00  0.00     0.016 C 
ATOM      3  C   LIG d   1      -1.619  81.223 113.525  0.00  0.00     0.038 C 
ATOM      4  C   LIG d   1      -1.837  80.177 112.617  0.00  0.00     0.028 C 
ATOM      5  C   LIG d   1      -1.133  78.881 113.005  0.00  0.00    -0.047 C 
ATOM      6  C   LIG d   1      -1.486  78.538 114.470  0.00  0.00     0.091 C 
ENDROOT
BRANCH   1   7
ATOM      7  O   LIG d   1      -1.863  79.559 116.666  0.00  0.00    -0.368 OA
BRANCH   7   8
ATOM      8  C   LIG d   1      -3.295  79.370 116.552  0.00  0.00     0.119 C 
BRANCH   8   9
ATOM      9  C   LIG d   1      -3.974  80.426 117.446  0.00  0.00     0.028 C 
ATOM     10  C   LIG d   1      -2.956  81.318 118.178  0.00  0.00     0.006 C 
ENDBRANCH   8   9
BRANCH   8  11
ATOM     11  C   LIG d   1      -3.726  78.017 117.126  0.00  0.00     0.028 C 
ATOM     12  C   LIG d   1      -2.716  77.450 118.137  0.00  0.00     0.006 C 
ENDBRANCH   8  11
ENDBRANCH   7   8
ENDBRANCH   1   7
BRANCH   6  13
ATOM     13  N   LIG d   1      -0.771  77.329 114.957  0.00  0.00    -0.311 N 
ATOM     14  C   LIG d   1      -1.288  76.103 114.908  0.00  0.00     0.210 C 
ATOM     15  C   LIG d   1      -0.392  75.000 115.481  0.00  0.00     0.109 C 
ATOM     16  O   LIG d   1      -2.389  75.818 114.413  0.00  0.00    -0.276 OA
ATOM     17  H   LIG d   1       0.142  77.465 115.346  0.00  0.00     0.149 HD
ENDBRANCH   6  13
BRANCH   5  18
ATOM     18  N   LIG d   1      -1.556  77.840 112.049  0.00  0.00     0.381 N 
ATOM     19  H   LIG d   1      -0.777  77.255 111.819  0.00  0.00    -0.090 HD
ATOM     20  H   LIG d   1      -1.877  78.284 111.207  0.00  0.00    -0.090 HD
ATOM     21  H   LIG d   1      -2.287  77.291 112.445  0.00  0.00    -0.090 HD
ENDBRANCH   5  18
BRANCH   3  22
ATOM     22  C   LIG d   1      -1.627  82.524 113.045  0.00  0.00     0.382 C 
ATOM     23  O   LIG d   1      -1.642  82.737 111.809  0.00  0.00    -0.241 OA
ATOM     24  O   LIG d   1      -1.575  83.488 113.832  0.00  0.00    -0.241 OA
ENDBRANCH   3  22
TORSDOF 7
ENDMDL
MODEL 6
REMARK VINA RESULT:      -4.6      2.803      4.661
REMARK  7 active torsions:
REMARK  status: ('A' for Active; 'I' for Inactive)
REMARK    1  A    between atoms: C_2  and  C_3 
REMARK    2  A    between atoms: C_3  and  O_6 
REMARK    3  A    between atoms: C_3  and  C_4 
REMARK    4  A    between atoms: C_7  and  O_6 
REMARK    5  A    between atoms: C_9  and  C_10 
REMARK    6  A    between atoms: N_15  and  C_14 
REMARK    7  A    between atoms: N_20  and  C_19 
REMARK       I    between atoms: C_22  and  N_20 
ROOT
ATOM      1  C   LIG d   1       4.710  88.678 114.734  0.00  0.00     0.161 C 
ATOM      2  C   LIG d   1       4.474  89.791 115.558  0.00  0.00     0.016 C 
ATOM      3  C   LIG d   1       3.189  90.156 116.022  0.00  0.00     0.038 C 
ATOM      4  C   LIG d   1       2.067  89.340 115.817  0.00  0.00     0.028 C 
ATOM      5  C   LIG d   1       2.169  88.473 114.566  0.00  0.00    -0.047 C 
ATOM      6  C   LIG d   1       3.514  87.713 114.591  0.00  0.00     0.091 C 
ENDROOT
BRANCH   1   7
ATOM      7  O   LIG d   1       5.875  87.966 115.196  0.00  0.00    -0.368 OA
BRANCH   7   8
ATOM      8  C   LIG d   1       6.245  88.180 116.581  0.00  0.00     0.119 C 
BRANCH   8   9
ATOM      9  C   LIG d   1       7.757  88.472 116.617  0.00  0.00     0.028 C 
ATOM     10  C   LIG d   1       8.592  87.210 116.893  0.00  0.00     0.006 C 
ENDBRANCH   8   9
BRANCH   8  11
ATOM     11  C   LIG d   1       6.058  86.906 117.410  0.00  0.00     0.028 C 
ATOM     12  C   LIG d   1       4.635  86.765 117.973  0.00  0.00     0.006 C 
ENDBRANCH   8  11
ENDBRANCH   7   8
ENDBRANCH   1   7
BRANCH   6  13
ATOM     13  N   LIG d   1       3.732  86.906 113.362  0.00  0.00    -0.311 N 
ATOM     14  C   LIG d   1       3.943  85.591 113.376  0.00  0.00     0.210 C 
ATOM     15  C   LIG d   1       4.164  84.956 112.000  0.00  0.00     0.109 C 
ATOM     16  O   LIG d   1       3.937  84.885 114.396  0.00  0.00    -0.276 OA
ATOM     17  H   LIG d   1       3.722  87.394 112.488  0.00  0.00     0.149 HD
ENDBRANCH   6  13
BRANCH   5  18
ATOM     18  N   LIG d   1       0.998  87.576 114.549  0.00  0.00     0.381 N 
ATOM     19  H   LIG d   1       1.299  86.625 114.625  0.00  0.00    -0.090 HD
ATOM     20  H   LIG d   1       0.517  87.685 113.673  0.00  0.00    -0.090 HD
ATOM     21  H   LIG d   1       0.386  87.800 115.302  0.00  0.00    -0.090 HD
ENDBRANCH   5  18
BRANCH   3  22
ATOM     22  C   LIG d   1       3.011  91.370 116.667  0.00  0.00     0.382 C 
ATOM     23  O   LIG d   1       3.988  92.140 116.834  0.00  0.00    -0.241 OA
ATOM     24  O   LIG d   1       1.896  91.686 117.124  0.00  0.00    -0.241 OA
ENDBRANCH   3  22
TORSDOF 7
ENDMDL
MODEL 7
REMARK VINA RESULT:      -4.6      3.547      5.373
REMARK  7 active torsions:
REMARK  status: ('A' for Active; 'I' for Inactive)
REMARK    1  A    between atoms: C_2  and  C_3 
REMARK    2  A    between atoms: C_3  and  O_6 
REMARK    3  A    between atoms: C_3  and  C_4 
REMARK    4  A    between atoms: C_7  and  O_6 
REMARK    5  A    between atoms: C_9  and  C_10 
REMARK    6  A    between atoms: N_15  and  C_14 
REMARK    7  A    between atoms: N_20  and  C_19 
REMARK       I    between atoms: C_22  and  N_20 
ROOT
ATOM      1  C   LIG d   1       4.135  88.035 115.534  0.00  0.00     0.161 C 
ATOM      2  C   LIG d   1       3.329  87.343 114.614  0.00  0.00     0.016 C 
ATOM      3  C   LIG d   1       3.584  87.314 113.224  0.00  0.00     0.038 C 
ATOM      4  C   LIG d   1       4.755  87.854 112.673  0.00  0.00     0.028 C 
ATOM      5  C   LIG d   1       5.340  88.997 113.496  0.00  0.00    -0.047 C 
ATOM      6  C   LIG d   1       5.479  88.537 114.965  0.00  0.00     0.091 C 
ENDROOT
BRANCH   1   7
ATOM      7  O   LIG d   1       4.359  87.218 116.700  0.00  0.00    -0.368 OA
BRANCH   7   8
ATOM      8  C   LIG d   1       5.311  86.137 116.548  0.00  0.00     0.119 C 
BRANCH   8   9
ATOM      9  C   LIG d   1       4.533  84.813 116.678  0.00  0.00     0.028 C 
ATOM     10  C   LIG d   1       3.380  84.907 117.691  0.00  0.00     0.006 C 
ENDBRANCH   8   9
BRANCH   8  11
ATOM     11  C   LIG d   1       6.328  86.124 117.693  0.00  0.00     0.028 C 
ATOM     12  C   LIG d   1       7.631  85.398 117.325  0.00  0.00     0.006 C 
ENDBRANCH   8  11
ENDBRANCH   7   8
ENDBRANCH   1   7
BRANCH   6  13
ATOM     13  N   LIG d   1       5.966  89.623 115.855  0.00  0.00    -0.311 N 
ATOM     14  C   LIG d   1       7.179  89.632 116.406  0.00  0.00     0.210 C 
ATOM     15  C   LIG d   1       7.471  90.835 117.307  0.00  0.00     0.109 C 
ATOM     16  O   LIG d   1       8.051  88.773 116.208  0.00  0.00    -0.276 OA
ATOM     17  H   LIG d   1       5.333  90.376 116.044  0.00  0.00     0.149 HD
ENDBRANCH   6  13
BRANCH   5  18
ATOM     18  N   LIG d   1       6.629  89.373 112.883  0.00  0.00     0.381 N 
ATOM     19  H   LIG d   1       6.466  89.852 112.020  0.00  0.00    -0.090 HD
ATOM     20  H   LIG d   1       7.151  88.537 112.687  0.00  0.00    -0.090 HD
ATOM     21  H   LIG d   1       7.144  89.957 113.504  0.00  0.00    -0.090 HD
ENDBRANCH   5  18
BRANCH   3  22
ATOM     22  C   LIG d   1       2.639  86.774 112.364  0.00  0.00     0.382 C 
ATOM     23  O   LIG d   1       2.654  85.545 112.109  0.00  0.00    -0.241 OA
ATOM     24  O   LIG d   1       1.801  87.506 111.805  0.00  0.00    -0.241 OA
ENDBRANCH   3  22
TORSDOF 7
ENDMDL
MODEL 8
REMARK VINA RESULT:      -4.6     10.338     13.238
REMARK  7 active torsions:
REMARK  status: ('A' for Active; 'I' for Inactive)
REMARK    1  A    between atoms: C_2  and  C_3 
REMARK    2  A    between atoms: C_3  and  O_6 
REMARK    3  A    between atoms: C_3  and  C_4 
REMARK    4  A    between atoms: C_7  and  O_6 
REMARK    5  A    between atoms: C_9  and  C_10 
REMARK    6  A    between atoms: N_15  and  C_14 
REMARK    7  A    between atoms: N_20  and  C_19 
REMARK       I    between atoms: C_22  and  N_20 
ROOT
ATOM      1  C   LIG d   1      -2.625  78.196 116.119  0.00  0.00     0.161 C 
ATOM      2  C   LIG d   1      -1.382  78.661 116.580  0.00  0.00     0.016 C 
ATOM      3  C   LIG d   1      -0.352  77.807 117.034  0.00  0.00     0.038 C 
ATOM      4  C   LIG d   1      -0.439  76.412 116.916  0.00  0.00     0.028 C 
ATOM      5  C   LIG d   1      -1.872  75.891 116.927  0.00  0.00    -0.047 C 
ATOM      6  C   LIG d   1      -2.697  76.673 115.879  0.00  0.00     0.091 C 
ENDROOT
BRANCH   1   7
ATOM      7  O   LIG d   1      -3.002  78.910 114.925  0.00  0.00    -0.368 OA
BRANCH   7   8
ATOM      8  C   LIG d   1      -1.965  79.711 114.308  0.00  0.00     0.119 C 
BRANCH   8   9
ATOM      9  C   LIG d   1      -2.611  81.035 113.855  0.00  0.00     0.028 C 
ATOM     10  C   LIG d   1      -2.451  82.153 114.898  0.00  0.00     0.006 C 
ENDBRANCH   8   9
BRANCH   8  11
ATOM     11  C   LIG d   1      -1.444  79.055 113.026  0.00  0.00     0.028 C 
ATOM     12  C   LIG d   1      -2.557  78.392 112.200  0.00  0.00     0.006 C 
ENDBRANCH   8  11
ENDBRANCH   7   8
ENDBRANCH   1   7
BRANCH   6  13
ATOM     13  N   LIG d   1      -4.132  76.285 115.883  0.00  0.00    -0.311 N 
ATOM     14  C   LIG d   1      -4.779  75.860 114.799  0.00  0.00     0.210 C 
ATOM     15  C   LIG d   1      -6.259  75.530 115.017  0.00  0.00     0.109 C 
ATOM     16  O   LIG d   1      -4.260  75.694 113.685  0.00  0.00    -0.276 OA
ATOM     17  H   LIG d   1      -4.623  76.359 116.752  0.00  0.00     0.149 HD
ENDBRANCH   6  13
BRANCH   5  18
ATOM     18  N   LIG d   1      -1.822  74.442 116.659  0.00  0.00     0.381 N 
ATOM     19  H   LIG d   1      -2.556  74.189 116.027  0.00  0.00    -0.090 HD
ATOM     20  H   LIG d   1      -1.965  73.947 117.521  0.00  0.00    -0.090 HD
ATOM     21  H   LIG d   1      -0.939  74.197 116.269  0.00  0.00    -0.090 HD
ENDBRANCH   5  18
BRANCH   3  22
ATOM     22  C   LIG d   1       0.767  78.347 117.651  0.00  0.00     0.382 C 
ATOM     23  O   LIG d   1       1.814  77.665 117.758  0.00  0.00    -0.241 OA
ATOM     24  O   LIG d   1       0.727  79.491 118.142  0.00  0.00    -0.241 OA
ENDBRANCH   3  22
TORSDOF 7
ENDMDL
MODEL 9
REMARK VINA RESULT:      -4.5      8.189     11.292
REMARK  7 active torsions:
REMARK  status: ('A' for Active; 'I' for Inactive)
REMARK    1  A    between atoms: C_2  and  C_3 
REMARK    2  A    between atoms: C_3  and  O_6 
REMARK    3  A    between atoms: C_3  and  C_4 
REMARK    4  A    between atoms: C_7  and  O_6 
REMARK    5  A    between atoms: C_9  and  C_10 
REMARK    6  A    between atoms: N_15  and  C_14 
REMARK    7  A    between atoms: N_20  and  C_19 
REMARK       I    between atoms: C_22  and  N_20 
ROOT
ATOM      1  C   LIG d   1      -2.033  79.879 115.359  0.00  0.00     0.161 C 
ATOM      2  C   LIG d   1      -2.605  78.596 115.357  0.00  0.00     0.016 C 
ATOM      3  C   LIG d   1      -2.431  77.668 114.304  0.00  0.00     0.038 C 
ATOM      4  C   LIG d   1      -1.542  77.907 113.245  0.00  0.00     0.028 C 
ATOM      5  C   LIG d   1      -1.335  79.388 112.951  0.00  0.00    -0.047 C 
ATOM      6  C   LIG d   1      -0.970  80.115 114.265  0.00  0.00     0.091 C 
ENDROOT
BRANCH   1   7
ATOM      7  O   LIG d   1      -1.484  80.166 116.661  0.00  0.00    -0.368 OA
BRANCH   7   8
ATOM      8  C   LIG d   1      -2.370  80.834 117.593  0.00  0.00     0.119 C 
BRANCH   8   9
ATOM      9  C   LIG d   1      -3.400  81.627 116.765  0.00  0.00     0.028 C 
ATOM     10  C   LIG d   1      -4.818  81.542 117.355  0.00  0.00     0.006 C 
ENDBRANCH   8   9
BRANCH   8  11
ATOM     11  C   LIG d   1      -1.621  81.883 118.420  0.00  0.00     0.028 C 
ATOM     12  C   LIG d   1      -0.256  82.253 117.818  0.00  0.00     0.006 C 
ENDBRANCH   8  11
ENDBRANCH   7   8
ENDBRANCH   1   7
BRANCH   6  13
ATOM     13  N   LIG d   1      -0.833  81.583 114.082  0.00  0.00    -0.311 N 
ATOM     14  C   LIG d   1       0.322  82.234 114.216  0.00  0.00     0.210 C 
ATOM     15  C   LIG d   1       0.239  83.749 114.004  0.00  0.00     0.109 C 
ATOM     16  O   LIG d   1       1.412  81.696 114.460  0.00  0.00    -0.276 OA
ATOM     17  H   LIG d   1      -1.663  82.094 113.852  0.00  0.00     0.149 HD
ENDBRANCH   6  13
BRANCH   5  18
ATOM     18  N   LIG d   1      -0.284  79.495 111.921  0.00  0.00     0.381 N 
ATOM     19  H   LIG d   1       0.264  80.317 112.079  0.00  0.00    -0.090 HD
ATOM     20  H   LIG d   1      -0.720  79.576 111.019  0.00  0.00    -0.090 HD
ATOM     21  H   LIG d   1       0.299  78.688 111.944  0.00  0.00    -0.090 HD
ENDBRANCH   5  18
BRANCH   3  22
ATOM     22  C   LIG d   1      -3.181  76.502 114.285  0.00  0.00     0.382 C 
ATOM     23  O   LIG d   1      -2.690  75.433 114.722  0.00  0.00    -0.241 OA
ATOM     24  O   LIG d   1      -4.326  76.496 113.795  0.00  0.00    -0.241 OA
ENDBRANCH   3  22
TORSDOF 7
ENDMDL
