MODEL 1
REMARK VINA RESULT:      -5.1      0.000      0.000
REMARK  7 active torsions:
REMARK  status: ('A' for Active; 'I' for Inactive)
REMARK    1  A    between atoms: C_2  and  C_3 
REMARK    2  A    between atoms: C_3  and  O_6 
REMARK    3  A    between atoms: C_3  and  C_4 
REMARK    4  A    between atoms: C_7  and  O_6 
REMARK    5  A    between atoms: C_9  and  C_10 
REMARK    6  A    between atoms: N_15  and  C_14 
REMARK    7  A    between atoms: N_20  and  C_19 
REMARK       I    between atoms: C_22  and  N_20 
ROOT
ATOM      1  C   LIG d   1      -1.778  78.621 115.036  0.00  0.00     0.161 C 
ATOM      2  C   LIG d   1      -2.173  79.824 114.428  0.00  0.00     0.016 C 
ATOM      3  C   LIG d   1      -2.500  79.933 113.057  0.00  0.00     0.038 C 
ATOM      4  C   LIG d   1      -2.601  78.807 112.227  0.00  0.00     0.028 C 
ATOM      5  C   LIG d   1      -1.722  77.644 112.676  0.00  0.00    -0.047 C 
ATOM      6  C   LIG d   1      -1.989  77.360 114.172  0.00  0.00     0.091 C 
ENDROOT
BRANCH   1   7
ATOM      7  O   LIG d   1      -2.441  78.474 116.307  0.00  0.00    -0.368 OA
BRANCH   7   8
ATOM      8  C   LIG d   1      -3.873  78.699 116.308  0.00  0.00     0.119 C 
BRANCH   8   9
ATOM      9  C   LIG d   1      -4.184  79.690 117.446  0.00  0.00     0.028 C 
ATOM     10  C   LIG d   1      -5.645  80.171 117.422  0.00  0.00     0.006 C 
ENDBRANCH   8   9
BRANCH   8  11
ATOM     11  C   LIG d   1      -4.638  77.421 116.662  0.00  0.00     0.028 C 
ATOM     12  C   LIG d   1      -4.013  76.660 117.842  0.00  0.00     0.006 C 
ENDBRANCH   8  11
ENDBRANCH   7   8
ENDBRANCH   1   7
BRANCH   6  13
ATOM     13  N   LIG d   1      -1.109  76.292 114.712  0.00  0.00    -0.311 N 
ATOM     14  C   LIG d   1      -1.566  75.128 115.172  0.00  0.00     0.210 C 
ATOM     15  C   LIG d   1      -0.491  74.175 115.702  0.00  0.00     0.109 C 
ATOM     16  O   LIG d   1      -2.757  74.782 115.161  0.00  0.00    -0.276 OA
ATOM     17  H   LIG d   1      -0.125  76.476 114.729  0.00  0.00     0.149 HD
ENDBRANCH   6  13
BRANCH   5  18
ATOM     18  N   LIG d   1      -2.028  76.493 111.805  0.00  0.00     0.381 N 
ATOM     19  H   LIG d   1      -3.013  76.313 111.815  0.00  0.00    -0.090 HD
ATOM     20  H   LIG d   1      -1.556  75.680 112.163  0.00  0.00    -0.090 HD
ATOM     21  H   LIG d   1      -1.726  76.679 110.875  0.00  0.00    -0.090 HD
ENDBRANCH   5  18
BRANCH   3  22
ATOM     22  C   LIG d   1      -2.692  81.186 112.494  0.00  0.00     0.382 C 
ATOM     23  O   LIG d   1      -3.853  81.589 112.243  0.00  0.00    -0.241 OA
ATOM     24  O   LIG d   1      -1.716  81.899 112.192  0.00  0.00    -0.241 OA
ENDBRANCH   3  22
TORSDOF 7
ENDMDL
MODEL 2
REMARK VINA RESULT:      -4.9      7.818      9.865
REMARK  7 active torsions:
REMARK  status: ('A' for Active; 'I' for Inactive)
REMARK    1  A    between atoms: C_2  and  C_3 
REMARK    2  A    between atoms: C_3  and  O_6 
REMARK    3  A    between atoms: C_3  and  C_4 
REMARK    4  A    between atoms: C_7  and  O_6 
REMARK    5  A    between atoms: C_9  and  C_10 
REMARK    6  A    between atoms: N_15  and  C_14 
REMARK    7  A    between atoms: N_20  and  C_19 
REMARK       I    between atoms: C_22  and  N_20 
ROOT
ATOM      1  C   LIG d   1       2.106  85.756 114.782  0.00  0.00     0.161 C 
ATOM      2  C   LIG d   1       2.374  86.943 114.080  0.00  0.00     0.016 C 
ATOM      3  C   LIG d   1       3.623  87.605 114.119  0.00  0.00     0.038 C 
ATOM      4  C   LIG d   1       4.742  87.040 114.747  0.00  0.00     0.028 C 
ATOM      5  C   LIG d   1       4.384  86.096 115.890  0.00  0.00    -0.047 C 
ATOM      6  C   LIG d   1       3.349  85.066 115.383  0.00  0.00     0.091 C 
ENDROOT
BRANCH   1   7
ATOM      7  O   LIG d   1       1.384  84.839 113.936  0.00  0.00    -0.368 OA
BRANCH   7   8
ATOM      8  C   LIG d   1       1.606  84.979 112.511  0.00  0.00     0.119 C 
BRANCH   8   9
ATOM      9  C   LIG d   1       0.245  84.796 111.811  0.00  0.00     0.028 C 
ATOM     10  C   LIG d   1      -0.731  85.945 112.117  0.00  0.00     0.006 C 
ENDBRANCH   8   9
BRANCH   8  11
ATOM     11  C   LIG d   1       2.494  83.854 111.971  0.00  0.00     0.028 C 
ATOM     12  C   LIG d   1       3.961  84.280 111.805  0.00  0.00     0.006 C 
ENDBRANCH   8  11
ENDBRANCH   7   8
ENDBRANCH   1   7
BRANCH   6  13
ATOM     13  N   LIG d   1       2.881  84.156 116.461  0.00  0.00    -0.311 N 
ATOM     14  C   LIG d   1       2.776  82.836 116.312  0.00  0.00     0.210 C 
ATOM     15  C   LIG d   1       2.254  82.086 117.542  0.00  0.00     0.109 C 
ATOM     16  O   LIG d   1       3.096  82.212 115.290  0.00  0.00    -0.276 OA
ATOM     17  H   LIG d   1       2.629  84.575 117.335  0.00  0.00     0.149 HD
ENDBRANCH   6  13
BRANCH   5  18
ATOM     18  N   LIG d   1       5.635  85.474 116.363  0.00  0.00     0.381 N 
ATOM     19  H   LIG d   1       5.591  84.483 116.231  0.00  0.00    -0.090 HD
ATOM     20  H   LIG d   1       5.738  85.657 117.346  0.00  0.00    -0.090 HD
ATOM     21  H   LIG d   1       6.412  85.849 115.865  0.00  0.00    -0.090 HD
ENDBRANCH   5  18
BRANCH   3  22
ATOM     22  C   LIG d   1       3.749  88.867 113.558  0.00  0.00     0.382 C 
ATOM     23  O   LIG d   1       3.191  89.126 112.464  0.00  0.00    -0.241 OA
ATOM     24  O   LIG d   1       4.449  89.736 114.110  0.00  0.00    -0.241 OA
ENDBRANCH   3  22
TORSDOF 7
ENDMDL
MODEL 3
REMARK VINA RESULT:      -4.9     17.581     19.381
REMARK  7 active torsions:
REMARK  status: ('A' for Active; 'I' for Inactive)
REMARK    1  A    between atoms: C_2  and  C_3 
REMARK    2  A    between atoms: C_3  and  O_6 
REMARK    3  A    between atoms: C_3  and  C_4 
REMARK    4  A    between atoms: C_7  and  O_6 
REMARK    5  A    between atoms: C_9  and  C_10 
REMARK    6  A    between atoms: N_15  and  C_14 
REMARK    7  A    between atoms: N_20  and  C_19 
REMARK       I    between atoms: C_22  and  N_20 
ROOT
ATOM      1  C   LIG d   1     -16.687  65.225 114.632  0.00  0.00     0.161 C 
ATOM      2  C   LIG d   1     -16.245  66.276 113.811  0.00  0.00     0.016 C 
ATOM      3  C   LIG d   1     -15.347  67.278 114.246  0.00  0.00     0.038 C 
ATOM      4  C   LIG d   1     -14.709  67.211 115.494  0.00  0.00     0.028 C 
ATOM      5  C   LIG d   1     -15.509  66.445 116.543  0.00  0.00    -0.047 C 
ATOM      6  C   LIG d   1     -15.916  65.073 115.960  0.00  0.00     0.091 C 
ENDROOT
BRANCH   1   7
ATOM      7  O   LIG d   1     -16.664  63.987 113.894  0.00  0.00    -0.368 OA
BRANCH   7   8
ATOM      8  C   LIG d   1     -17.953  63.384 113.620  0.00  0.00     0.119 C 
BRANCH   8   9
ATOM      9  C   LIG d   1     -19.035  64.347 114.146  0.00  0.00     0.028 C 
ATOM     10  C   LIG d   1     -20.085  64.691 113.075  0.00  0.00     0.006 C 
ENDBRANCH   8   9
BRANCH   8  11
ATOM     11  C   LIG d   1     -18.143  62.089 114.414  0.00  0.00     0.028 C 
ATOM     12  C   LIG d   1     -19.143  61.126 113.754  0.00  0.00     0.006 C 
ENDBRANCH   8  11
ENDBRANCH   7   8
ENDBRANCH   1   7
BRANCH   6  13
ATOM     13  N   LIG d   1     -16.774  64.294 116.891  0.00  0.00    -0.311 N 
ATOM     14  C   LIG d   1     -16.307  63.335 117.689  0.00  0.00     0.210 C 
ATOM     15  C   LIG d   1     -17.364  62.643 118.555  0.00  0.00     0.109 C 
ATOM     16  O   LIG d   1     -15.113  63.014 117.785  0.00  0.00    -0.276 OA
ATOM     17  H   LIG d   1     -17.751  64.510 116.900  0.00  0.00     0.149 HD
ENDBRANCH   6  13
BRANCH   5  18
ATOM     18  N   LIG d   1     -14.669  66.334 117.750  0.00  0.00     0.381 N 
ATOM     19  H   LIG d   1     -15.226  66.027 118.523  0.00  0.00    -0.090 HD
ATOM     20  H   LIG d   1     -14.296  67.241 117.971  0.00  0.00    -0.090 HD
ATOM     21  H   LIG d   1     -13.925  65.691 117.590  0.00  0.00    -0.090 HD
ENDBRANCH   5  18
BRANCH   3  22
ATOM     22  C   LIG d   1     -15.110  68.384 113.444  0.00  0.00     0.382 C 
ATOM     23  O   LIG d   1     -15.766  68.543 112.387  0.00  0.00    -0.241 OA
ATOM     24  O   LIG d   1     -14.218  69.201 113.741  0.00  0.00    -0.241 OA
ENDBRANCH   3  22
TORSDOF 7
ENDMDL
MODEL 4
REMARK VINA RESULT:      -4.9      1.262      2.039
REMARK  7 active torsions:
REMARK  status: ('A' for Active; 'I' for Inactive)
REMARK    1  A    between atoms: C_2  and  C_3 
REMARK    2  A    between atoms: C_3  and  O_6 
REMARK    3  A    between atoms: C_3  and  C_4 
REMARK    4  A    between atoms: C_7  and  O_6 
REMARK    5  A    between atoms: C_9  and  C_10 
REMARK    6  A    between atoms: N_15  and  C_14 
REMARK    7  A    between atoms: N_20  and  C_19 
REMARK       I    between atoms: C_22  and  N_20 
ROOT
ATOM      1  C   LIG d   1      -1.728  78.563 115.045  0.00  0.00     0.161 C 
ATOM      2  C   LIG d   1      -2.113  79.774 114.447  0.00  0.00     0.016 C 
ATOM      3  C   LIG d   1      -2.449  79.894 113.079  0.00  0.00     0.038 C 
ATOM      4  C   LIG d   1      -2.569  78.773 112.244  0.00  0.00     0.028 C 
ATOM      5  C   LIG d   1      -1.701  77.598 112.679  0.00  0.00    -0.047 C 
ATOM      6  C   LIG d   1      -1.960  77.309 114.175  0.00  0.00     0.091 C 
ENDROOT
BRANCH   1   7
ATOM      7  O   LIG d   1      -2.384  78.417 116.320  0.00  0.00    -0.368 OA
BRANCH   7   8
ATOM      8  C   LIG d   1      -1.669  78.936 117.468  0.00  0.00     0.119 C 
BRANCH   8   9
ATOM      9  C   LIG d   1      -1.507  77.779 118.473  0.00  0.00     0.028 C 
ATOM     10  C   LIG d   1      -0.241  76.946 118.211  0.00  0.00     0.006 C 
ENDBRANCH   8   9
BRANCH   8  11
ATOM     11  C   LIG d   1      -2.490  79.999 118.202  0.00  0.00     0.028 C 
ATOM     12  C   LIG d   1      -3.975  79.986 117.804  0.00  0.00     0.006 C 
ENDBRANCH   8  11
ENDBRANCH   7   8
ENDBRANCH   1   7
BRANCH   6  13
ATOM     13  N   LIG d   1      -1.089  76.227 114.704  0.00  0.00    -0.311 N 
ATOM     14  C   LIG d   1      -1.559  75.083 115.198  0.00  0.00     0.210 C 
ATOM     15  C   LIG d   1      -0.490  74.112 115.708  0.00  0.00     0.109 C 
ATOM     16  O   LIG d   1      -2.758  74.767 115.232  0.00  0.00    -0.276 OA
ATOM     17  H   LIG d   1      -0.101  76.387 114.685  0.00  0.00     0.149 HD
ENDBRANCH   6  13
BRANCH   5  18
ATOM     18  N   LIG d   1      -2.027  76.455 111.805  0.00  0.00     0.381 N 
ATOM     19  H   LIG d   1      -2.990  76.498 111.537  0.00  0.00    -0.090 HD
ATOM     20  H   LIG d   1      -1.880  75.602 112.316  0.00  0.00    -0.090 HD
ATOM     21  H   LIG d   1      -1.448  76.469 110.995  0.00  0.00    -0.090 HD
ENDBRANCH   5  18
BRANCH   3  22
ATOM     22  C   LIG d   1      -2.629  81.152 112.523  0.00  0.00     0.382 C 
ATOM     23  O   LIG d   1      -3.788  81.574 112.292  0.00  0.00    -0.241 OA
ATOM     24  O   LIG d   1      -1.647  81.851 112.209  0.00  0.00    -0.241 OA
ENDBRANCH   3  22
TORSDOF 7
ENDMDL
MODEL 5
REMARK VINA RESULT:      -4.5     18.874     21.009
REMARK  7 active torsions:
REMARK  status: ('A' for Active; 'I' for Inactive)
REMARK    1  A    between atoms: C_2  and  C_3 
REMARK    2  A    between atoms: C_3  and  O_6 
REMARK    3  A    between atoms: C_3  and  C_4 
REMARK    4  A    between atoms: C_7  and  O_6 
REMARK    5  A    between atoms: C_9  and  C_10 
REMARK    6  A    between atoms: N_15  and  C_14 
REMARK    7  A    between atoms: N_20  and  C_19 
REMARK       I    between atoms: C_22  and  N_20 
ROOT
ATOM      1  C   LIG d   1     -17.762  64.987 115.492  0.00  0.00     0.161 C 
ATOM      2  C   LIG d   1     -16.452  65.240 115.931  0.00  0.00     0.016 C 
ATOM      3  C   LIG d   1     -16.142  66.134 116.982  0.00  0.00     0.038 C 
ATOM      4  C   LIG d   1     -17.140  66.725 117.771  0.00  0.00     0.028 C 
ATOM      5  C   LIG d   1     -18.469  66.892 117.041  0.00  0.00    -0.047 C 
ATOM      6  C   LIG d   1     -18.870  65.538 116.413  0.00  0.00     0.091 C 
ENDROOT
BRANCH   1   7
ATOM      7  O   LIG d   1     -17.942  63.573 115.281  0.00  0.00    -0.368 OA
BRANCH   7   8
ATOM      8  C   LIG d   1     -18.015  63.138 113.901  0.00  0.00     0.119 C 
BRANCH   8   9
ATOM      9  C   LIG d   1     -18.222  64.393 113.031  0.00  0.00     0.028 C 
ATOM     10  C   LIG d   1     -19.575  64.383 112.299  0.00  0.00     0.006 C 
ENDBRANCH   8   9
BRANCH   8  11
ATOM     11  C   LIG d   1     -19.250  62.267 113.656  0.00  0.00     0.028 C 
ATOM     12  C   LIG d   1     -19.872  61.734 114.957  0.00  0.00     0.006 C 
ENDBRANCH   8  11
ENDBRANCH   7   8
ENDBRANCH   1   7
BRANCH   6  13
ATOM     13  N   LIG d   1     -20.117  65.633 115.609  0.00  0.00    -0.311 N 
ATOM     14  C   LIG d   1     -21.240  64.988 115.919  0.00  0.00     0.210 C 
ATOM     15  C   LIG d   1     -22.402  65.209 114.946  0.00  0.00     0.109 C 
ATOM     16  O   LIG d   1     -21.394  64.280 116.926  0.00  0.00    -0.276 OA
ATOM     17  H   LIG d   1     -20.090  66.211 114.792  0.00  0.00     0.149 HD
ENDBRANCH   6  13
BRANCH   5  18
ATOM     18  N   LIG d   1     -19.455  67.391 118.019  0.00  0.00     0.381 N 
ATOM     19  H   LIG d   1     -20.381  67.189 117.699  0.00  0.00    -0.090 HD
ATOM     20  H   LIG d   1     -19.358  68.388 118.098  0.00  0.00    -0.090 HD
ATOM     21  H   LIG d   1     -19.302  66.963 118.905  0.00  0.00    -0.090 HD
ENDBRANCH   5  18
BRANCH   3  22
ATOM     22  C   LIG d   1     -14.821  66.475 117.227  0.00  0.00     0.382 C 
ATOM     23  O   LIG d   1     -14.059  66.758 116.271  0.00  0.00    -0.241 OA
ATOM     24  O   LIG d   1     -14.369  66.461 118.388  0.00  0.00    -0.241 OA
ENDBRANCH   3  22
TORSDOF 7
ENDMDL
MODEL 6
REMARK VINA RESULT:      -4.5     11.089     13.062
REMARK  7 active torsions:
REMARK  status: ('A' for Active; 'I' for Inactive)
REMARK    1  A    between atoms: C_2  and  C_3 
REMARK    2  A    between atoms: C_3  and  O_6 
REMARK    3  A    between atoms: C_3  and  C_4 
REMARK    4  A    between atoms: C_7  and  O_6 
REMARK    5  A    between atoms: C_9  and  C_10 
REMARK    6  A    between atoms: N_15  and  C_14 
REMARK    7  A    between atoms: N_20  and  C_19 
REMARK       I    between atoms: C_22  and  N_20 
ROOT
ATOM      1  C   LIG d   1       4.726  86.815 116.256  0.00  0.00     0.161 C 
ATOM      2  C   LIG d   1       3.712  87.779 116.131  0.00  0.00     0.016 C 
ATOM      3  C   LIG d   1       3.907  89.153 116.404  0.00  0.00     0.038 C 
ATOM      4  C   LIG d   1       5.178  89.681 116.677  0.00  0.00     0.028 C 
ATOM      5  C   LIG d   1       6.131  88.672 117.307  0.00  0.00    -0.047 C 
ATOM      6  C   LIG d   1       6.146  87.389 116.444  0.00  0.00     0.091 C 
ENDROOT
BRANCH   1   7
ATOM      7  O   LIG d   1       4.693  85.922 115.125  0.00  0.00    -0.368 OA
BRANCH   7   8
ATOM      8  C   LIG d   1       4.136  86.464 113.902  0.00  0.00     0.119 C 
BRANCH   8   9
ATOM      9  C   LIG d   1       3.446  85.306 113.155  0.00  0.00     0.028 C 
ATOM     10  C   LIG d   1       4.415  84.537 112.240  0.00  0.00     0.006 C 
ENDBRANCH   8   9
BRANCH   8  11
ATOM     11  C   LIG d   1       5.237  86.956 112.958  0.00  0.00     0.028 C 
ATOM     12  C   LIG d   1       5.308  88.489 112.872  0.00  0.00     0.006 C 
ENDBRANCH   8  11
ENDBRANCH   7   8
ENDBRANCH   1   7
BRANCH   6  13
ATOM     13  N   LIG d   1       6.990  86.318 117.036  0.00  0.00    -0.311 N 
ATOM     14  C   LIG d   1       8.279  86.157 116.745  0.00  0.00     0.210 C 
ATOM     15  C   LIG d   1       8.958  84.978 117.450  0.00  0.00     0.109 C 
ATOM     16  O   LIG d   1       8.933  86.897 115.995  0.00  0.00    -0.276 OA
ATOM     17  H   LIG d   1       6.547  85.691 117.679  0.00  0.00     0.149 HD
ENDBRANCH   6  13
BRANCH   5  18
ATOM     18  N   LIG d   1       7.455  89.314 117.410  0.00  0.00     0.381 N 
ATOM     19  H   LIG d   1       7.389  90.274 117.134  0.00  0.00    -0.090 HD
ATOM     20  H   LIG d   1       8.091  88.850 116.785  0.00  0.00    -0.090 HD
ATOM     21  H   LIG d   1       7.793  89.252 118.345  0.00  0.00    -0.090 HD
ENDBRANCH   5  18
BRANCH   3  22
ATOM     22  C   LIG d   1       2.816  90.007 116.445  0.00  0.00     0.382 C 
ATOM     23  O   LIG d   1       2.930  91.146 116.959  0.00  0.00    -0.241 OA
ATOM     24  O   LIG d   1       1.707  89.636 116.015  0.00  0.00    -0.241 OA
ENDBRANCH   3  22
TORSDOF 7
ENDMDL
MODEL 7
REMARK VINA RESULT:      -4.5      7.897      9.654
REMARK  7 active torsions:
REMARK  status: ('A' for Active; 'I' for Inactive)
REMARK    1  A    between atoms: C_2  and  C_3 
REMARK    2  A    between atoms: C_3  and  O_6 
REMARK    3  A    between atoms: C_3  and  C_4 
REMARK    4  A    between atoms: C_7  and  O_6 
REMARK    5  A    between atoms: C_9  and  C_10 
REMARK    6  A    between atoms: N_15  and  C_14 
REMARK    7  A    between atoms: N_20  and  C_19 
REMARK       I    between atoms: C_22  and  N_20 
ROOT
ATOM      1  C   LIG d   1       3.348  85.434 113.842  0.00  0.00     0.161 C 
ATOM      2  C   LIG d   1       4.045  86.650 113.748  0.00  0.00     0.016 C 
ATOM      3  C   LIG d   1       3.543  87.784 113.069  0.00  0.00     0.038 C 
ATOM      4  C   LIG d   1       2.235  87.827 112.564  0.00  0.00     0.028 C 
ATOM      5  C   LIG d   1       1.683  86.455 112.194  0.00  0.00    -0.047 C 
ATOM      6  C   LIG d   1       1.873  85.497 113.393  0.00  0.00     0.091 C 
ENDROOT
BRANCH   1   7
ATOM      7  O   LIG d   1       3.441  84.920 115.185  0.00  0.00    -0.368 OA
BRANCH   7   8
ATOM      8  C   LIG d   1       2.288  85.141 116.033  0.00  0.00     0.119 C 
BRANCH   8   9
ATOM      9  C   LIG d   1       2.602  86.349 116.936  0.00  0.00     0.028 C 
ATOM     10  C   LIG d   1       1.716  87.566 116.618  0.00  0.00     0.006 C 
ENDBRANCH   8   9
BRANCH   8  11
ATOM     11  C   LIG d   1       2.067  83.966 116.991  0.00  0.00     0.028 C 
ATOM     12  C   LIG d   1       2.300  82.601 116.323  0.00  0.00     0.006 C 
ENDBRANCH   8  11
ENDBRANCH   7   8
ENDBRANCH   1   7
BRANCH   6  13
ATOM     13  N   LIG d   1       1.436  84.111 113.086  0.00  0.00    -0.311 N 
ATOM     14  C   LIG d   1       2.132  83.276 112.315  0.00  0.00     0.210 C 
ATOM     15  C   LIG d   1       1.493  81.899 112.110  0.00  0.00     0.109 C 
ATOM     16  O   LIG d   1       3.234  83.535 111.809  0.00  0.00    -0.276 OA
ATOM     17  H   LIG d   1       0.568  83.808 113.482  0.00  0.00     0.149 HD
ENDBRANCH   6  13
BRANCH   5  18
ATOM     18  N   LIG d   1       0.268  86.631 111.814  0.00  0.00     0.381 N 
ATOM     19  H   LIG d   1      -0.273  86.866 112.621  0.00  0.00    -0.090 HD
ATOM     20  H   LIG d   1      -0.079  85.764 111.443  0.00  0.00    -0.090 HD
ATOM     21  H   LIG d   1       0.187  87.350 111.129  0.00  0.00    -0.090 HD
ENDBRANCH   5  18
BRANCH   3  22
ATOM     22  C   LIG d   1       4.368  88.878 112.855  0.00  0.00     0.382 C 
ATOM     23  O   LIG d   1       3.912  90.040 112.976  0.00  0.00    -0.241 OA
ATOM     24  O   LIG d   1       5.551  88.717 112.500  0.00  0.00    -0.241 OA
ENDBRANCH   3  22
TORSDOF 7
ENDMDL
MODEL 8
REMARK VINA RESULT:      -4.5     18.985     20.890
REMARK  7 active torsions:
REMARK  status: ('A' for Active; 'I' for Inactive)
REMARK    1  A    between atoms: C_2  and  C_3 
REMARK    2  A    between atoms: C_3  and  O_6 
REMARK    3  A    between atoms: C_3  and  C_4 
REMARK    4  A    between atoms: C_7  and  O_6 
REMARK    5  A    between atoms: C_9  and  C_10 
REMARK    6  A    between atoms: N_15  and  C_14 
REMARK    7  A    between atoms: N_20  and  C_19 
REMARK       I    between atoms: C_22  and  N_20 
ROOT
ATOM      1  C   LIG d   1     -17.005  63.407 116.372  0.00  0.00     0.161 C 
ATOM      2  C   LIG d   1     -16.185  64.441 116.855  0.00  0.00     0.016 C 
ATOM      3  C   LIG d   1     -15.843  65.583 116.095  0.00  0.00     0.038 C 
ATOM      4  C   LIG d   1     -16.425  65.843 114.846  0.00  0.00     0.028 C 
ATOM      5  C   LIG d   1     -16.864  64.583 114.107  0.00  0.00    -0.047 C 
ATOM      6  C   LIG d   1     -17.738  63.727 115.052  0.00  0.00     0.091 C 
ENDROOT
BRANCH   1   7
ATOM      7  O   LIG d   1     -17.949  63.016 117.388  0.00  0.00    -0.368 OA
BRANCH   7   8
ATOM      8  C   LIG d   1     -19.270  63.602 117.289  0.00  0.00     0.119 C 
BRANCH   8   9
ATOM      9  C   LIG d   1     -19.429  64.588 118.463  0.00  0.00     0.028 C 
ATOM     10  C   LIG d   1     -19.262  66.053 118.026  0.00  0.00     0.006 C 
ENDBRANCH   8   9
BRANCH   8  11
ATOM     11  C   LIG d   1     -20.364  62.550 117.493  0.00  0.00     0.028 C 
ATOM     12  C   LIG d   1     -19.834  61.111 117.380  0.00  0.00     0.006 C 
ENDBRANCH   8  11
ENDBRANCH   7   8
ENDBRANCH   1   7
BRANCH   6  13
ATOM     13  N   LIG d   1     -18.140  62.435 114.437  0.00  0.00    -0.311 N 
ATOM     14  C   LIG d   1     -19.318  62.240 113.846  0.00  0.00     0.210 C 
ATOM     15  C   LIG d   1     -19.538  60.828 113.295  0.00  0.00     0.109 C 
ATOM     16  O   LIG d   1     -20.188  63.111 113.699  0.00  0.00    -0.276 OA
ATOM     17  H   LIG d   1     -17.481  61.683 114.484  0.00  0.00     0.149 HD
ENDBRANCH   6  13
BRANCH   5  18
ATOM     18  N   LIG d   1     -17.575  65.007 112.887  0.00  0.00     0.381 N 
ATOM     19  H   LIG d   1     -17.715  64.219 112.286  0.00  0.00    -0.090 HD
ATOM     20  H   LIG d   1     -17.011  65.680 112.399  0.00  0.00    -0.090 HD
ATOM     21  H   LIG d   1     -18.454  65.410 113.127  0.00  0.00    -0.090 HD
ENDBRANCH   5  18
BRANCH   3  22
ATOM     22  C   LIG d   1     -14.879  66.460 116.569  0.00  0.00     0.382 C 
ATOM     23  O   LIG d   1     -14.256  67.198 115.768  0.00  0.00    -0.241 OA
ATOM     24  O   LIG d   1     -14.594  66.491 117.781  0.00  0.00    -0.241 OA
ENDBRANCH   3  22
TORSDOF 7
ENDMDL
MODEL 9
REMARK VINA RESULT:      -4.4     20.635     22.518
REMARK  7 active torsions:
REMARK  status: ('A' for Active; 'I' for Inactive)
REMARK    1  A    between atoms: C_2  and  C_3 
REMARK    2  A    between atoms: C_3  and  O_6 
REMARK    3  A    between atoms: C_3  and  C_4 
REMARK    4  A    between atoms: C_7  and  O_6 
REMARK    5  A    between atoms: C_9  and  C_10 
REMARK    6  A    between atoms: N_15  and  C_14 
REMARK    7  A    between atoms: N_20  and  C_19 
REMARK       I    between atoms: C_22  and  N_20 
ROOT
ATOM      1  C   LIG d   1     -23.657  83.358 114.047  0.00  0.00     0.161 C 
ATOM      2  C   LIG d   1     -22.749  84.421 114.186  0.00  0.00     0.016 C 
ATOM      3  C   LIG d   1     -23.145  85.757 114.422  0.00  0.00     0.038 C 
ATOM      4  C   LIG d   1     -24.479  86.099 114.687  0.00  0.00     0.028 C 
ATOM      5  C   LIG d   1     -25.487  85.142 114.059  0.00  0.00    -0.047 C 
ATOM      6  C   LIG d   1     -25.110  83.693 114.445  0.00  0.00     0.091 C 
ENDROOT
BRANCH   1   7
ATOM      7  O   LIG d   1     -23.187  82.214 114.787  0.00  0.00    -0.368 OA
BRANCH   7   8
ATOM      8  C   LIG d   1     -23.475  82.210 116.206  0.00  0.00     0.119 C 
BRANCH   8   9
ATOM      9  C   LIG d   1     -22.126  82.207 116.952  0.00  0.00     0.028 C 
ATOM     10  C   LIG d   1     -21.910  83.486 117.779  0.00  0.00     0.006 C 
ENDBRANCH   8   9
BRANCH   8  11
ATOM     11  C   LIG d   1     -24.175  80.916 116.630  0.00  0.00     0.028 C 
ATOM     12  C   LIG d   1     -24.073  79.809 115.569  0.00  0.00     0.006 C 
ENDBRANCH   8  11
ENDBRANCH   7   8
ENDBRANCH   1   7
BRANCH   6  13
ATOM     13  N   LIG d   1     -25.996  82.687 113.802  0.00  0.00    -0.311 N 
ATOM     14  C   LIG d   1     -27.029  82.118 114.421  0.00  0.00     0.210 C 
ATOM     15  C   LIG d   1     -27.799  81.092 113.583  0.00  0.00     0.109 C 
ATOM     16  O   LIG d   1     -27.400  82.389 115.573  0.00  0.00    -0.276 OA
ATOM     17  H   LIG d   1     -25.785  82.432 112.857  0.00  0.00     0.149 HD
ENDBRANCH   6  13
BRANCH   5  18
ATOM     18  N   LIG d   1     -26.828  85.535 114.529  0.00  0.00     0.381 N 
ATOM     19  H   LIG d   1     -27.457  85.589 113.753  0.00  0.00    -0.090 HD
ATOM     20  H   LIG d   1     -26.771  86.445 114.952  0.00  0.00    -0.090 HD
ATOM     21  H   LIG d   1     -27.165  84.873 115.193  0.00  0.00    -0.090 HD
ENDBRANCH   5  18
BRANCH   3  22
ATOM     22  C   LIG d   1     -22.206  86.775 114.354  0.00  0.00     0.382 C 
ATOM     23  O   LIG d   1     -21.244  86.688 113.552  0.00  0.00    -0.241 OA
ATOM     24  O   LIG d   1     -22.282  87.758 115.115  0.00  0.00    -0.241 OA
ENDBRANCH   3  22
TORSDOF 7
ENDMDL
