MODEL 1
REMARK VINA RESULT:      -5.4      0.000      0.000
REMARK  7 active torsions:
REMARK  status: ('A' for Active; 'I' for Inactive)
REMARK    1  A    between atoms: C_2  and  C_3 
REMARK    2  A    between atoms: C_3  and  O_6 
REMARK    3  A    between atoms: C_3  and  C_4 
REMARK    4  A    between atoms: C_7  and  O_6 
REMARK    5  A    between atoms: C_9  and  C_10 
REMARK    6  A    between atoms: N_15  and  C_14 
REMARK    7  A    between atoms: N_20  and  C_19 
REMARK       I    between atoms: C_22  and  N_20 
ROOT
ATOM      1  C   LIG d   1      -6.088  75.008 117.914  0.00  0.00     0.161 C 
ATOM      2  C   LIG d   1      -7.467  75.272 117.862  0.00  0.00     0.016 C 
ATOM      3  C   LIG d   1      -8.007  76.575 117.774  0.00  0.00     0.038 C 
ATOM      4  C   LIG d   1      -7.195  77.703 117.579  0.00  0.00     0.028 C 
ATOM      5  C   LIG d   1      -5.784  77.536 118.131  0.00  0.00    -0.047 C 
ATOM      6  C   LIG d   1      -5.186  76.217 117.590  0.00  0.00     0.091 C 
ENDROOT
BRANCH   1   7
ATOM      7  O   LIG d   1      -5.770  73.900 117.050  0.00  0.00    -0.368 OA
BRANCH   7   8
ATOM      8  C   LIG d   1      -6.641  73.712 115.907  0.00  0.00     0.119 C 
BRANCH   8   9
ATOM      9  C   LIG d   1      -6.927  72.202 115.786  0.00  0.00     0.028 C 
ATOM     10  C   LIG d   1      -8.235  71.795 116.485  0.00  0.00     0.006 C 
ENDBRANCH   8   9
BRANCH   8  11
ATOM     11  C   LIG d   1      -5.939  74.097 114.602  0.00  0.00     0.028 C 
ATOM     12  C   LIG d   1      -6.214  75.551 114.184  0.00  0.00     0.006 C 
ENDBRANCH   8  11
ENDBRANCH   7   8
ENDBRANCH   1   7
BRANCH   6  13
ATOM     13  N   LIG d   1      -3.838  75.935 118.148  0.00  0.00    -0.311 N 
ATOM     14  C   LIG d   1      -2.813  75.509 117.411  0.00  0.00     0.210 C 
ATOM     15  C   LIG d   1      -1.517  75.260 118.188  0.00  0.00     0.109 C 
ATOM     16  O   LIG d   1      -2.846  75.345 116.182  0.00  0.00    -0.276 OA
ATOM     17  H   LIG d   1      -3.714  76.072 119.132  0.00  0.00     0.149 HD
ENDBRANCH   6  13
BRANCH   5  18
ATOM     18  N   LIG d   1      -5.008  78.727 117.738  0.00  0.00     0.381 N 
ATOM     19  H   LIG d   1      -5.574  79.330 117.175  0.00  0.00    -0.090 HD
ATOM     20  H   LIG d   1      -4.218  78.434 117.190  0.00  0.00    -0.090 HD
ATOM     21  H   LIG d   1      -4.696  79.214 118.549  0.00  0.00    -0.090 HD
ENDBRANCH   5  18
BRANCH   3  22
ATOM     22  C   LIG d   1      -9.373  76.765 117.923  0.00  0.00     0.382 C 
ATOM     23  O   LIG d   1      -9.813  77.868 118.327  0.00  0.00    -0.241 OA
ATOM     24  O   LIG d   1     -10.168  75.832 117.700  0.00  0.00    -0.241 OA
ENDBRANCH   3  22
TORSDOF 7
ENDMDL
MODEL 2
REMARK VINA RESULT:      -5.2      2.183      3.696
REMARK  7 active torsions:
REMARK  status: ('A' for Active; 'I' for Inactive)
REMARK    1  A    between atoms: C_2  and  C_3 
REMARK    2  A    between atoms: C_3  and  O_6 
REMARK    3  A    between atoms: C_3  and  C_4 
REMARK    4  A    between atoms: C_7  and  O_6 
REMARK    5  A    between atoms: C_9  and  C_10 
REMARK    6  A    between atoms: N_15  and  C_14 
REMARK    7  A    between atoms: N_20  and  C_19 
REMARK       I    between atoms: C_22  and  N_20 
ROOT
ATOM      1  C   LIG d   1      -5.311  74.595 116.840  0.00  0.00     0.161 C 
ATOM      2  C   LIG d   1      -6.224  73.558 116.589  0.00  0.00     0.016 C 
ATOM      3  C   LIG d   1      -7.593  73.625 116.937  0.00  0.00     0.038 C 
ATOM      4  C   LIG d   1      -8.176  74.803 117.427  0.00  0.00     0.028 C 
ATOM      5  C   LIG d   1      -7.193  75.704 118.166  0.00  0.00    -0.047 C 
ATOM      6  C   LIG d   1      -5.952  75.930 117.272  0.00  0.00     0.091 C 
ENDROOT
BRANCH   1   7
ATOM      7  O   LIG d   1      -4.469  74.794 115.687  0.00  0.00    -0.368 OA
BRANCH   7   8
ATOM      8  C   LIG d   1      -4.856  75.864 114.791  0.00  0.00     0.119 C 
BRANCH   8   9
ATOM      9  C   LIG d   1      -5.572  75.223 113.586  0.00  0.00     0.028 C 
ATOM     10  C   LIG d   1      -5.702  76.190 112.398  0.00  0.00     0.006 C 
ENDBRANCH   8   9
BRANCH   8  11
ATOM     11  C   LIG d   1      -3.631  76.572 114.205  0.00  0.00     0.028 C 
ATOM     12  C   LIG d   1      -2.472  76.685 115.208  0.00  0.00     0.006 C 
ENDBRANCH   8  11
ENDBRANCH   7   8
ENDBRANCH   1   7
BRANCH   6  13
ATOM     13  N   LIG d   1      -4.902  76.733 117.953  0.00  0.00    -0.311 N 
ATOM     14  C   LIG d   1      -4.750  78.044 117.773  0.00  0.00     0.210 C 
ATOM     15  C   LIG d   1      -3.594  78.674 118.555  0.00  0.00     0.109 C 
ATOM     16  O   LIG d   1      -5.483  78.750 117.064  0.00  0.00    -0.276 OA
ATOM     17  H   LIG d   1      -4.283  76.245 118.570  0.00  0.00     0.149 HD
ENDBRANCH   6  13
BRANCH   5  18
ATOM     18  N   LIG d   1      -7.900  76.955 118.501  0.00  0.00     0.381 N 
ATOM     19  H   LIG d   1      -7.358  77.485 119.154  0.00  0.00    -0.090 HD
ATOM     20  H   LIG d   1      -8.778  76.726 118.933  0.00  0.00    -0.090 HD
ATOM     21  H   LIG d   1      -8.056  77.490 117.676  0.00  0.00    -0.090 HD
ENDBRANCH   5  18
BRANCH   3  22
ATOM     22  C   LIG d   1      -8.385  72.491 116.833  0.00  0.00     0.382 C 
ATOM     23  O   LIG d   1      -7.921  71.448 116.314  0.00  0.00    -0.241 OA
ATOM     24  O   LIG d   1      -9.571  72.513 117.212  0.00  0.00    -0.241 OA
ENDBRANCH   3  22
TORSDOF 7
ENDMDL
MODEL 3
REMARK VINA RESULT:      -4.9     14.804     16.951
REMARK  7 active torsions:
REMARK  status: ('A' for Active; 'I' for Inactive)
REMARK    1  A    between atoms: C_2  and  C_3 
REMARK    2  A    between atoms: C_3  and  O_6 
REMARK    3  A    between atoms: C_3  and  C_4 
REMARK    4  A    between atoms: C_7  and  O_6 
REMARK    5  A    between atoms: C_9  and  C_10 
REMARK    6  A    between atoms: N_15  and  C_14 
REMARK    7  A    between atoms: N_20  and  C_19 
REMARK       I    between atoms: C_22  and  N_20 
ROOT
ATOM      1  C   LIG d   1       2.980  88.434 115.641  0.00  0.00     0.161 C 
ATOM      2  C   LIG d   1       3.092  89.800 115.948  0.00  0.00     0.016 C 
ATOM      3  C   LIG d   1       4.023  90.314 116.881  0.00  0.00     0.038 C 
ATOM      4  C   LIG d   1       5.012  89.507 117.462  0.00  0.00     0.028 C 
ATOM      5  C   LIG d   1       4.613  88.039 117.566  0.00  0.00    -0.047 C 
ATOM      6  C   LIG d   1       4.125  87.552 116.182  0.00  0.00     0.091 C 
ENDROOT
BRANCH   1   7
ATOM      7  O   LIG d   1       2.846  88.262 114.216  0.00  0.00    -0.368 OA
BRANCH   7   8
ATOM      8  C   LIG d   1       4.064  87.959 113.494  0.00  0.00     0.119 C 
BRANCH   8   9
ATOM      9  C   LIG d   1       4.634  89.290 112.966  0.00  0.00     0.028 C 
ATOM     10  C   LIG d   1       6.169  89.342 113.038  0.00  0.00     0.006 C 
ENDBRANCH   8   9
BRANCH   8  11
ATOM     11  C   LIG d   1       3.778  87.118 112.246  0.00  0.00     0.028 C 
ATOM     12  C   LIG d   1       2.307  87.188 111.805  0.00  0.00     0.006 C 
ENDBRANCH   8  11
ENDBRANCH   7   8
ENDBRANCH   1   7
BRANCH   6  13
ATOM     13  N   LIG d   1       3.636  86.149 116.215  0.00  0.00    -0.311 N 
ATOM     14  C   LIG d   1       4.399  85.100 115.913  0.00  0.00     0.210 C 
ATOM     15  C   LIG d   1       3.692  83.743 115.991  0.00  0.00     0.109 C 
ATOM     16  O   LIG d   1       5.603  85.161 115.620  0.00  0.00    -0.276 OA
ATOM     17  H   LIG d   1       2.679  86.006 116.472  0.00  0.00     0.149 HD
ENDBRANCH   6  13
BRANCH   5  18
ATOM     18  N   LIG d   1       5.786  87.292 118.060  0.00  0.00     0.381 N 
ATOM     19  H   LIG d   1       6.118  87.707 118.908  0.00  0.00    -0.090 HD
ATOM     20  H   LIG d   1       6.518  87.346 117.375  0.00  0.00    -0.090 HD
ATOM     21  H   LIG d   1       5.541  86.340 118.221  0.00  0.00    -0.090 HD
ENDBRANCH   5  18
BRANCH   3  22
ATOM     22  C   LIG d   1       3.943  91.642 117.271  0.00  0.00     0.382 C 
ATOM     23  O   LIG d   1       3.170  92.426 116.669  0.00  0.00    -0.241 OA
ATOM     24  O   LIG d   1       4.665  92.076 118.188  0.00  0.00    -0.241 OA
ENDBRANCH   3  22
TORSDOF 7
ENDMDL
MODEL 4
REMARK VINA RESULT:      -4.6      3.406      4.615
REMARK  7 active torsions:
REMARK  status: ('A' for Active; 'I' for Inactive)
REMARK    1  A    between atoms: C_2  and  C_3 
REMARK    2  A    between atoms: C_3  and  O_6 
REMARK    3  A    between atoms: C_3  and  C_4 
REMARK    4  A    between atoms: C_7  and  O_6 
REMARK    5  A    between atoms: C_9  and  C_10 
REMARK    6  A    between atoms: N_15  and  C_14 
REMARK    7  A    between atoms: N_20  and  C_19 
REMARK       I    between atoms: C_22  and  N_20 
ROOT
ATOM      1  C   LIG d   1      -2.590  76.315 116.389  0.00  0.00     0.161 C 
ATOM      2  C   LIG d   1      -3.257  77.365 117.042  0.00  0.00     0.016 C 
ATOM      3  C   LIG d   1      -3.265  78.697 116.566  0.00  0.00     0.038 C 
ATOM      4  C   LIG d   1      -2.728  79.041 115.317  0.00  0.00     0.028 C 
ATOM      5  C   LIG d   1      -1.606  78.113 114.863  0.00  0.00    -0.047 C 
ATOM      6  C   LIG d   1      -2.092  76.650 114.967  0.00  0.00     0.091 C 
ENDROOT
BRANCH   1   7
ATOM      7  O   LIG d   1      -3.429  75.144 116.364  0.00  0.00    -0.368 OA
BRANCH   7   8
ATOM      8  C   LIG d   1      -4.841  75.376 116.139  0.00  0.00     0.119 C 
BRANCH   8   9
ATOM      9  C   LIG d   1      -5.618  74.560 117.190  0.00  0.00     0.028 C 
ATOM     10  C   LIG d   1      -6.606  75.425 117.992  0.00  0.00     0.006 C 
ENDBRANCH   8   9
BRANCH   8  11
ATOM     11  C   LIG d   1      -5.288  74.822 114.783  0.00  0.00     0.028 C 
ATOM     12  C   LIG d   1      -6.164  75.808 113.995  0.00  0.00     0.006 C 
ENDBRANCH   8  11
ENDBRANCH   7   8
ENDBRANCH   1   7
BRANCH   6  13
ATOM     13  N   LIG d   1      -1.027  75.672 114.622  0.00  0.00    -0.311 N 
ATOM     14  C   LIG d   1      -1.209  74.656 113.781  0.00  0.00     0.210 C 
ATOM     15  C   LIG d   1       0.014  73.755 113.580  0.00  0.00     0.109 C 
ATOM     16  O   LIG d   1      -2.258  74.433 113.158  0.00  0.00    -0.276 OA
ATOM     17  H   LIG d   1      -0.135  75.797 115.059  0.00  0.00     0.149 HD
ENDBRANCH   6  13
BRANCH   5  18
ATOM     18  N   LIG d   1      -1.234  78.502 113.490  0.00  0.00     0.381 N 
ATOM     19  H   LIG d   1      -2.031  78.877 113.016  0.00  0.00    -0.090 HD
ATOM     20  H   LIG d   1      -0.927  77.685 112.992  0.00  0.00    -0.090 HD
ATOM     21  H   LIG d   1      -0.503  79.180 113.514  0.00  0.00    -0.090 HD
ENDBRANCH   5  18
BRANCH   3  22
ATOM     22  C   LIG d   1      -3.780  79.708 117.363  0.00  0.00     0.382 C 
ATOM     23  O   LIG d   1      -4.585  80.539 116.879  0.00  0.00    -0.241 OA
ATOM     24  O   LIG d   1      -3.415  79.826 118.548  0.00  0.00    -0.241 OA
ENDBRANCH   3  22
TORSDOF 7
ENDMDL
MODEL 5
REMARK VINA RESULT:      -4.5      3.122      6.010
REMARK  7 active torsions:
REMARK  status: ('A' for Active; 'I' for Inactive)
REMARK    1  A    between atoms: C_2  and  C_3 
REMARK    2  A    between atoms: C_3  and  O_6 
REMARK    3  A    between atoms: C_3  and  C_4 
REMARK    4  A    between atoms: C_7  and  O_6 
REMARK    5  A    between atoms: C_9  and  C_10 
REMARK    6  A    between atoms: N_15  and  C_14 
REMARK    7  A    between atoms: N_20  and  C_19 
REMARK       I    between atoms: C_22  and  N_20 
ROOT
ATOM      1  C   LIG d   1      -3.130  75.922 115.021  0.00  0.00     0.161 C 
ATOM      2  C   LIG d   1      -2.396  74.957 114.311  0.00  0.00     0.016 C 
ATOM      3  C   LIG d   1      -0.996  75.025 114.127  0.00  0.00     0.038 C 
ATOM      4  C   LIG d   1      -0.209  75.989 114.775  0.00  0.00     0.028 C 
ATOM      5  C   LIG d   1      -0.964  77.276 115.089  0.00  0.00    -0.047 C 
ATOM      6  C   LIG d   1      -2.275  76.921 115.828  0.00  0.00     0.091 C 
ENDROOT
BRANCH   1   7
ATOM      7  O   LIG d   1      -4.087  75.272 115.881  0.00  0.00    -0.368 OA
BRANCH   7   8
ATOM      8  C   LIG d   1      -5.483  75.510 115.577  0.00  0.00     0.119 C 
BRANCH   8   9
ATOM      9  C   LIG d   1      -6.321  74.716 116.597  0.00  0.00     0.028 C 
ATOM     10  C   LIG d   1      -6.803  73.367 116.038  0.00  0.00     0.006 C 
ENDBRANCH   8   9
BRANCH   8  11
ATOM     11  C   LIG d   1      -5.861  74.937 114.208  0.00  0.00     0.028 C 
ATOM     12  C   LIG d   1      -6.264  76.023 113.198  0.00  0.00     0.006 C 
ENDBRANCH   8  11
ENDBRANCH   7   8
ENDBRANCH   1   7
BRANCH   6  13
ATOM     13  N   LIG d   1      -3.115  78.116 116.099  0.00  0.00    -0.311 N 
ATOM     14  C   LIG d   1      -3.492  78.485 117.322  0.00  0.00     0.210 C 
ATOM     15  C   LIG d   1      -4.373  79.738 117.377  0.00  0.00     0.109 C 
ATOM     16  O   LIG d   1      -3.154  77.913 118.369  0.00  0.00    -0.276 OA
ATOM     17  H   LIG d   1      -3.408  78.656 115.309  0.00  0.00     0.149 HD
ENDBRANCH   6  13
BRANCH   5  18
ATOM     18  N   LIG d   1      -0.067  78.136 115.884  0.00  0.00     0.381 N 
ATOM     19  H   LIG d   1       0.817  77.684 116.004  0.00  0.00    -0.090 HD
ATOM     20  H   LIG d   1      -0.474  78.279 116.791  0.00  0.00    -0.090 HD
ATOM     21  H   LIG d   1       0.059  79.012 115.426  0.00  0.00    -0.090 HD
ENDBRANCH   5  18
BRANCH   3  22
ATOM     22  C   LIG d   1      -0.374  74.144 113.255  0.00  0.00     0.382 C 
ATOM     23  O   LIG d   1       0.189  73.115 113.700  0.00  0.00    -0.241 OA
ATOM     24  O   LIG d   1      -0.331  74.389 112.035  0.00  0.00    -0.241 OA
ENDBRANCH   3  22
TORSDOF 7
ENDMDL
MODEL 6
REMARK VINA RESULT:      -4.5      5.089      7.121
REMARK  7 active torsions:
REMARK  status: ('A' for Active; 'I' for Inactive)
REMARK    1  A    between atoms: C_2  and  C_3 
REMARK    2  A    between atoms: C_3  and  O_6 
REMARK    3  A    between atoms: C_3  and  C_4 
REMARK    4  A    between atoms: C_7  and  O_6 
REMARK    5  A    between atoms: C_9  and  C_10 
REMARK    6  A    between atoms: N_15  and  C_14 
REMARK    7  A    between atoms: N_20  and  C_19 
REMARK       I    between atoms: C_22  and  N_20 
ROOT
ATOM      1  C   LIG d   1      -1.762  77.915 115.023  0.00  0.00     0.161 C 
ATOM      2  C   LIG d   1      -2.985  77.565 114.426  0.00  0.00     0.016 C 
ATOM      3  C   LIG d   1      -3.277  76.264 113.956  0.00  0.00     0.038 C 
ATOM      4  C   LIG d   1      -2.416  75.180 114.189  0.00  0.00     0.028 C 
ATOM      5  C   LIG d   1      -0.955  75.589 114.339  0.00  0.00    -0.047 C 
ATOM      6  C   LIG d   1      -0.855  76.721 115.387  0.00  0.00     0.091 C 
ENDROOT
BRANCH   1   7
ATOM      7  O   LIG d   1      -2.003  78.733 116.185  0.00  0.00    -0.368 OA
BRANCH   7   8
ATOM      8  C   LIG d   1      -1.974  80.166 115.972  0.00  0.00     0.119 C 
BRANCH   8   9
ATOM      9  C   LIG d   1      -0.702  80.710 116.652  0.00  0.00     0.028 C 
ATOM     10  C   LIG d   1       0.422  81.006 115.646  0.00  0.00     0.006 C 
ENDBRANCH   8   9
BRANCH   8  11
ATOM     11  C   LIG d   1      -3.141  80.859 116.681  0.00  0.00     0.028 C 
ATOM     12  C   LIG d   1      -2.718  81.555 117.984  0.00  0.00     0.006 C 
ENDBRANCH   8  11
ENDBRANCH   7   8
ENDBRANCH   1   7
BRANCH   6  13
ATOM     13  N   LIG d   1       0.531  77.238 115.533  0.00  0.00    -0.311 N 
ATOM     14  C   LIG d   1       1.160  77.328 116.703  0.00  0.00     0.210 C 
ATOM     15  C   LIG d   1       2.577  77.907 116.633  0.00  0.00     0.109 C 
ATOM     16  O   LIG d   1       0.691  76.955 117.789  0.00  0.00    -0.276 OA
ATOM     17  H   LIG d   1       0.998  77.534 114.698  0.00  0.00     0.149 HD
ENDBRANCH   6  13
BRANCH   5  18
ATOM     18  N   LIG d   1      -0.191  74.384 114.714  0.00  0.00     0.381 N 
ATOM     19  H   LIG d   1       0.704  74.398 114.269  0.00  0.00    -0.090 HD
ATOM     20  H   LIG d   1      -0.689  73.572 114.396  0.00  0.00    -0.090 HD
ATOM     21  H   LIG d   1      -0.078  74.347 115.703  0.00  0.00    -0.090 HD
ENDBRANCH   5  18
BRANCH   3  22
ATOM     22  C   LIG d   1      -4.423  76.044 113.208  0.00  0.00     0.382 C 
ATOM     23  O   LIG d   1      -5.051  74.964 113.324  0.00  0.00    -0.241 OA
ATOM     24  O   LIG d   1      -4.813  76.895 112.385  0.00  0.00    -0.241 OA
ENDBRANCH   3  22
TORSDOF 7
ENDMDL
MODEL 7
REMARK VINA RESULT:      -4.5     11.584     14.613
REMARK  7 active torsions:
REMARK  status: ('A' for Active; 'I' for Inactive)
REMARK    1  A    between atoms: C_2  and  C_3 
REMARK    2  A    between atoms: C_3  and  O_6 
REMARK    3  A    between atoms: C_3  and  C_4 
REMARK    4  A    between atoms: C_7  and  O_6 
REMARK    5  A    between atoms: C_9  and  C_10 
REMARK    6  A    between atoms: N_15  and  C_14 
REMARK    7  A    between atoms: N_20  and  C_19 
REMARK       I    between atoms: C_22  and  N_20 
ROOT
ATOM      1  C   LIG d   1     -16.073  65.818 114.823  0.00  0.00     0.161 C 
ATOM      2  C   LIG d   1     -15.345  66.532 113.856  0.00  0.00     0.016 C 
ATOM      3  C   LIG d   1     -14.853  67.841 114.063  0.00  0.00     0.038 C 
ATOM      4  C   LIG d   1     -14.925  68.471 115.314  0.00  0.00     0.028 C 
ATOM      5  C   LIG d   1     -16.093  67.990 116.168  0.00  0.00    -0.047 C 
ATOM      6  C   LIG d   1     -16.065  66.446 116.232  0.00  0.00     0.091 C 
ENDROOT
BRANCH   1   7
ATOM      7  O   LIG d   1     -15.605  64.456 114.879  0.00  0.00    -0.368 OA
BRANCH   7   8
ATOM      8  C   LIG d   1     -16.534  63.443 114.421  0.00  0.00     0.119 C 
BRANCH   8   9
ATOM      9  C   LIG d   1     -17.901  64.126 114.221  0.00  0.00     0.028 C 
ATOM     10  C   LIG d   1     -18.479  63.885 112.817  0.00  0.00     0.006 C 
ENDBRANCH   8   9
BRANCH   8  11
ATOM     11  C   LIG d   1     -16.767  62.374 115.492  0.00  0.00     0.028 C 
ATOM     12  C   LIG d   1     -17.328  61.065 114.916  0.00  0.00     0.006 C 
ENDBRANCH   8  11
ENDBRANCH   7   8
ENDBRANCH   1   7
BRANCH   6  13
ATOM     13  N   LIG d   1     -17.223  65.889 116.979  0.00  0.00    -0.311 N 
ATOM     14  C   LIG d   1     -17.106  64.956 117.923  0.00  0.00     0.210 C 
ATOM     15  C   LIG d   1     -18.428  64.506 118.554  0.00  0.00     0.109 C 
ATOM     16  O   LIG d   1     -16.031  64.481 118.319  0.00  0.00    -0.276 OA
ATOM     17  H   LIG d   1     -18.130  66.240 116.743  0.00  0.00     0.149 HD
ENDBRANCH   6  13
BRANCH   5  18
ATOM     18  N   LIG d   1     -15.968  68.626 117.493  0.00  0.00     0.381 N 
ATOM     19  H   LIG d   1     -15.557  67.983 118.140  0.00  0.00    -0.090 HD
ATOM     20  H   LIG d   1     -16.885  68.866 117.827  0.00  0.00    -0.090 HD
ATOM     21  H   LIG d   1     -15.406  69.446 117.427  0.00  0.00    -0.090 HD
ENDBRANCH   5  18
BRANCH   3  22
ATOM     22  C   LIG d   1     -14.315  68.549 112.999  0.00  0.00     0.382 C 
ATOM     23  O   LIG d   1     -14.549  68.185 111.822  0.00  0.00    -0.241 OA
ATOM     24  O   LIG d   1     -13.564  69.522 113.203  0.00  0.00    -0.241 OA
ENDBRANCH   3  22
TORSDOF 7
ENDMDL
MODEL 8
REMARK VINA RESULT:      -4.4     15.743     17.387
REMARK  7 active torsions:
REMARK  status: ('A' for Active; 'I' for Inactive)
REMARK    1  A    between atoms: C_2  and  C_3 
REMARK    2  A    between atoms: C_3  and  O_6 
REMARK    3  A    between atoms: C_3  and  C_4 
REMARK    4  A    between atoms: C_7  and  O_6 
REMARK    5  A    between atoms: C_9  and  C_10 
REMARK    6  A    between atoms: N_15  and  C_14 
REMARK    7  A    between atoms: N_20  and  C_19 
REMARK       I    between atoms: C_22  and  N_20 
ROOT
ATOM      1  C   LIG d   1       4.657  87.480 115.874  0.00  0.00     0.161 C 
ATOM      2  C   LIG d   1       4.046  88.741 115.975  0.00  0.00     0.016 C 
ATOM      3  C   LIG d   1       4.673  89.864 116.563  0.00  0.00     0.038 C 
ATOM      4  C   LIG d   1       6.019  89.840 116.957  0.00  0.00     0.028 C 
ATOM      5  C   LIG d   1       6.515  88.449 117.336  0.00  0.00    -0.047 C 
ATOM      6  C   LIG d   1       6.166  87.464 116.197  0.00  0.00     0.091 C 
ENDROOT
BRANCH   1   7
ATOM      7  O   LIG d   1       4.420  86.926 114.565  0.00  0.00    -0.368 OA
BRANCH   7   8
ATOM      8  C   LIG d   1       4.014  87.865 113.539  0.00  0.00     0.119 C 
BRANCH   8   9
ATOM      9  C   LIG d   1       2.925  87.181 112.689  0.00  0.00     0.028 C 
ATOM     10  C   LIG d   1       3.491  86.057 111.806  0.00  0.00     0.006 C 
ENDBRANCH   8   9
BRANCH   8  11
ATOM     11  C   LIG d   1       5.161  88.159 112.568  0.00  0.00     0.028 C 
ATOM     12  C   LIG d   1       5.948  89.425 112.942  0.00  0.00     0.006 C 
ENDBRANCH   8  11
ENDBRANCH   7   8
ENDBRANCH   1   7
BRANCH   6  13
ATOM     13  N   LIG d   1       6.542  86.064 116.524  0.00  0.00    -0.311 N 
ATOM     14  C   LIG d   1       7.742  85.548 116.265  0.00  0.00     0.210 C 
ATOM     15  C   LIG d   1       7.913  84.079 116.665  0.00  0.00     0.109 C 
ATOM     16  O   LIG d   1       8.691  86.176 115.773  0.00  0.00    -0.276 OA
ATOM     17  H   LIG d   1       5.841  85.492 116.954  0.00  0.00     0.149 HD
ENDBRANCH   6  13
BRANCH   5  18
ATOM     18  N   LIG d   1       7.965  88.547 117.592  0.00  0.00     0.381 N 
ATOM     19  H   LIG d   1       8.290  87.706 118.025  0.00  0.00    -0.090 HD
ATOM     20  H   LIG d   1       8.132  89.312 118.221  0.00  0.00    -0.090 HD
ATOM     21  H   LIG d   1       8.452  88.699 116.736  0.00  0.00    -0.090 HD
ENDBRANCH   5  18
BRANCH   3  22
ATOM     22  C   LIG d   1       3.937  91.015 116.800  0.00  0.00     0.382 C 
ATOM     23  O   LIG d   1       2.967  91.303 116.058  0.00  0.00    -0.241 OA
ATOM     24  O   LIG d   1       4.259  91.793 117.718  0.00  0.00    -0.241 OA
ENDBRANCH   3  22
TORSDOF 7
ENDMDL
MODEL 9
REMARK VINA RESULT:      -4.4     18.899     21.039
REMARK  7 active torsions:
REMARK  status: ('A' for Active; 'I' for Inactive)
REMARK    1  A    between atoms: C_2  and  C_3 
REMARK    2  A    between atoms: C_3  and  O_6 
REMARK    3  A    between atoms: C_3  and  C_4 
REMARK    4  A    between atoms: C_7  and  O_6 
REMARK    5  A    between atoms: C_9  and  C_10 
REMARK    6  A    between atoms: N_15  and  C_14 
REMARK    7  A    between atoms: N_20  and  C_19 
REMARK       I    between atoms: C_22  and  N_20 
ROOT
ATOM      1  C   LIG d   1     -24.062  83.378 113.583  0.00  0.00     0.161 C 
ATOM      2  C   LIG d   1     -23.113  84.396 113.772  0.00  0.00     0.016 C 
ATOM      3  C   LIG d   1     -23.448  85.767 113.857  0.00  0.00     0.038 C 
ATOM      4  C   LIG d   1     -24.781  86.202 113.910  0.00  0.00     0.028 C 
ATOM      5  C   LIG d   1     -25.755  85.256 113.217  0.00  0.00    -0.047 C 
ATOM      6  C   LIG d   1     -25.530  83.823 113.751  0.00  0.00     0.091 C 
ENDROOT
BRANCH   1   7
ATOM      7  O   LIG d   1     -23.771  82.270 114.459  0.00  0.00    -0.368 OA
BRANCH   7   8
ATOM      8  C   LIG d   1     -24.157  82.436 115.846  0.00  0.00     0.119 C 
BRANCH   8   9
ATOM      9  C   LIG d   1     -22.867  82.444 116.688  0.00  0.00     0.028 C 
ATOM     10  C   LIG d   1     -22.628  83.796 117.381  0.00  0.00     0.006 C 
ENDBRANCH   8   9
BRANCH   8  11
ATOM     11  C   LIG d   1     -24.961  81.232 116.347  0.00  0.00     0.028 C 
ATOM     12  C   LIG d   1     -25.041  80.097 115.315  0.00  0.00     0.006 C 
ENDBRANCH   8  11
ENDBRANCH   7   8
ENDBRANCH   1   7
BRANCH   6  13
ATOM     13  N   LIG d   1     -26.385  82.820 113.064  0.00  0.00    -0.311 N 
ATOM     14  C   LIG d   1     -27.521  82.351 113.577  0.00  0.00     0.210 C 
ATOM     15  C   LIG d   1     -28.239  81.309 112.714  0.00  0.00     0.109 C 
ATOM     16  O   LIG d   1     -28.019  82.723 114.650  0.00  0.00    -0.276 OA
ATOM     17  H   LIG d   1     -26.072  82.487 112.174  0.00  0.00     0.149 HD
ENDBRANCH   6  13
BRANCH   5  18
ATOM     18  N   LIG d   1     -27.119  85.758 113.468  0.00  0.00     0.381 N 
ATOM     19  H   LIG d   1     -27.714  85.521 112.699  0.00  0.00    -0.090 HD
ATOM     20  H   LIG d   1     -27.088  86.759 113.545  0.00  0.00    -0.090 HD
ATOM     21  H   LIG d   1     -27.479  85.364 114.309  0.00  0.00    -0.090 HD
ENDBRANCH   5  18
BRANCH   3  22
ATOM     22  C   LIG d   1     -22.444  86.722 113.848  0.00  0.00     0.382 C 
ATOM     23  O   LIG d   1     -22.584  87.786 114.499  0.00  0.00    -0.241 OA
ATOM     24  O   LIG d   1     -21.417  86.554 113.163  0.00  0.00    -0.241 OA
ENDBRANCH   3  22
TORSDOF 7
ENDMDL
