MODEL 1
REMARK VINA RESULT:      -5.0      0.000      0.000
REMARK  7 active torsions:
REMARK  status: ('A' for Active; 'I' for Inactive)
REMARK    1  A    between atoms: C_2  and  C_3 
REMARK    2  A    between atoms: C_3  and  O_6 
REMARK    3  A    between atoms: C_3  and  C_4 
REMARK    4  A    between atoms: C_7  and  O_6 
REMARK    5  A    between atoms: C_9  and  C_10 
REMARK    6  A    between atoms: N_15  and  C_14 
REMARK    7  A    between atoms: N_20  and  C_19 
REMARK       I    between atoms: C_22  and  N_20 
ROOT
ATOM      1  C   LIG d   1     -16.873  65.487 114.484  0.00  0.00     0.161 C 
ATOM      2  C   LIG d   1     -16.351  66.368 113.522  0.00  0.00     0.016 C 
ATOM      3  C   LIG d   1     -15.530  67.473 113.842  0.00  0.00     0.038 C 
ATOM      4  C   LIG d   1     -15.048  67.686 115.142  0.00  0.00     0.028 C 
ATOM      5  C   LIG d   1     -15.956  67.116 116.226  0.00  0.00    -0.047 C 
ATOM      6  C   LIG d   1     -16.267  65.639 115.895  0.00  0.00     0.091 C 
ENDROOT
BRANCH   1   7
ATOM      7  O   LIG d   1     -16.740  64.127 114.025  0.00  0.00    -0.368 OA
BRANCH   7   8
ATOM      8  C   LIG d   1     -17.976  63.427 113.742  0.00  0.00     0.119 C 
BRANCH   8   9
ATOM      9  C   LIG d   1     -19.136  64.403 114.019  0.00  0.00     0.028 C 
ATOM     10  C   LIG d   1     -20.133  64.476 112.850  0.00  0.00     0.006 C 
ENDBRANCH   8   9
BRANCH   8  11
ATOM     11  C   LIG d   1     -18.189  62.259 114.711  0.00  0.00     0.028 C 
ATOM     12  C   LIG d   1     -19.039  61.131 114.105  0.00  0.00     0.006 C 
ENDBRANCH   8  11
ENDBRANCH   7   8
ENDBRANCH   1   7
BRANCH   6  13
ATOM     13  N   LIG d   1     -17.218  65.029 116.861  0.00  0.00    -0.311 N 
ATOM     14  C   LIG d   1     -16.906  63.998 117.645  0.00  0.00     0.210 C 
ATOM     15  C   LIG d   1     -18.040  63.512 118.553  0.00  0.00     0.109 C 
ATOM     16  O   LIG d   1     -15.790  63.462 117.697  0.00  0.00    -0.276 OA
ATOM     17  H   LIG d   1     -18.137  65.423 116.906  0.00  0.00     0.149 HD
ENDBRANCH   6  13
BRANCH   5  18
ATOM     18  N   LIG d   1     -15.267  67.287 117.520  0.00  0.00     0.381 N 
ATOM     19  H   LIG d   1     -15.661  66.665 118.198  0.00  0.00    -0.090 HD
ATOM     20  H   LIG d   1     -15.404  68.230 117.839  0.00  0.00    -0.090 HD
ATOM     21  H   LIG d   1     -14.294  67.101 117.415  0.00  0.00    -0.090 HD
ENDBRANCH   5  18
BRANCH   3  22
ATOM     22  C   LIG d   1     -15.216  68.403 112.862  0.00  0.00     0.382 C 
ATOM     23  O   LIG d   1     -14.293  69.230 113.056  0.00  0.00    -0.241 OA
ATOM     24  O   LIG d   1     -15.872  68.452 111.805  0.00  0.00    -0.241 OA
ENDBRANCH   3  22
TORSDOF 7
ENDMDL
MODEL 2
REMARK VINA RESULT:      -4.9     26.425     29.131
REMARK  7 active torsions:
REMARK  status: ('A' for Active; 'I' for Inactive)
REMARK    1  A    between atoms: C_2  and  C_3 
REMARK    2  A    between atoms: C_3  and  O_6 
REMARK    3  A    between atoms: C_3  and  C_4 
REMARK    4  A    between atoms: C_7  and  O_6 
REMARK    5  A    between atoms: C_9  and  C_10 
REMARK    6  A    between atoms: N_15  and  C_14 
REMARK    7  A    between atoms: N_20  and  C_19 
REMARK       I    between atoms: C_22  and  N_20 
ROOT
ATOM      1  C   LIG d   1       3.620  85.348 114.679  0.00  0.00     0.161 C 
ATOM      2  C   LIG d   1       3.400  86.461 113.850  0.00  0.00     0.016 C 
ATOM      3  C   LIG d   1       4.265  87.579 113.804  0.00  0.00     0.038 C 
ATOM      4  C   LIG d   1       5.496  87.593 114.477  0.00  0.00     0.028 C 
ATOM      5  C   LIG d   1       5.518  86.707 115.718  0.00  0.00    -0.047 C 
ATOM      6  C   LIG d   1       5.015  85.296 115.336  0.00  0.00     0.091 C 
ENDROOT
BRANCH   1   7
ATOM      7  O   LIG d   1       3.367  84.135 113.943  0.00  0.00    -0.368 OA
BRANCH   7   8
ATOM      8  C   LIG d   1       3.376  84.251 112.499  0.00  0.00     0.119 C 
BRANCH   8   9
ATOM      9  C   LIG d   1       2.113  83.544 111.970  0.00  0.00     0.028 C 
ATOM     10  C   LIG d   1       0.899  83.742 112.894  0.00  0.00     0.006 C 
ENDBRANCH   8   9
BRANCH   8  11
ATOM     11  C   LIG d   1       4.554  83.488 111.886  0.00  0.00     0.028 C 
ATOM     12  C   LIG d   1       5.019  82.311 112.757  0.00  0.00     0.006 C 
ENDBRANCH   8  11
ENDBRANCH   7   8
ENDBRANCH   1   7
BRANCH   6  13
ATOM     13  N   LIG d   1       4.925  84.390 116.511  0.00  0.00    -0.311 N 
ATOM     14  C   LIG d   1       5.678  83.301 116.655  0.00  0.00     0.210 C 
ATOM     15  C   LIG d   1       5.411  82.495 117.931  0.00  0.00     0.109 C 
ATOM     16  O   LIG d   1       6.563  82.943 115.865  0.00  0.00    -0.276 OA
ATOM     17  H   LIG d   1       4.253  84.622 117.216  0.00  0.00     0.149 HD
ENDBRANCH   6  13
BRANCH   5  18
ATOM     18  N   LIG d   1       6.897  86.707 116.241  0.00  0.00     0.381 N 
ATOM     19  H   LIG d   1       7.307  85.803 116.116  0.00  0.00    -0.090 HD
ATOM     20  H   LIG d   1       6.871  86.909 117.225  0.00  0.00    -0.090 HD
ATOM     21  H   LIG d   1       7.441  87.395 115.768  0.00  0.00    -0.090 HD
ENDBRANCH   5  18
BRANCH   3  22
ATOM     22  C   LIG d   1       3.881  88.717 113.110  0.00  0.00     0.382 C 
ATOM     23  O   LIG d   1       4.551  89.772 113.215  0.00  0.00    -0.241 OA
ATOM     24  O   LIG d   1       2.847  88.713 112.414  0.00  0.00    -0.241 OA
ENDBRANCH   3  22
TORSDOF 7
ENDMDL
MODEL 3
REMARK VINA RESULT:      -4.7     26.046     28.983
REMARK  7 active torsions:
REMARK  status: ('A' for Active; 'I' for Inactive)
REMARK    1  A    between atoms: C_2  and  C_3 
REMARK    2  A    between atoms: C_3  and  O_6 
REMARK    3  A    between atoms: C_3  and  C_4 
REMARK    4  A    between atoms: C_7  and  O_6 
REMARK    5  A    between atoms: C_9  and  C_10 
REMARK    6  A    between atoms: N_15  and  C_14 
REMARK    7  A    between atoms: N_20  and  C_19 
REMARK       I    between atoms: C_22  and  N_20 
ROOT
ATOM      1  C   LIG d   1       1.560  86.999 114.443  0.00  0.00     0.161 C 
ATOM      2  C   LIG d   1       0.456  86.993 115.311  0.00  0.00     0.016 C 
ATOM      3  C   LIG d   1       0.348  87.839 116.438  0.00  0.00     0.038 C 
ATOM      4  C   LIG d   1       1.275  88.862 116.689  0.00  0.00     0.028 C 
ATOM      5  C   LIG d   1       2.663  88.572 116.127  0.00  0.00    -0.047 C 
ATOM      6  C   LIG d   1       2.529  88.184 114.637  0.00  0.00     0.091 C 
ENDROOT
BRANCH   1   7
ATOM      7  O   LIG d   1       1.107  86.941 113.076  0.00  0.00    -0.368 OA
BRANCH   7   8
ATOM      8  C   LIG d   1       1.266  85.667 112.405  0.00  0.00     0.119 C 
BRANCH   8   9
ATOM      9  C   LIG d   1      -0.131  85.029 112.285  0.00  0.00     0.028 C 
ATOM     10  C   LIG d   1      -0.071  83.495 112.197  0.00  0.00     0.006 C 
ENDBRANCH   8   9
BRANCH   8  11
ATOM     11  C   LIG d   1       2.087  84.690 113.252  0.00  0.00     0.028 C 
ATOM     12  C   LIG d   1       3.482  84.419 112.665  0.00  0.00     0.006 C 
ENDBRANCH   8  11
ENDBRANCH   7   8
ENDBRANCH   1   7
BRANCH   6  13
ATOM     13  N   LIG d   1       3.832  87.803 114.031  0.00  0.00    -0.311 N 
ATOM     14  C   LIG d   1       4.610  88.657 113.368  0.00  0.00     0.210 C 
ATOM     15  C   LIG d   1       5.901  88.053 112.807  0.00  0.00     0.109 C 
ATOM     16  O   LIG d   1       4.368  89.864 113.219  0.00  0.00    -0.276 OA
ATOM     17  H   LIG d   1       4.121  86.849 114.132  0.00  0.00     0.149 HD
ENDBRANCH   6  13
BRANCH   5  18
ATOM     18  N   LIG d   1       3.490  89.776 116.339  0.00  0.00     0.381 N 
ATOM     19  H   LIG d   1       3.759  89.837 117.300  0.00  0.00    -0.090 HD
ATOM     20  H   LIG d   1       2.944  90.588 116.112  0.00  0.00    -0.090 HD
ATOM     21  H   LIG d   1       4.300  89.738 115.761  0.00  0.00    -0.090 HD
ENDBRANCH   5  18
BRANCH   3  22
ATOM     22  C   LIG d   1      -0.676  87.640 117.352  0.00  0.00     0.382 C 
ATOM     23  O   LIG d   1      -0.490  86.909 118.354  0.00  0.00    -0.241 OA
ATOM     24  O   LIG d   1      -1.798  88.147 117.163  0.00  0.00    -0.241 OA
ENDBRANCH   3  22
TORSDOF 7
ENDMDL
MODEL 4
REMARK VINA RESULT:      -4.7     25.548     28.717
REMARK  7 active torsions:
REMARK  status: ('A' for Active; 'I' for Inactive)
REMARK    1  A    between atoms: C_2  and  C_3 
REMARK    2  A    between atoms: C_3  and  O_6 
REMARK    3  A    between atoms: C_3  and  C_4 
REMARK    4  A    between atoms: C_7  and  O_6 
REMARK    5  A    between atoms: C_9  and  C_10 
REMARK    6  A    between atoms: N_15  and  C_14 
REMARK    7  A    between atoms: N_20  and  C_19 
REMARK       I    between atoms: C_22  and  N_20 
ROOT
ATOM      1  C   LIG d   1       1.797  86.614 114.247  0.00  0.00     0.161 C 
ATOM      2  C   LIG d   1       0.745  85.790 113.814  0.00  0.00     0.016 C 
ATOM      3  C   LIG d   1       0.906  84.758 112.861  0.00  0.00     0.038 C 
ATOM      4  C   LIG d   1       2.170  84.379 112.385  0.00  0.00     0.028 C 
ATOM      5  C   LIG d   1       3.192  85.510 112.412  0.00  0.00    -0.047 C 
ATOM      6  C   LIG d   1       3.204  86.142 113.822  0.00  0.00     0.091 C 
ENDROOT
BRANCH   1   7
ATOM      7  O   LIG d   1       1.734  86.776 115.678  0.00  0.00    -0.368 OA
BRANCH   7   8
ATOM      8  C   LIG d   1       0.843  87.810 116.163  0.00  0.00     0.119 C 
BRANCH   8   9
ATOM      9  C   LIG d   1       1.667  89.104 116.303  0.00  0.00     0.028 C 
ATOM     10  C   LIG d   1       3.033  88.861 116.966  0.00  0.00     0.006 C 
ENDBRANCH   8   9
BRANCH   8  11
ATOM     11  C   LIG d   1       0.340  87.494 117.575  0.00  0.00     0.028 C 
ATOM     12  C   LIG d   1       0.710  86.076 118.036  0.00  0.00     0.006 C 
ENDBRANCH   8  11
ENDBRANCH   7   8
ENDBRANCH   1   7
BRANCH   6  13
ATOM     13  N   LIG d   1       4.116  87.312 113.911  0.00  0.00    -0.311 N 
ATOM     14  C   LIG d   1       3.906  88.457 113.263  0.00  0.00     0.210 C 
ATOM     15  C   LIG d   1       4.980  89.528 113.478  0.00  0.00     0.109 C 
ATOM     16  O   LIG d   1       2.915  88.698 112.557  0.00  0.00    -0.276 OA
ATOM     17  H   LIG d   1       4.929  87.214 114.488  0.00  0.00     0.149 HD
ENDBRANCH   6  13
BRANCH   5  18
ATOM     18  N   LIG d   1       4.496  84.942 112.021  0.00  0.00     0.381 N 
ATOM     19  H   LIG d   1       4.468  84.657 111.063  0.00  0.00    -0.090 HD
ATOM     20  H   LIG d   1       4.680  84.132 112.586  0.00  0.00    -0.090 HD
ATOM     21  H   LIG d   1       5.216  85.619 112.153  0.00  0.00    -0.090 HD
ENDBRANCH   5  18
BRANCH   3  22
ATOM     22  C   LIG d   1      -0.211  84.120 112.344  0.00  0.00     0.382 C 
ATOM     23  O   LIG d   1      -0.237  82.868 112.263  0.00  0.00    -0.241 OA
ATOM     24  O   LIG d   1      -1.176  84.782 111.916  0.00  0.00    -0.241 OA
ENDBRANCH   3  22
TORSDOF 7
ENDMDL
MODEL 5
REMARK VINA RESULT:      -4.4      2.639      4.151
REMARK  7 active torsions:
REMARK  status: ('A' for Active; 'I' for Inactive)
REMARK    1  A    between atoms: C_2  and  C_3 
REMARK    2  A    between atoms: C_3  and  O_6 
REMARK    3  A    between atoms: C_3  and  C_4 
REMARK    4  A    between atoms: C_7  and  O_6 
REMARK    5  A    between atoms: C_9  and  C_10 
REMARK    6  A    between atoms: N_15  and  C_14 
REMARK    7  A    between atoms: N_20  and  C_19 
REMARK       I    between atoms: C_22  and  N_20 
ROOT
ATOM      1  C   LIG d   1     -17.053  63.859 116.826  0.00  0.00     0.161 C 
ATOM      2  C   LIG d   1     -16.455  65.092 117.134  0.00  0.00     0.016 C 
ATOM      3  C   LIG d   1     -16.204  66.097 116.172  0.00  0.00     0.038 C 
ATOM      4  C   LIG d   1     -16.676  65.996 114.855  0.00  0.00     0.028 C 
ATOM      5  C   LIG d   1     -16.839  64.557 114.378  0.00  0.00    -0.047 C 
ATOM      6  C   LIG d   1     -17.676  63.776 115.417  0.00  0.00     0.091 C 
ENDROOT
BRANCH   1   7
ATOM      7  O   LIG d   1     -18.036  63.529 117.828  0.00  0.00    -0.368 OA
BRANCH   7   8
ATOM      8  C   LIG d   1     -19.398  63.929 117.540  0.00  0.00     0.119 C 
BRANCH   8   9
ATOM      9  C   LIG d   1     -19.750  65.092 118.488  0.00  0.00     0.028 C 
ATOM     10  C   LIG d   1     -19.859  66.437 117.751  0.00  0.00     0.006 C 
ENDBRANCH   8   9
BRANCH   8  11
ATOM     11  C   LIG d   1     -20.390  62.813 117.882  0.00  0.00     0.028 C 
ATOM     12  C   LIG d   1     -19.708  61.452 118.088  0.00  0.00     0.006 C 
ENDBRANCH   8  11
ENDBRANCH   7   8
ENDBRANCH   1   7
BRANCH   6  13
ATOM     13  N   LIG d   1     -17.811  62.337 115.069  0.00  0.00    -0.311 N 
ATOM     14  C   LIG d   1     -18.869  61.833 114.437  0.00  0.00     0.210 C 
ATOM     15  C   LIG d   1     -18.817  60.321 114.193  0.00  0.00     0.109 C 
ATOM     16  O   LIG d   1     -19.832  62.498 114.026  0.00  0.00    -0.276 OA
ATOM     17  H   LIG d   1     -17.062  61.730 115.338  0.00  0.00     0.149 HD
ENDBRANCH   6  13
BRANCH   5  18
ATOM     18  N   LIG d   1     -17.467  64.598 113.043  0.00  0.00     0.381 N 
ATOM     19  H   LIG d   1     -17.122  63.843 112.484  0.00  0.00    -0.090 HD
ATOM     20  H   LIG d   1     -17.219  65.462 112.594  0.00  0.00    -0.090 HD
ATOM     21  H   LIG d   1     -18.457  64.532 113.130  0.00  0.00    -0.090 HD
ENDBRANCH   5  18
BRANCH   3  22
ATOM     22  C   LIG d   1     -15.439  67.201 116.515  0.00  0.00     0.382 C 
ATOM     23  O   LIG d   1     -14.342  67.045 117.102  0.00  0.00    -0.241 OA
ATOM     24  O   LIG d   1     -15.853  68.353 116.284  0.00  0.00    -0.241 OA
ENDBRANCH   3  22
TORSDOF 7
ENDMDL
MODEL 6
REMARK VINA RESULT:      -4.3     25.855     28.374
REMARK  7 active torsions:
REMARK  status: ('A' for Active; 'I' for Inactive)
REMARK    1  A    between atoms: C_2  and  C_3 
REMARK    2  A    between atoms: C_3  and  O_6 
REMARK    3  A    between atoms: C_3  and  C_4 
REMARK    4  A    between atoms: C_7  and  O_6 
REMARK    5  A    between atoms: C_9  and  C_10 
REMARK    6  A    between atoms: N_15  and  C_14 
REMARK    7  A    between atoms: N_20  and  C_19 
REMARK       I    between atoms: C_22  and  N_20 
ROOT
ATOM      1  C   LIG d   1       3.155  84.980 114.812  0.00  0.00     0.161 C 
ATOM      2  C   LIG d   1       2.051  84.419 114.148  0.00  0.00     0.016 C 
ATOM      3  C   LIG d   1       1.302  85.108 113.166  0.00  0.00     0.038 C 
ATOM      4  C   LIG d   1       1.701  86.358 112.670  0.00  0.00     0.028 C 
ATOM      5  C   LIG d   1       2.516  87.174 113.668  0.00  0.00    -0.047 C 
ATOM      6  C   LIG d   1       3.673  86.300 114.205  0.00  0.00     0.091 C 
ENDROOT
BRANCH   1   7
ATOM      7  O   LIG d   1       4.220  84.013 114.891  0.00  0.00    -0.368 OA
BRANCH   7   8
ATOM      8  C   LIG d   1       3.887  82.662 114.485  0.00  0.00     0.119 C 
BRANCH   8   9
ATOM      9  C   LIG d   1       3.969  81.769 115.737  0.00  0.00     0.028 C 
ATOM     10  C   LIG d   1       2.600  81.580 116.414  0.00  0.00     0.006 C 
ENDBRANCH   8   9
BRANCH   8  11
ATOM     11  C   LIG d   1       4.930  82.098 113.516  0.00  0.00     0.028 C 
ATOM     12  C   LIG d   1       4.811  82.689 112.102  0.00  0.00     0.006 C 
ENDBRANCH   8  11
ENDBRANCH   7   8
ENDBRANCH   1   7
BRANCH   6  13
ATOM     13  N   LIG d   1       4.469  86.995 115.250  0.00  0.00    -0.311 N 
ATOM     14  C   LIG d   1       5.567  87.701 114.987  0.00  0.00     0.210 C 
ATOM     15  C   LIG d   1       6.248  88.319 116.213  0.00  0.00     0.109 C 
ATOM     16  O   LIG d   1       6.023  87.902 113.852  0.00  0.00    -0.276 OA
ATOM     17  H   LIG d   1       4.152  86.910 116.196  0.00  0.00     0.149 HD
ENDBRANCH   6  13
BRANCH   5  18
ATOM     18  N   LIG d   1       2.982  88.389 112.975  0.00  0.00     0.381 N 
ATOM     19  H   LIG d   1       2.691  88.366 112.018  0.00  0.00    -0.090 HD
ATOM     20  H   LIG d   1       3.986  88.412 112.999  0.00  0.00    -0.090 HD
ATOM     21  H   LIG d   1       2.614  89.200 113.423  0.00  0.00    -0.090 HD
ENDBRANCH   5  18
BRANCH   3  22
ATOM     22  C   LIG d   1       0.116  84.562 112.699  0.00  0.00     0.382 C 
ATOM     23  O   LIG d   1      -0.846  85.312 112.404  0.00  0.00    -0.241 OA
ATOM     24  O   LIG d   1      -0.019  83.327 112.610  0.00  0.00    -0.241 OA
ENDBRANCH   3  22
TORSDOF 7
ENDMDL
MODEL 7
REMARK VINA RESULT:      -4.3     26.051     28.183
REMARK  7 active torsions:
REMARK  status: ('A' for Active; 'I' for Inactive)
REMARK    1  A    between atoms: C_2  and  C_3 
REMARK    2  A    between atoms: C_3  and  O_6 
REMARK    3  A    between atoms: C_3  and  C_4 
REMARK    4  A    between atoms: C_7  and  O_6 
REMARK    5  A    between atoms: C_9  and  C_10 
REMARK    6  A    between atoms: N_15  and  C_14 
REMARK    7  A    between atoms: N_20  and  C_19 
REMARK       I    between atoms: C_22  and  N_20 
ROOT
ATOM      1  C   LIG d   1       2.070  86.889 114.652  0.00  0.00     0.161 C 
ATOM      2  C   LIG d   1       0.837  86.501 114.101  0.00  0.00     0.016 C 
ATOM      3  C   LIG d   1       0.708  85.511 113.100  0.00  0.00     0.038 C 
ATOM      4  C   LIG d   1       1.797  84.729 112.687  0.00  0.00     0.028 C 
ATOM      5  C   LIG d   1       3.142  85.429 112.849  0.00  0.00    -0.047 C 
ATOM      6  C   LIG d   1       3.256  85.969 114.293  0.00  0.00     0.091 C 
ENDROOT
BRANCH   1   7
ATOM      7  O   LIG d   1       1.948  87.014 116.083  0.00  0.00    -0.368 OA
BRANCH   7   8
ATOM      8  C   LIG d   1       1.073  86.061 116.734  0.00  0.00     0.119 C 
BRANCH   8   9
ATOM      9  C   LIG d   1       0.228  86.836 117.763  0.00  0.00     0.028 C 
ATOM     10  C   LIG d   1      -0.817  87.747 117.096  0.00  0.00     0.006 C 
ENDBRANCH   8   9
BRANCH   8  11
ATOM     11  C   LIG d   1       1.871  85.041 117.552  0.00  0.00     0.028 C 
ATOM     12  C   LIG d   1       2.070  83.709 116.811  0.00  0.00     0.006 C 
ENDBRANCH   8  11
ENDBRANCH   7   8
ENDBRANCH   1   7
BRANCH   6  13
ATOM     13  N   LIG d   1       4.506  86.741 114.513  0.00  0.00    -0.311 N 
ATOM     14  C   LIG d   1       5.336  86.519 115.531  0.00  0.00     0.210 C 
ATOM     15  C   LIG d   1       6.558  87.442 115.583  0.00  0.00     0.109 C 
ATOM     16  O   LIG d   1       5.192  85.625 116.378  0.00  0.00    -0.276 OA
ATOM     17  H   LIG d   1       4.717  87.466 113.855  0.00  0.00     0.149 HD
ENDBRANCH   6  13
BRANCH   5  18
ATOM     18  N   LIG d   1       4.196  84.454 112.512  0.00  0.00     0.381 N 
ATOM     19  H   LIG d   1       3.843  83.788 111.854  0.00  0.00    -0.090 HD
ATOM     20  H   LIG d   1       4.462  83.962 113.346  0.00  0.00    -0.090 HD
ATOM     21  H   LIG d   1       4.986  84.924 112.128  0.00  0.00    -0.090 HD
ENDBRANCH   5  18
BRANCH   3  22
ATOM     22  C   LIG d   1      -0.514  85.323 112.473  0.00  0.00     0.382 C 
ATOM     23  O   LIG d   1      -1.134  86.306 112.000  0.00  0.00    -0.241 OA
ATOM     24  O   LIG d   1      -1.025  84.189 112.413  0.00  0.00    -0.241 OA
ENDBRANCH   3  22
TORSDOF 7
ENDMDL
MODEL 8
REMARK VINA RESULT:      -4.3     29.418     32.234
REMARK  7 active torsions:
REMARK  status: ('A' for Active; 'I' for Inactive)
REMARK    1  A    between atoms: C_2  and  C_3 
REMARK    2  A    between atoms: C_3  and  O_6 
REMARK    3  A    between atoms: C_3  and  C_4 
REMARK    4  A    between atoms: C_7  and  O_6 
REMARK    5  A    between atoms: C_9  and  C_10 
REMARK    6  A    between atoms: N_15  and  C_14 
REMARK    7  A    between atoms: N_20  and  C_19 
REMARK       I    between atoms: C_22  and  N_20 
ROOT
ATOM      1  C   LIG d   1       4.532  88.252 116.787  0.00  0.00     0.161 C 
ATOM      2  C   LIG d   1       3.883  89.497 116.833  0.00  0.00     0.016 C 
ATOM      3  C   LIG d   1       4.564  90.723 117.011  0.00  0.00     0.038 C 
ATOM      4  C   LIG d   1       5.965  90.801 117.004  0.00  0.00     0.028 C 
ATOM      5  C   LIG d   1       6.645  89.517 117.467  0.00  0.00    -0.047 C 
ATOM      6  C   LIG d   1       6.068  88.327 116.666  0.00  0.00     0.091 C 
ENDROOT
BRANCH   1   7
ATOM      7  O   LIG d   1       3.984  87.455 115.718  0.00  0.00    -0.368 OA
BRANCH   7   8
ATOM      8  C   LIG d   1       3.329  88.184 114.651  0.00  0.00     0.119 C 
BRANCH   8   9
ATOM      9  C   LIG d   1       2.063  87.397 114.262  0.00  0.00     0.028 C 
ATOM     10  C   LIG d   1       2.181  86.742 112.875  0.00  0.00     0.006 C 
ENDBRANCH   8   9
BRANCH   8  11
ATOM     11  C   LIG d   1       4.192  88.214 113.386  0.00  0.00     0.028 C 
ATOM     12  C   LIG d   1       5.091  89.458 113.307  0.00  0.00     0.006 C 
ENDBRANCH   8  11
ENDBRANCH   7   8
ENDBRANCH   1   7
BRANCH   6  13
ATOM     13  N   LIG d   1       6.619  87.022 117.115  0.00  0.00    -0.311 N 
ATOM     14  C   LIG d   1       7.731  86.485 116.617  0.00  0.00     0.210 C 
ATOM     15  C   LIG d   1       8.112  85.123 117.205  0.00  0.00     0.109 C 
ATOM     16  O   LIG d   1       8.456  87.022 115.766  0.00  0.00    -0.276 OA
ATOM     17  H   LIG d   1       6.110  86.532 117.825  0.00  0.00     0.149 HD
ENDBRANCH   6  13
BRANCH   5  18
ATOM     18  N   LIG d   1       8.098  89.690 117.279  0.00  0.00     0.381 N 
ATOM     19  H   LIG d   1       8.588  88.934 117.715  0.00  0.00    -0.090 HD
ATOM     20  H   LIG d   1       8.383  90.547 117.720  0.00  0.00    -0.090 HD
ATOM     21  H   LIG d   1       8.315  89.719 116.307  0.00  0.00    -0.090 HD
ENDBRANCH   5  18
BRANCH   3  22
ATOM     22  C   LIG d   1       3.841  91.885 117.239  0.00  0.00     0.382 C 
ATOM     23  O   LIG d   1       2.606  91.823 117.450  0.00  0.00    -0.241 OA
ATOM     24  O   LIG d   1       4.401  92.997 117.191  0.00  0.00    -0.241 OA
ENDBRANCH   3  22
TORSDOF 7
ENDMDL
MODEL 9
REMARK VINA RESULT:      -4.2     25.764     28.925
REMARK  7 active torsions:
REMARK  status: ('A' for Active; 'I' for Inactive)
REMARK    1  A    between atoms: C_2  and  C_3 
REMARK    2  A    between atoms: C_3  and  O_6 
REMARK    3  A    between atoms: C_3  and  C_4 
REMARK    4  A    between atoms: C_7  and  O_6 
REMARK    5  A    between atoms: C_9  and  C_10 
REMARK    6  A    between atoms: N_15  and  C_14 
REMARK    7  A    between atoms: N_20  and  C_19 
REMARK       I    between atoms: C_22  and  N_20 
ROOT
ATOM      1  C   LIG d   1       3.393  85.954 113.501  0.00  0.00     0.161 C 
ATOM      2  C   LIG d   1       4.236  87.072 113.614  0.00  0.00     0.016 C 
ATOM      3  C   LIG d   1       3.865  88.263 114.279  0.00  0.00     0.038 C 
ATOM      4  C   LIG d   1       2.673  88.361 115.013  0.00  0.00     0.028 C 
ATOM      5  C   LIG d   1       1.571  87.437 114.506  0.00  0.00    -0.047 C 
ATOM      6  C   LIG d   1       2.133  86.002 114.390  0.00  0.00     0.091 C 
ENDROOT
BRANCH   1   7
ATOM      7  O   LIG d   1       4.142  84.750 113.758  0.00  0.00    -0.368 OA
BRANCH   7   8
ATOM      8  C   LIG d   1       4.001  84.181 115.083  0.00  0.00     0.119 C 
BRANCH   8   9
ATOM      9  C   LIG d   1       5.330  84.409 115.829  0.00  0.00     0.028 C 
ATOM     10  C   LIG d   1       5.222  85.511 116.897  0.00  0.00     0.006 C 
ENDBRANCH   8   9
BRANCH   8  11
ATOM     11  C   LIG d   1       3.826  82.661 115.021  0.00  0.00     0.028 C 
ATOM     12  C   LIG d   1       2.489  82.190 115.614  0.00  0.00     0.006 C 
ENDBRANCH   8  11
ENDBRANCH   7   8
ENDBRANCH   1   7
BRANCH   6  13
ATOM     13  N   LIG d   1       1.144  85.050 113.820  0.00  0.00    -0.311 N 
ATOM     14  C   LIG d   1       0.460  85.286 112.702  0.00  0.00     0.210 C 
ATOM     15  C   LIG d   1      -0.523  84.182 112.301  0.00  0.00     0.109 C 
ATOM     16  O   LIG d   1       0.598  86.290 111.987  0.00  0.00    -0.276 OA
ATOM     17  H   LIG d   1       0.993  84.196 114.320  0.00  0.00     0.149 HD
ENDBRANCH   6  13
BRANCH   5  18
ATOM     18  N   LIG d   1       0.437  87.540 115.442  0.00  0.00     0.381 N 
ATOM     19  H   LIG d   1      -0.418  87.344 114.962  0.00  0.00    -0.090 HD
ATOM     20  H   LIG d   1       0.391  88.480 115.796  0.00  0.00    -0.090 HD
ATOM     21  H   LIG d   1       0.557  86.900 116.196  0.00  0.00    -0.090 HD
ENDBRANCH   5  18
BRANCH   3  22
ATOM     22  C   LIG d   1       4.673  89.386 114.181  0.00  0.00     0.382 C 
ATOM     23  O   LIG d   1       4.706  90.042 113.113  0.00  0.00    -0.241 OA
ATOM     24  O   LIG d   1       5.402  89.724 115.133  0.00  0.00    -0.241 OA
ENDBRANCH   3  22
TORSDOF 7
ENDMDL
