MODEL 1
REMARK VINA RESULT:      -5.4      0.000      0.000
REMARK  7 active torsions:
REMARK  status: ('A' for Active; 'I' for Inactive)
REMARK    1  A    between atoms: C_2  and  C_3 
REMARK    2  A    between atoms: C_3  and  O_6 
REMARK    3  A    between atoms: C_3  and  C_4 
REMARK    4  A    between atoms: C_7  and  O_6 
REMARK    5  A    between atoms: C_9  and  C_10 
REMARK    6  A    between atoms: N_15  and  C_14 
REMARK    7  A    between atoms: N_20  and  C_19 
REMARK       I    between atoms: C_22  and  N_20 
ROOT
ATOM      1  C   LIG d   1      -2.547  74.387 115.569  0.00  0.00     0.161 C 
ATOM      2  C   LIG d   1      -1.894  73.680 116.592  0.00  0.00     0.016 C 
ATOM      3  C   LIG d   1      -0.561  73.937 116.989  0.00  0.00     0.038 C 
ATOM      4  C   LIG d   1       0.164  75.028 116.487  0.00  0.00     0.028 C 
ATOM      5  C   LIG d   1      -0.276  75.458 115.092  0.00  0.00    -0.047 C 
ATOM      6  C   LIG d   1      -1.809  75.654 115.087  0.00  0.00     0.091 C 
ENDROOT
BRANCH   1   7
ATOM      7  O   LIG d   1      -3.888  74.715 115.981  0.00  0.00    -0.368 OA
BRANCH   7   8
ATOM      8  C   LIG d   1      -4.954  74.000 115.308  0.00  0.00     0.119 C 
BRANCH   8   9
ATOM      9  C   LIG d   1      -5.704  75.013 114.422  0.00  0.00     0.028 C 
ATOM     10  C   LIG d   1      -6.633  75.930 115.237  0.00  0.00     0.006 C 
ENDBRANCH   8   9
BRANCH   8  11
ATOM     11  C   LIG d   1      -5.995  73.484 116.305  0.00  0.00     0.028 C 
ATOM     12  C   LIG d   1      -6.315  71.992 116.115  0.00  0.00     0.006 C 
ENDBRANCH   8  11
ENDBRANCH   7   8
ENDBRANCH   1   7
BRANCH   6  13
ATOM     13  N   LIG d   1      -2.333  75.994 113.738  0.00  0.00    -0.311 N 
ATOM     14  C   LIG d   1      -2.932  77.149 113.454  0.00  0.00     0.210 C 
ATOM     15  C   LIG d   1      -3.415  77.287 112.007  0.00  0.00     0.109 C 
ATOM     16  O   LIG d   1      -3.080  78.085 114.254  0.00  0.00    -0.276 OA
ATOM     17  H   LIG d   1      -2.227  75.303 113.021  0.00  0.00     0.149 HD
ENDBRANCH   6  13
BRANCH   5  18
ATOM     18  N   LIG d   1       0.466  76.686 114.749  0.00  0.00     0.381 N 
ATOM     19  H   LIG d   1       1.158  76.869 115.447  0.00  0.00    -0.090 HD
ATOM     20  H   LIG d   1      -0.176  77.459 114.731  0.00  0.00    -0.090 HD
ATOM     21  H   LIG d   1       0.900  76.585 113.858  0.00  0.00    -0.090 HD
ENDBRANCH   5  18
BRANCH   3  22
ATOM     22  C   LIG d   1       0.073  73.072 117.868  0.00  0.00     0.382 C 
ATOM     23  O   LIG d   1       1.207  73.360 118.321  0.00  0.00    -0.241 OA
ATOM     24  O   LIG d   1      -0.455  71.988 118.179  0.00  0.00    -0.241 OA
ENDBRANCH   3  22
TORSDOF 7
ENDMDL
MODEL 2
REMARK VINA RESULT:      -5.2      2.903      5.904
REMARK  7 active torsions:
REMARK  status: ('A' for Active; 'I' for Inactive)
REMARK    1  A    between atoms: C_2  and  C_3 
REMARK    2  A    between atoms: C_3  and  O_6 
REMARK    3  A    between atoms: C_3  and  C_4 
REMARK    4  A    between atoms: C_7  and  O_6 
REMARK    5  A    between atoms: C_9  and  C_10 
REMARK    6  A    between atoms: N_15  and  C_14 
REMARK    7  A    between atoms: N_20  and  C_19 
REMARK       I    between atoms: C_22  and  N_20 
ROOT
ATOM      1  C   LIG d   1      -1.543  78.265 115.233  0.00  0.00     0.161 C 
ATOM      2  C   LIG d   1      -1.954  79.483 114.667  0.00  0.00     0.016 C 
ATOM      3  C   LIG d   1      -2.253  79.641 113.295  0.00  0.00     0.038 C 
ATOM      4  C   LIG d   1      -2.307  78.549 112.416  0.00  0.00     0.028 C 
ATOM      5  C   LIG d   1      -1.410  77.389 112.836  0.00  0.00    -0.047 C 
ATOM      6  C   LIG d   1      -1.703  77.037 114.313  0.00  0.00     0.091 C 
ENDROOT
BRANCH   1   7
ATOM      7  O   LIG d   1      -2.231  78.049 116.481  0.00  0.00    -0.368 OA
BRANCH   7   8
ATOM      8  C   LIG d   1      -3.666  77.870 116.394  0.00  0.00     0.119 C 
BRANCH   8   9
ATOM      9  C   LIG d   1      -4.324  79.000 117.210  0.00  0.00     0.028 C 
ATOM     10  C   LIG d   1      -3.315  79.745 118.100  0.00  0.00     0.006 C 
ENDBRANCH   8   9
BRANCH   8  11
ATOM     11  C   LIG d   1      -4.108  76.570 117.074  0.00  0.00     0.028 C 
ATOM     12  C   LIG d   1      -3.062  76.029 118.062  0.00  0.00     0.006 C 
ENDBRANCH   8  11
ENDBRANCH   7   8
ENDBRANCH   1   7
BRANCH   6  13
ATOM     13  N   LIG d   1      -0.809  75.968 114.829  0.00  0.00    -0.311 N 
ATOM     14  C   LIG d   1      -1.231  74.741 115.130  0.00  0.00     0.210 C 
ATOM     15  C   LIG d   1      -0.149  73.798 115.665  0.00  0.00     0.109 C 
ATOM     16  O   LIG d   1      -2.392  74.334 114.973  0.00  0.00    -0.276 OA
ATOM     17  H   LIG d   1       0.156  76.203 114.956  0.00  0.00     0.149 HD
ENDBRANCH   6  13
BRANCH   5  18
ATOM     18  N   LIG d   1      -1.667  76.269 111.912  0.00  0.00     0.381 N 
ATOM     19  H   LIG d   1      -1.802  75.425 112.432  0.00  0.00    -0.090 HD
ATOM     20  H   LIG d   1      -0.867  76.148 111.317  0.00  0.00    -0.090 HD
ATOM     21  H   LIG d   1      -2.475  76.460 111.361  0.00  0.00    -0.090 HD
ENDBRANCH   5  18
BRANCH   3  22
ATOM     22  C   LIG d   1      -2.464  80.911 112.779  0.00  0.00     0.382 C 
ATOM     23  O   LIG d   1      -1.488  81.604 112.401  0.00  0.00    -0.241 OA
ATOM     24  O   LIG d   1      -3.612  81.391 112.729  0.00  0.00    -0.241 OA
ENDBRANCH   3  22
TORSDOF 7
ENDMDL
MODEL 3
REMARK VINA RESULT:      -5.2      1.545      4.776
REMARK  7 active torsions:
REMARK  status: ('A' for Active; 'I' for Inactive)
REMARK    1  A    between atoms: C_2  and  C_3 
REMARK    2  A    between atoms: C_3  and  O_6 
REMARK    3  A    between atoms: C_3  and  C_4 
REMARK    4  A    between atoms: C_7  and  O_6 
REMARK    5  A    between atoms: C_9  and  C_10 
REMARK    6  A    between atoms: N_15  and  C_14 
REMARK    7  A    between atoms: N_20  and  C_19 
REMARK       I    between atoms: C_22  and  N_20 
ROOT
ATOM      1  C   LIG d   1      -2.525  75.589 115.494  0.00  0.00     0.161 C 
ATOM      2  C   LIG d   1      -3.093  76.247 114.391  0.00  0.00     0.016 C 
ATOM      3  C   LIG d   1      -2.370  76.567 113.219  0.00  0.00     0.038 C 
ATOM      4  C   LIG d   1      -1.060  76.112 113.008  0.00  0.00     0.028 C 
ATOM      5  C   LIG d   1      -0.284  75.881 114.301  0.00  0.00    -0.047 C 
ATOM      6  C   LIG d   1      -1.127  74.987 115.238  0.00  0.00     0.091 C 
ENDROOT
BRANCH   1   7
ATOM      7  O   LIG d   1      -3.427  74.573 115.975  0.00  0.00    -0.368 OA
BRANCH   7   8
ATOM      8  C   LIG d   1      -4.787  74.642 115.478  0.00  0.00     0.119 C 
BRANCH   8   9
ATOM      9  C   LIG d   1      -5.679  75.127 116.637  0.00  0.00     0.028 C 
ATOM     10  C   LIG d   1      -6.653  76.235 116.202  0.00  0.00     0.006 C 
ENDBRANCH   8   9
BRANCH   8  11
ATOM     11  C   LIG d   1      -5.317  73.252 115.113  0.00  0.00     0.028 C 
ATOM     12  C   LIG d   1      -6.114  72.599 116.253  0.00  0.00     0.006 C 
ENDBRANCH   8  11
ENDBRANCH   7   8
ENDBRANCH   1   7
BRANCH   6  13
ATOM     13  N   LIG d   1      -0.478  74.780 116.559  0.00  0.00    -0.311 N 
ATOM     14  C   LIG d   1      -0.033  73.597 116.980  0.00  0.00     0.210 C 
ATOM     15  C   LIG d   1       0.586  73.600 118.382  0.00  0.00     0.109 C 
ATOM     16  O   LIG d   1      -0.062  72.552 116.313  0.00  0.00    -0.276 OA
ATOM     17  H   LIG d   1      -0.385  75.581 117.152  0.00  0.00     0.149 HD
ENDBRANCH   6  13
BRANCH   5  18
ATOM     18  N   LIG d   1       1.013  75.279 113.940  0.00  0.00     0.381 N 
ATOM     19  H   LIG d   1       1.709  75.994 113.862  0.00  0.00    -0.090 HD
ATOM     20  H   LIG d   1       0.925  74.827 113.047  0.00  0.00    -0.090 HD
ATOM     21  H   LIG d   1       1.285  74.615 114.631  0.00  0.00    -0.090 HD
ENDBRANCH   5  18
BRANCH   3  22
ATOM     22  C   LIG d   1      -2.946  77.385 112.258  0.00  0.00     0.382 C 
ATOM     23  O   LIG d   1      -4.085  77.115 111.806  0.00  0.00    -0.241 OA
ATOM     24  O   LIG d   1      -2.323  78.364 111.806  0.00  0.00    -0.241 OA
ENDBRANCH   3  22
TORSDOF 7
ENDMDL
MODEL 4
REMARK VINA RESULT:      -5.1      3.038      6.249
REMARK  7 active torsions:
REMARK  status: ('A' for Active; 'I' for Inactive)
REMARK    1  A    between atoms: C_2  and  C_3 
REMARK    2  A    between atoms: C_3  and  O_6 
REMARK    3  A    between atoms: C_3  and  C_4 
REMARK    4  A    between atoms: C_7  and  O_6 
REMARK    5  A    between atoms: C_9  and  C_10 
REMARK    6  A    between atoms: N_15  and  C_14 
REMARK    7  A    between atoms: N_20  and  C_19 
REMARK       I    between atoms: C_22  and  N_20 
ROOT
ATOM      1  C   LIG d   1      -2.718  76.780 113.206  0.00  0.00     0.161 C 
ATOM      2  C   LIG d   1      -2.443  78.069 112.720  0.00  0.00     0.016 C 
ATOM      3  C   LIG d   1      -2.423  79.221 113.540  0.00  0.00     0.038 C 
ATOM      4  C   LIG d   1      -2.529  79.140 114.936  0.00  0.00     0.028 C 
ATOM      5  C   LIG d   1      -3.309  77.921 115.415  0.00  0.00    -0.047 C 
ATOM      6  C   LIG d   1      -2.726  76.656 114.744  0.00  0.00     0.091 C 
ENDROOT
BRANCH   1   7
ATOM      7  O   LIG d   1      -1.794  75.834 112.632  0.00  0.00    -0.368 OA
BRANCH   7   8
ATOM      8  C   LIG d   1      -0.414  75.954 113.055  0.00  0.00     0.119 C 
BRANCH   8   9
ATOM      9  C   LIG d   1       0.471  75.783 111.805  0.00  0.00     0.028 C 
ATOM     10  C   LIG d   1       1.605  74.768 112.023  0.00  0.00     0.006 C 
ENDBRANCH   8   9
BRANCH   8  11
ATOM     11  C   LIG d   1      -0.017  74.810 113.993  0.00  0.00     0.028 C 
ATOM     12  C   LIG d   1       0.461  75.304 115.367  0.00  0.00     0.006 C 
ENDBRANCH   8  11
ENDBRANCH   7   8
ENDBRANCH   1   7
BRANCH   6  13
ATOM     13  N   LIG d   1      -3.486  75.427 115.093  0.00  0.00    -0.311 N 
ATOM     14  C   LIG d   1      -4.734  75.198 114.687  0.00  0.00     0.210 C 
ATOM     15  C   LIG d   1      -5.339  73.878 115.176  0.00  0.00     0.109 C 
ATOM     16  O   LIG d   1      -5.385  75.946 113.943  0.00  0.00    -0.276 OA
ATOM     17  H   LIG d   1      -3.022  74.752 115.668  0.00  0.00     0.149 HD
ENDBRANCH   6  13
BRANCH   5  18
ATOM     18  N   LIG d   1      -3.224  77.886 116.887  0.00  0.00     0.381 N 
ATOM     19  H   LIG d   1      -3.634  78.714 117.270  0.00  0.00    -0.090 HD
ATOM     20  H   LIG d   1      -2.256  77.860 117.156  0.00  0.00    -0.090 HD
ATOM     21  H   LIG d   1      -3.695  77.081 117.237  0.00  0.00    -0.090 HD
ENDBRANCH   5  18
BRANCH   3  22
ATOM     22  C   LIG d   1      -2.336  80.477 112.958  0.00  0.00     0.382 C 
ATOM     23  O   LIG d   1      -3.379  81.137 112.732  0.00  0.00    -0.241 OA
ATOM     24  O   LIG d   1      -1.232  80.939 112.615  0.00  0.00    -0.241 OA
ENDBRANCH   3  22
TORSDOF 7
ENDMDL
MODEL 5
REMARK VINA RESULT:      -5.0     10.472     12.998
REMARK  7 active torsions:
REMARK  status: ('A' for Active; 'I' for Inactive)
REMARK    1  A    between atoms: C_2  and  C_3 
REMARK    2  A    between atoms: C_3  and  O_6 
REMARK    3  A    between atoms: C_3  and  C_4 
REMARK    4  A    between atoms: C_7  and  O_6 
REMARK    5  A    between atoms: C_9  and  C_10 
REMARK    6  A    between atoms: N_15  and  C_14 
REMARK    7  A    between atoms: N_20  and  C_19 
REMARK       I    between atoms: C_22  and  N_20 
ROOT
ATOM      1  C   LIG d   1       2.227  85.895 115.062  0.00  0.00     0.161 C 
ATOM      2  C   LIG d   1       2.858  87.103 114.721  0.00  0.00     0.016 C 
ATOM      3  C   LIG d   1       4.201  87.399 115.048  0.00  0.00     0.038 C 
ATOM      4  C   LIG d   1       5.056  86.439 115.610  0.00  0.00     0.028 C 
ATOM      5  C   LIG d   1       4.324  85.382 116.429  0.00  0.00    -0.047 C 
ATOM      6  C   LIG d   1       3.176  84.793 115.577  0.00  0.00     0.091 C 
ENDROOT
BRANCH   1   7
ATOM      7  O   LIG d   1       1.459  85.412 113.942  0.00  0.00    -0.368 OA
BRANCH   7   8
ATOM      8  C   LIG d   1       1.870  85.885 112.636  0.00  0.00     0.119 C 
BRANCH   8   9
ATOM      9  C   LIG d   1       0.597  86.300 111.873  0.00  0.00     0.028 C 
ATOM     10  C   LIG d   1      -0.587  85.359 112.150  0.00  0.00     0.006 C 
ENDBRANCH   8   9
BRANCH   8  11
ATOM     11  C   LIG d   1       2.491  84.758 111.805  0.00  0.00     0.028 C 
ATOM     12  C   LIG d   1       4.027  84.794 111.807  0.00  0.00     0.006 C 
ENDBRANCH   8  11
ENDBRANCH   7   8
ENDBRANCH   1   7
BRANCH   6  13
ATOM     13  N   LIG d   1       2.356  83.810 116.333  0.00  0.00    -0.311 N 
ATOM     14  C   LIG d   1       2.523  82.492 116.242  0.00  0.00     0.210 C 
ATOM     15  C   LIG d   1       1.558  81.658 117.090  0.00  0.00     0.109 C 
ATOM     16  O   LIG d   1       3.401  81.936 115.565  0.00  0.00    -0.276 OA
ATOM     17  H   LIG d   1       1.641  84.177 116.931  0.00  0.00     0.149 HD
ENDBRANCH   6  13
BRANCH   5  18
ATOM     18  N   LIG d   1       5.316  84.370 116.840  0.00  0.00     0.381 N 
ATOM     19  H   LIG d   1       5.875  84.105 116.054  0.00  0.00    -0.090 HD
ATOM     20  H   LIG d   1       4.831  83.555 117.172  0.00  0.00    -0.090 HD
ATOM     21  H   LIG d   1       5.897  84.737 117.562  0.00  0.00    -0.090 HD
ENDBRANCH   5  18
BRANCH   3  22
ATOM     22  C   LIG d   1       4.691  88.681 114.848  0.00  0.00     0.382 C 
ATOM     23  O   LIG d   1       4.929  89.421 115.833  0.00  0.00    -0.241 OA
ATOM     24  O   LIG d   1       4.855  89.122 113.695  0.00  0.00    -0.241 OA
ENDBRANCH   3  22
TORSDOF 7
ENDMDL
MODEL 6
REMARK VINA RESULT:      -4.9      3.401      6.153
REMARK  7 active torsions:
REMARK  status: ('A' for Active; 'I' for Inactive)
REMARK    1  A    between atoms: C_2  and  C_3 
REMARK    2  A    between atoms: C_3  and  O_6 
REMARK    3  A    between atoms: C_3  and  C_4 
REMARK    4  A    between atoms: C_7  and  O_6 
REMARK    5  A    between atoms: C_9  and  C_10 
REMARK    6  A    between atoms: N_15  and  C_14 
REMARK    7  A    between atoms: N_20  and  C_19 
REMARK       I    between atoms: C_22  and  N_20 
ROOT
ATOM      1  C   LIG d   1      -5.383  74.363 116.728  0.00  0.00     0.161 C 
ATOM      2  C   LIG d   1      -6.082  73.148 116.641  0.00  0.00     0.016 C 
ATOM      3  C   LIG d   1      -7.411  72.981 117.092  0.00  0.00     0.038 C 
ATOM      4  C   LIG d   1      -8.189  74.065 117.525  0.00  0.00     0.028 C 
ATOM      5  C   LIG d   1      -7.364  75.210 118.101  0.00  0.00    -0.047 C 
ATOM      6  C   LIG d   1      -6.252  75.584 117.095  0.00  0.00     0.091 C 
ENDROOT
BRANCH   1   7
ATOM      7  O   LIG d   1      -4.671  74.606 115.498  0.00  0.00    -0.368 OA
BRANCH   7   8
ATOM      8  C   LIG d   1      -3.237  74.405 115.542  0.00  0.00     0.119 C 
BRANCH   8   9
ATOM      9  C   LIG d   1      -2.831  74.285 117.023  0.00  0.00     0.028 C 
ATOM     10  C   LIG d   1      -1.550  73.456 117.215  0.00  0.00     0.006 C 
ENDBRANCH   8   9
BRANCH   8  11
ATOM     11  C   LIG d   1      -2.486  75.631 115.014  0.00  0.00     0.028 C 
ATOM     12  C   LIG d   1      -3.427  76.716 114.466  0.00  0.00     0.006 C 
ENDBRANCH   8  11
ENDBRANCH   7   8
ENDBRANCH   1   7
BRANCH   6  13
ATOM     13  N   LIG d   1      -5.346  76.641 117.617  0.00  0.00    -0.311 N 
ATOM     14  C   LIG d   1      -5.547  77.942 117.419  0.00  0.00     0.210 C 
ATOM     15  C   LIG d   1      -4.482  78.861 118.026  0.00  0.00     0.109 C 
ATOM     16  O   LIG d   1      -6.523  78.425 116.825  0.00  0.00    -0.276 OA
ATOM     17  H   LIG d   1      -4.546  76.339 118.137  0.00  0.00     0.149 HD
ENDBRANCH   6  13
BRANCH   5  18
ATOM     18  N   LIG d   1      -8.287  76.326 118.384  0.00  0.00     0.381 N 
ATOM     19  H   LIG d   1      -8.652  76.237 119.312  0.00  0.00    -0.090 HD
ATOM     20  H   LIG d   1      -9.055  76.285 117.738  0.00  0.00    -0.090 HD
ATOM     21  H   LIG d   1      -7.810  77.196 118.290  0.00  0.00    -0.090 HD
ENDBRANCH   5  18
BRANCH   3  22
ATOM     22  C   LIG d   1      -7.963  71.710 117.150  0.00  0.00     0.382 C 
ATOM     23  O   LIG d   1      -7.278  70.748 117.574  0.00  0.00    -0.241 OA
ATOM     24  O   LIG d   1      -9.122  71.505 116.742  0.00  0.00    -0.241 OA
ENDBRANCH   3  22
TORSDOF 7
ENDMDL
MODEL 7
REMARK VINA RESULT:      -4.7     10.571     13.053
REMARK  7 active torsions:
REMARK  status: ('A' for Active; 'I' for Inactive)
REMARK    1  A    between atoms: C_2  and  C_3 
REMARK    2  A    between atoms: C_3  and  O_6 
REMARK    3  A    between atoms: C_3  and  C_4 
REMARK    4  A    between atoms: C_7  and  O_6 
REMARK    5  A    between atoms: C_9  and  C_10 
REMARK    6  A    between atoms: N_15  and  C_14 
REMARK    7  A    between atoms: N_20  and  C_19 
REMARK       I    between atoms: C_22  and  N_20 
ROOT
ATOM      1  C   LIG d   1       3.415  85.525 114.584  0.00  0.00     0.161 C 
ATOM      2  C   LIG d   1       3.807  86.855 114.363  0.00  0.00     0.016 C 
ATOM      3  C   LIG d   1       4.685  87.561 115.218  0.00  0.00     0.038 C 
ATOM      4  C   LIG d   1       5.353  86.930 116.277  0.00  0.00     0.028 C 
ATOM      5  C   LIG d   1       4.602  85.727 116.838  0.00  0.00    -0.047 C 
ATOM      6  C   LIG d   1       4.221  84.786 115.673  0.00  0.00     0.091 C 
ENDROOT
BRANCH   1   7
ATOM      7  O   LIG d   1       3.457  84.790 113.344  0.00  0.00    -0.368 OA
BRANCH   7   8
ATOM      8  C   LIG d   1       2.189  84.282 112.862  0.00  0.00     0.119 C 
BRANCH   8   9
ATOM      9  C   LIG d   1       2.492  83.105 111.914  0.00  0.00     0.028 C 
ATOM     10  C   LIG d   1       1.670  81.851 112.254  0.00  0.00     0.006 C 
ENDBRANCH   8   9
BRANCH   8  11
ATOM     11  C   LIG d   1       1.464  85.320 112.000  0.00  0.00     0.028 C 
ATOM     12  C   LIG d   1      -0.036  85.418 112.321  0.00  0.00     0.006 C 
ENDBRANCH   8  11
ENDBRANCH   7   8
ENDBRANCH   1   7
BRANCH   6  13
ATOM     13  N   LIG d   1       3.409  83.625 116.123  0.00  0.00    -0.311 N 
ATOM     14  C   LIG d   1       3.930  82.433 116.410  0.00  0.00     0.210 C 
ATOM     15  C   LIG d   1       2.914  81.369 116.837  0.00  0.00     0.109 C 
ATOM     16  O   LIG d   1       5.141  82.165 116.382  0.00  0.00    -0.276 OA
ATOM     17  H   LIG d   1       2.421  83.763 116.204  0.00  0.00     0.149 HD
ENDBRANCH   6  13
BRANCH   5  18
ATOM     18  N   LIG d   1       5.473  85.084 117.840  0.00  0.00     0.381 N 
ATOM     19  H   LIG d   1       5.000  85.038 118.720  0.00  0.00    -0.090 HD
ATOM     20  H   LIG d   1       6.301  85.642 117.956  0.00  0.00    -0.090 HD
ATOM     21  H   LIG d   1       5.721  84.168 117.538  0.00  0.00    -0.090 HD
ENDBRANCH   5  18
BRANCH   3  22
ATOM     22  C   LIG d   1       4.870  88.923 115.040  0.00  0.00     0.382 C 
ATOM     23  O   LIG d   1       4.846  89.693 116.030  0.00  0.00    -0.241 OA
ATOM     24  O   LIG d   1       5.016  89.397 113.897  0.00  0.00    -0.241 OA
ENDBRANCH   3  22
TORSDOF 7
ENDMDL
MODEL 8
REMARK VINA RESULT:      -4.7      2.197      5.075
REMARK  7 active torsions:
REMARK  status: ('A' for Active; 'I' for Inactive)
REMARK    1  A    between atoms: C_2  and  C_3 
REMARK    2  A    between atoms: C_3  and  O_6 
REMARK    3  A    between atoms: C_3  and  C_4 
REMARK    4  A    between atoms: C_7  and  O_6 
REMARK    5  A    between atoms: C_9  and  C_10 
REMARK    6  A    between atoms: N_15  and  C_14 
REMARK    7  A    between atoms: N_20  and  C_19 
REMARK       I    between atoms: C_22  and  N_20 
ROOT
ATOM      1  C   LIG d   1      -1.456  76.265 115.870  0.00  0.00     0.161 C 
ATOM      2  C   LIG d   1      -2.706  75.674 115.617  0.00  0.00     0.016 C 
ATOM      3  C   LIG d   1      -3.399  75.814 114.393  0.00  0.00     0.038 C 
ATOM      4  C   LIG d   1      -2.816  76.433 113.277  0.00  0.00     0.028 C 
ATOM      5  C   LIG d   1      -1.768  77.479 113.643  0.00  0.00    -0.047 C 
ATOM      6  C   LIG d   1      -0.755  76.851 114.627  0.00  0.00     0.091 C 
ENDROOT
BRANCH   1   7
ATOM      7  O   LIG d   1      -0.594  75.319 116.532  0.00  0.00    -0.368 OA
BRANCH   7   8
ATOM      8  C   LIG d   1      -1.095  73.963 116.636  0.00  0.00     0.119 C 
BRANCH   8   9
ATOM      9  C   LIG d   1      -1.206  73.625 118.136  0.00  0.00     0.028 C 
ATOM     10  C   LIG d   1      -0.298  72.452 118.541  0.00  0.00     0.006 C 
ENDBRANCH   8   9
BRANCH   8  11
ATOM     11  C   LIG d   1      -0.095  72.954 116.066  0.00  0.00     0.028 C 
ATOM     12  C   LIG d   1       0.141  73.136 114.558  0.00  0.00     0.006 C 
ENDBRANCH   8  11
ENDBRANCH   7   8
ENDBRANCH   1   7
BRANCH   6  13
ATOM     13  N   LIG d   1       0.257  77.831 115.102  0.00  0.00    -0.311 N 
ATOM     14  C   LIG d   1      -0.059  79.000 115.656  0.00  0.00     0.210 C 
ATOM     15  C   LIG d   1       1.136  79.870 116.057  0.00  0.00     0.109 C 
ATOM     16  O   LIG d   1      -1.216  79.386 115.883  0.00  0.00    -0.276 OA
ATOM     17  H   LIG d   1       1.220  77.585 114.985  0.00  0.00     0.149 HD
ENDBRANCH   6  13
BRANCH   5  18
ATOM     18  N   LIG d   1      -1.146  77.944 112.390  0.00  0.00     0.381 N 
ATOM     19  H   LIG d   1      -1.131  77.200 111.722  0.00  0.00    -0.090 HD
ATOM     20  H   LIG d   1      -0.197  78.216 112.579  0.00  0.00    -0.090 HD
ATOM     21  H   LIG d   1      -1.654  78.719 112.023  0.00  0.00    -0.090 HD
ENDBRANCH   5  18
BRANCH   3  22
ATOM     22  C   LIG d   1      -4.707  75.365 114.288  0.00  0.00     0.382 C 
ATOM     23  O   LIG d   1      -4.942  74.137 114.195  0.00  0.00    -0.241 OA
ATOM     24  O   LIG d   1      -5.651  76.176 114.242  0.00  0.00    -0.241 OA
ENDBRANCH   3  22
TORSDOF 7
ENDMDL
MODEL 9
REMARK VINA RESULT:      -4.5     11.092     13.448
REMARK  7 active torsions:
REMARK  status: ('A' for Active; 'I' for Inactive)
REMARK    1  A    between atoms: C_2  and  C_3 
REMARK    2  A    between atoms: C_3  and  O_6 
REMARK    3  A    between atoms: C_3  and  C_4 
REMARK    4  A    between atoms: C_7  and  O_6 
REMARK    5  A    between atoms: C_9  and  C_10 
REMARK    6  A    between atoms: N_15  and  C_14 
REMARK    7  A    between atoms: N_20  and  C_19 
REMARK       I    between atoms: C_22  and  N_20 
ROOT
ATOM      1  C   LIG d   1       2.733  86.025 115.460  0.00  0.00     0.161 C 
ATOM      2  C   LIG d   1       3.448  87.220 115.278  0.00  0.00     0.016 C 
ATOM      3  C   LIG d   1       4.068  87.578 114.059  0.00  0.00     0.038 C 
ATOM      4  C   LIG d   1       3.886  86.830 112.887  0.00  0.00     0.028 C 
ATOM      5  C   LIG d   1       3.592  85.357 113.148  0.00  0.00    -0.047 C 
ATOM      6  C   LIG d   1       2.430  85.249 114.161  0.00  0.00     0.091 C 
ENDROOT
BRANCH   1   7
ATOM      7  O   LIG d   1       1.514  86.289 116.182  0.00  0.00    -0.368 OA
BRANCH   7   8
ATOM      8  C   LIG d   1       1.637  87.133 117.353  0.00  0.00     0.119 C 
BRANCH   8   9
ATOM      9  C   LIG d   1       1.957  86.218 118.551  0.00  0.00     0.028 C 
ATOM     10  C   LIG d   1       1.169  84.898 118.508  0.00  0.00     0.006 C 
ENDBRANCH   8   9
BRANCH   8  11
ATOM     11  C   LIG d   1       0.305  87.804 117.700  0.00  0.00     0.028 C 
ATOM     12  C   LIG d   1       0.388  89.338 117.681  0.00  0.00     0.006 C 
ENDBRANCH   8  11
ENDBRANCH   7   8
ENDBRANCH   1   7
BRANCH   6  13
ATOM     13  N   LIG d   1       2.134  83.842 114.537  0.00  0.00    -0.311 N 
ATOM     14  C   LIG d   1       3.011  83.045 115.145  0.00  0.00     0.210 C 
ATOM     15  C   LIG d   1       2.510  81.625 115.424  0.00  0.00     0.109 C 
ATOM     16  O   LIG d   1       4.145  83.390 115.510  0.00  0.00    -0.276 OA
ATOM     17  H   LIG d   1       1.225  83.489 114.306  0.00  0.00     0.149 HD
ENDBRANCH   6  13
BRANCH   5  18
ATOM     18  N   LIG d   1       3.288  84.726 111.850  0.00  0.00     0.381 N 
ATOM     19  H   LIG d   1       2.427  85.087 111.491  0.00  0.00    -0.090 HD
ATOM     20  H   LIG d   1       3.183  83.736 111.986  0.00  0.00    -0.090 HD
ATOM     21  H   LIG d   1       4.025  84.903 111.203  0.00  0.00    -0.090 HD
ENDBRANCH   5  18
BRANCH   3  22
ATOM     22  C   LIG d   1       4.914  88.676 114.015  0.00  0.00     0.382 C 
ATOM     23  O   LIG d   1       5.688  88.910 114.975  0.00  0.00    -0.241 OA
ATOM     24  O   LIG d   1       4.882  89.460 113.048  0.00  0.00    -0.241 OA
ENDBRANCH   3  22
TORSDOF 7
ENDMDL
