MODEL 1
REMARK VINA RESULT:      -5.2      0.000      0.000
REMARK  7 active torsions:
REMARK  status: ('A' for Active; 'I' for Inactive)
REMARK    1  A    between atoms: C_2  and  C_3 
REMARK    2  A    between atoms: C_3  and  O_6 
REMARK    3  A    between atoms: C_3  and  C_4 
REMARK    4  A    between atoms: C_7  and  O_6 
REMARK    5  A    between atoms: C_9  and  C_10 
REMARK    6  A    between atoms: N_15  and  C_14 
REMARK    7  A    between atoms: N_20  and  C_19 
REMARK       I    between atoms: C_22  and  N_20 
ROOT
ATOM      1  C   LIG d   1      -2.552  79.973 114.627  0.00  0.00     0.161 C 
ATOM      2  C   LIG d   1      -2.033  81.094 113.959  0.00  0.00     0.016 C 
ATOM      3  C   LIG d   1      -1.446  81.032 112.674  0.00  0.00     0.038 C 
ATOM      4  C   LIG d   1      -1.475  79.862 111.901  0.00  0.00     0.028 C 
ATOM      5  C   LIG d   1      -1.536  78.587 112.735  0.00  0.00    -0.047 C 
ATOM      6  C   LIG d   1      -2.693  78.708 113.754  0.00  0.00     0.091 C 
ENDROOT
BRANCH   1   7
ATOM      7  O   LIG d   1      -3.816  80.307 115.233  0.00  0.00    -0.368 OA
BRANCH   7   8
ATOM      8  C   LIG d   1      -3.839  80.343 116.681  0.00  0.00     0.119 C 
BRANCH   8   9
ATOM      9  C   LIG d   1      -5.025  79.476 117.147  0.00  0.00     0.028 C 
ATOM     10  C   LIG d   1      -6.047  80.275 117.973  0.00  0.00     0.006 C 
ENDBRANCH   8   9
BRANCH   8  11
ATOM     11  C   LIG d   1      -4.139  81.753 117.198  0.00  0.00     0.028 C 
ATOM     12  C   LIG d   1      -2.874  82.511 117.630  0.00  0.00     0.006 C 
ENDBRANCH   8  11
ENDBRANCH   7   8
ENDBRANCH   1   7
BRANCH   6  13
ATOM     13  N   LIG d   1      -2.770  77.538 114.666  0.00  0.00    -0.311 N 
ATOM     14  C   LIG d   1      -3.783  76.674 114.667  0.00  0.00     0.210 C 
ATOM     15  C   LIG d   1      -3.674  75.550 115.702  0.00  0.00     0.109 C 
ATOM     16  O   LIG d   1      -4.746  76.713 113.886  0.00  0.00    -0.276 OA
ATOM     17  H   LIG d   1      -2.015  77.412 115.312  0.00  0.00     0.149 HD
ENDBRANCH   6  13
BRANCH   5  18
ATOM     18  N   LIG d   1      -1.701  77.453 111.805  0.00  0.00     0.381 N 
ATOM     19  H   LIG d   1      -0.859  76.914 111.776  0.00  0.00    -0.090 HD
ATOM     20  H   LIG d   1      -1.878  77.812 110.884  0.00  0.00    -0.090 HD
ATOM     21  H   LIG d   1      -2.462  76.880 112.098  0.00  0.00    -0.090 HD
ENDBRANCH   5  18
BRANCH   3  22
ATOM     22  C   LIG d   1      -0.786  82.140 112.166  0.00  0.00     0.382 C 
ATOM     23  O   LIG d   1      -1.427  83.185 111.900  0.00  0.00    -0.241 OA
ATOM     24  O   LIG d   1       0.436  82.094 111.928  0.00  0.00    -0.241 OA
ENDBRANCH   3  22
TORSDOF 7
ENDMDL
MODEL 2
REMARK VINA RESULT:      -4.9     11.355     12.657
REMARK  7 active torsions:
REMARK  status: ('A' for Active; 'I' for Inactive)
REMARK    1  A    between atoms: C_2  and  C_3 
REMARK    2  A    between atoms: C_3  and  O_6 
REMARK    3  A    between atoms: C_3  and  C_4 
REMARK    4  A    between atoms: C_7  and  O_6 
REMARK    5  A    between atoms: C_9  and  C_10 
REMARK    6  A    between atoms: N_15  and  C_14 
REMARK    7  A    between atoms: N_20  and  C_19 
REMARK       I    between atoms: C_22  and  N_20 
ROOT
ATOM      1  C   LIG d   1       9.800  79.339 115.526  0.00  0.00     0.161 C 
ATOM      2  C   LIG d   1      10.937  79.521 114.722  0.00  0.00     0.016 C 
ATOM      3  C   LIG d   1      11.443  78.527 113.853  0.00  0.00     0.038 C 
ATOM      4  C   LIG d   1      10.753  77.329 113.616  0.00  0.00     0.028 C 
ATOM      5  C   LIG d   1       9.873  76.895 114.783  0.00  0.00    -0.047 C 
ATOM      6  C   LIG d   1       8.970  78.080 115.198  0.00  0.00     0.091 C 
ENDROOT
BRANCH   1   7
ATOM      7  O   LIG d   1       8.968  80.515 115.471  0.00  0.00    -0.368 OA
BRANCH   7   8
ATOM      8  C   LIG d   1       9.440  81.665 116.216  0.00  0.00     0.119 C 
BRANCH   8   9
ATOM      9  C   LIG d   1       9.539  81.248 117.696  0.00  0.00     0.028 C 
ATOM     10  C   LIG d   1       8.158  81.033 118.339  0.00  0.00     0.006 C 
ENDBRANCH   8   9
BRANCH   8  11
ATOM     11  C   LIG d   1       8.419  82.807 116.183  0.00  0.00     0.028 C 
ATOM     12  C   LIG d   1       9.044  84.174 116.503  0.00  0.00     0.006 C 
ENDBRANCH   8  11
ENDBRANCH   7   8
ENDBRANCH   1   7
BRANCH   6  13
ATOM     13  N   LIG d   1       8.137  77.767 116.388  0.00  0.00    -0.311 N 
ATOM     14  C   LIG d   1       6.904  77.270 116.309  0.00  0.00     0.210 C 
ATOM     15  C   LIG d   1       6.212  77.039 117.657  0.00  0.00     0.109 C 
ATOM     16  O   LIG d   1       6.329  76.967 115.253  0.00  0.00    -0.276 OA
ATOM     17  H   LIG d   1       8.537  77.953 117.287  0.00  0.00     0.149 HD
ENDBRANCH   6  13
BRANCH   5  18
ATOM     18  N   LIG d   1       9.108  75.711 114.349  0.00  0.00     0.381 N 
ATOM     19  H   LIG d   1       9.308  75.512 113.389  0.00  0.00    -0.090 HD
ATOM     20  H   LIG d   1       8.127  75.909 114.432  0.00  0.00    -0.090 HD
ATOM     21  H   LIG d   1       9.346  74.926 114.914  0.00  0.00    -0.090 HD
ENDBRANCH   5  18
BRANCH   3  22
ATOM     22  C   LIG d   1      12.673  78.711 113.241  0.00  0.00     0.382 C 
ATOM     23  O   LIG d   1      13.680  78.091 113.658  0.00  0.00    -0.241 OA
ATOM     24  O   LIG d   1      12.798  79.524 112.305  0.00  0.00    -0.241 OA
ENDBRANCH   3  22
TORSDOF 7
ENDMDL
MODEL 3
REMARK VINA RESULT:      -4.9      2.842      4.638
REMARK  7 active torsions:
REMARK  status: ('A' for Active; 'I' for Inactive)
REMARK    1  A    between atoms: C_2  and  C_3 
REMARK    2  A    between atoms: C_3  and  O_6 
REMARK    3  A    between atoms: C_3  and  C_4 
REMARK    4  A    between atoms: C_7  and  O_6 
REMARK    5  A    between atoms: C_9  and  C_10 
REMARK    6  A    between atoms: N_15  and  C_14 
REMARK    7  A    between atoms: N_20  and  C_19 
REMARK       I    between atoms: C_22  and  N_20 
ROOT
ATOM      1  C   LIG d   1      -3.337  77.074 115.510  0.00  0.00     0.161 C 
ATOM      2  C   LIG d   1      -3.454  78.324 114.880  0.00  0.00     0.016 C 
ATOM      3  C   LIG d   1      -2.364  79.206 114.693  0.00  0.00     0.038 C 
ATOM      4  C   LIG d   1      -1.046  78.829 114.990  0.00  0.00     0.028 C 
ATOM      5  C   LIG d   1      -0.950  77.777 116.091  0.00  0.00    -0.047 C 
ATOM      6  C   LIG d   1      -1.888  76.599 115.741  0.00  0.00     0.091 C 
ENDROOT
BRANCH   1   7
ATOM      7  O   LIG d   1      -4.078  76.083 114.770  0.00  0.00    -0.368 OA
BRANCH   7   8
ATOM      8  C   LIG d   1      -5.239  75.528 115.434  0.00  0.00     0.119 C 
BRANCH   8   9
ATOM      9  C   LIG d   1      -5.165  73.995 115.293  0.00  0.00     0.028 C 
ATOM     10  C   LIG d   1      -5.438  73.270 116.622  0.00  0.00     0.006 C 
ENDBRANCH   8   9
BRANCH   8  11
ATOM     11  C   LIG d   1      -6.535  75.937 114.726  0.00  0.00     0.028 C 
ATOM     12  C   LIG d   1      -7.744  75.979 115.674  0.00  0.00     0.006 C 
ENDBRANCH   8  11
ENDBRANCH   7   8
ENDBRANCH   1   7
BRANCH   6  13
ATOM     13  N   LIG d   1      -1.918  75.564 116.807  0.00  0.00    -0.311 N 
ATOM     14  C   LIG d   1      -1.634  74.281 116.591  0.00  0.00     0.210 C 
ATOM     15  C   LIG d   1      -1.745  73.377 117.824  0.00  0.00     0.109 C 
ATOM     16  O   LIG d   1      -1.268  73.810 115.504  0.00  0.00    -0.276 OA
ATOM     17  H   LIG d   1      -2.175  75.864 117.727  0.00  0.00     0.149 HD
ENDBRANCH   6  13
BRANCH   5  18
ATOM     18  N   LIG d   1       0.465  77.377 116.203  0.00  0.00     0.381 N 
ATOM     19  H   LIG d   1       0.634  76.979 117.105  0.00  0.00    -0.090 HD
ATOM     20  H   LIG d   1       1.042  78.193 116.105  0.00  0.00    -0.090 HD
ATOM     21  H   LIG d   1       0.689  76.715 115.492  0.00  0.00    -0.090 HD
ENDBRANCH   5  18
BRANCH   3  22
ATOM     22  C   LIG d   1      -2.594  80.496 114.240  0.00  0.00     0.382 C 
ATOM     23  O   LIG d   1      -1.980  81.461 114.756  0.00  0.00    -0.241 OA
ATOM     24  O   LIG d   1      -3.440  80.712 113.351  0.00  0.00    -0.241 OA
ENDBRANCH   3  22
TORSDOF 7
ENDMDL
MODEL 4
REMARK VINA RESULT:      -4.9      2.851      3.731
REMARK  7 active torsions:
REMARK  status: ('A' for Active; 'I' for Inactive)
REMARK    1  A    between atoms: C_2  and  C_3 
REMARK    2  A    between atoms: C_3  and  O_6 
REMARK    3  A    between atoms: C_3  and  C_4 
REMARK    4  A    between atoms: C_7  and  O_6 
REMARK    5  A    between atoms: C_9  and  C_10 
REMARK    6  A    between atoms: N_15  and  C_14 
REMARK    7  A    between atoms: N_20  and  C_19 
REMARK       I    between atoms: C_22  and  N_20 
ROOT
ATOM      1  C   LIG d   1      -0.548  80.851 115.767  0.00  0.00     0.161 C 
ATOM      2  C   LIG d   1      -1.337  81.604 114.881  0.00  0.00     0.016 C 
ATOM      3  C   LIG d   1      -2.103  81.029 113.841  0.00  0.00     0.038 C 
ATOM      4  C   LIG d   1      -2.253  79.640 113.711  0.00  0.00     0.028 C 
ATOM      5  C   LIG d   1      -1.075  78.849 114.269  0.00  0.00    -0.047 C 
ATOM      6  C   LIG d   1      -0.786  79.327 115.710  0.00  0.00     0.091 C 
ENDROOT
BRANCH   1   7
ATOM      7  O   LIG d   1      -0.726  81.336 117.113  0.00  0.00    -0.368 OA
BRANCH   7   8
ATOM      8  C   LIG d   1      -1.398  82.613 117.246  0.00  0.00     0.119 C 
BRANCH   8   9
ATOM      9  C   LIG d   1      -0.441  83.563 117.992  0.00  0.00     0.028 C 
ATOM     10  C   LIG d   1       0.665  84.118 117.078  0.00  0.00     0.006 C 
ENDBRANCH   8   9
BRANCH   8  11
ATOM     11  C   LIG d   1      -2.636  82.500 118.141  0.00  0.00     0.028 C 
ATOM     12  C   LIG d   1      -3.933  82.307 117.340  0.00  0.00     0.006 C 
ENDBRANCH   8  11
ENDBRANCH   7   8
ENDBRANCH   1   7
BRANCH   6  13
ATOM     13  N   LIG d   1       0.405  78.663 116.300  0.00  0.00    -0.311 N 
ATOM     14  C   LIG d   1       0.338  77.555 117.036  0.00  0.00     0.210 C 
ATOM     15  C   LIG d   1       1.683  77.047 117.564  0.00  0.00     0.109 C 
ATOM     16  O   LIG d   1      -0.704  76.926 117.274  0.00  0.00    -0.276 OA
ATOM     17  H   LIG d   1       1.295  79.089 116.130  0.00  0.00     0.149 HD
ENDBRANCH   6  13
BRANCH   5  18
ATOM     18  N   LIG d   1      -1.423  77.418 114.193  0.00  0.00     0.381 N 
ATOM     19  H   LIG d   1      -2.353  77.314 113.838  0.00  0.00    -0.090 HD
ATOM     20  H   LIG d   1      -1.393  77.027 115.118  0.00  0.00    -0.090 HD
ATOM     21  H   LIG d   1      -0.779  76.940 113.602  0.00  0.00    -0.090 HD
ENDBRANCH   5  18
BRANCH   3  22
ATOM     22  C   LIG d   1      -2.698  81.847 112.894  0.00  0.00     0.382 C 
ATOM     23  O   LIG d   1      -3.936  81.781 112.696  0.00  0.00    -0.241 OA
ATOM     24  O   LIG d   1      -2.007  82.620 112.202  0.00  0.00    -0.241 OA
ENDBRANCH   3  22
TORSDOF 7
ENDMDL
MODEL 5
REMARK VINA RESULT:      -4.9     12.300     13.921
REMARK  7 active torsions:
REMARK  status: ('A' for Active; 'I' for Inactive)
REMARK    1  A    between atoms: C_2  and  C_3 
REMARK    2  A    between atoms: C_3  and  O_6 
REMARK    3  A    between atoms: C_3  and  C_4 
REMARK    4  A    between atoms: C_7  and  O_6 
REMARK    5  A    between atoms: C_9  and  C_10 
REMARK    6  A    between atoms: N_15  and  C_14 
REMARK    7  A    between atoms: N_20  and  C_19 
REMARK       I    between atoms: C_22  and  N_20 
ROOT
ATOM      1  C   LIG d   1       9.863  77.021 114.041  0.00  0.00     0.161 C 
ATOM      2  C   LIG d   1      11.045  77.540 113.486  0.00  0.00     0.016 C 
ATOM      3  C   LIG d   1      11.579  78.802 113.834  0.00  0.00     0.038 C 
ATOM      4  C   LIG d   1      11.045  79.570 114.879  0.00  0.00     0.028 C 
ATOM      5  C   LIG d   1       9.561  79.317 115.120  0.00  0.00    -0.047 C 
ATOM      6  C   LIG d   1       9.328  77.796 115.263  0.00  0.00     0.091 C 
ENDROOT
BRANCH   1   7
ATOM      7  O   LIG d   1      10.048  75.630 114.371  0.00  0.00    -0.368 OA
BRANCH   7   8
ATOM      8  C   LIG d   1      11.249  75.306 115.114  0.00  0.00     0.119 C 
BRANCH   8   9
ATOM      9  C   LIG d   1      11.783  73.967 114.569  0.00  0.00     0.028 C 
ATOM     10  C   LIG d   1      11.076  72.754 115.196  0.00  0.00     0.006 C 
ENDBRANCH   8   9
BRANCH   8  11
ATOM     11  C   LIG d   1      10.937  75.046 116.591  0.00  0.00     0.028 C 
ATOM     12  C   LIG d   1      11.604  76.065 117.529  0.00  0.00     0.006 C 
ENDBRANCH   8  11
ENDBRANCH   7   8
ENDBRANCH   1   7
BRANCH   6  13
ATOM     13  N   LIG d   1       7.889  77.455 115.417  0.00  0.00    -0.311 N 
ATOM     14  C   LIG d   1       7.319  77.196 116.592  0.00  0.00     0.210 C 
ATOM     15  C   LIG d   1       5.829  76.847 116.525  0.00  0.00     0.109 C 
ATOM     16  O   LIG d   1       7.898  77.254 117.687  0.00  0.00    -0.276 OA
ATOM     17  H   LIG d   1       7.338  77.416 114.582  0.00  0.00     0.149 HD
ENDBRANCH   6  13
BRANCH   5  18
ATOM     18  N   LIG d   1       9.168  80.078 116.321  0.00  0.00     0.381 N 
ATOM     19  H   LIG d   1       9.138  79.468 117.113  0.00  0.00    -0.090 HD
ATOM     20  H   LIG d   1       8.248  80.457 116.180  0.00  0.00    -0.090 HD
ATOM     21  H   LIG d   1       9.817  80.816 116.485  0.00  0.00    -0.090 HD
ENDBRANCH   5  18
BRANCH   3  22
ATOM     22  C   LIG d   1      12.637  79.325 113.106  0.00  0.00     0.382 C 
ATOM     23  O   LIG d   1      13.593  79.880 113.699  0.00  0.00    -0.241 OA
ATOM     24  O   LIG d   1      12.626  79.288 111.861  0.00  0.00    -0.241 OA
ENDBRANCH   3  22
TORSDOF 7
ENDMDL
MODEL 6
REMARK VINA RESULT:      -4.9     12.148     14.545
REMARK  7 active torsions:
REMARK  status: ('A' for Active; 'I' for Inactive)
REMARK    1  A    between atoms: C_2  and  C_3 
REMARK    2  A    between atoms: C_3  and  O_6 
REMARK    3  A    between atoms: C_3  and  C_4 
REMARK    4  A    between atoms: C_7  and  O_6 
REMARK    5  A    between atoms: C_9  and  C_10 
REMARK    6  A    between atoms: N_15  and  C_14 
REMARK    7  A    between atoms: N_20  and  C_19 
REMARK       I    between atoms: C_22  and  N_20 
ROOT
ATOM      1  C   LIG d   1      -4.965  93.237 117.537  0.00  0.00     0.161 C 
ATOM      2  C   LIG d   1      -5.336  94.463 118.113  0.00  0.00     0.016 C 
ATOM      3  C   LIG d   1      -6.570  95.103 117.854  0.00  0.00     0.038 C 
ATOM      4  C   LIG d   1      -7.586  94.481 117.114  0.00  0.00     0.028 C 
ATOM      5  C   LIG d   1      -7.064  93.469 116.100  0.00  0.00    -0.047 C 
ATOM      6  C   LIG d   1      -6.106  92.490 116.815  0.00  0.00     0.091 C 
ENDROOT
BRANCH   1   7
ATOM      7  O   LIG d   1      -4.365  92.389 118.537  0.00  0.00    -0.368 OA
BRANCH   7   8
ATOM      8  C   LIG d   1      -2.918  92.331 118.539  0.00  0.00     0.119 C 
BRANCH   8   9
ATOM      9  C   LIG d   1      -2.408  93.467 117.631  0.00  0.00     0.028 C 
ATOM     10  C   LIG d   1      -1.651  94.551 118.417  0.00  0.00     0.006 C 
ENDBRANCH   8   9
BRANCH   8  11
ATOM     11  C   LIG d   1      -2.411  91.038 117.893  0.00  0.00     0.028 C 
ATOM     12  C   LIG d   1      -0.944  91.130 117.446  0.00  0.00     0.006 C 
ENDBRANCH   8  11
ENDBRANCH   7   8
ENDBRANCH   1   7
BRANCH   6  13
ATOM     13  N   LIG d   1      -5.485  91.518 115.878  0.00  0.00    -0.311 N 
ATOM     14  C   LIG d   1      -6.050  90.360 115.542  0.00  0.00     0.210 C 
ATOM     15  C   LIG d   1      -5.232  89.497 114.577  0.00  0.00     0.109 C 
ATOM     16  O   LIG d   1      -7.167  89.980 115.926  0.00  0.00    -0.276 OA
ATOM     17  H   LIG d   1      -4.592  91.760 115.495  0.00  0.00     0.149 HD
ENDBRANCH   6  13
BRANCH   5  18
ATOM     18  N   LIG d   1      -8.232  92.798 115.498  0.00  0.00     0.381 N 
ATOM     19  H   LIG d   1      -8.667  92.203 116.175  0.00  0.00    -0.090 HD
ATOM     20  H   LIG d   1      -7.921  92.228 114.731  0.00  0.00    -0.090 HD
ATOM     21  H   LIG d   1      -8.885  93.477 115.173  0.00  0.00    -0.090 HD
ENDBRANCH   5  18
BRANCH   3  22
ATOM     22  C   LIG d   1      -6.781  96.397 118.305  0.00  0.00     0.382 C 
ATOM     23  O   LIG d   1      -7.950  96.838 118.420  0.00  0.00    -0.241 OA
ATOM     24  O   LIG d   1      -5.816  97.144 118.555  0.00  0.00    -0.241 OA
ENDBRANCH   3  22
TORSDOF 7
ENDMDL
MODEL 7
REMARK VINA RESULT:      -4.9      4.691      8.538
REMARK  7 active torsions:
REMARK  status: ('A' for Active; 'I' for Inactive)
REMARK    1  A    between atoms: C_2  and  C_3 
REMARK    2  A    between atoms: C_3  and  O_6 
REMARK    3  A    between atoms: C_3  and  C_4 
REMARK    4  A    between atoms: C_7  and  O_6 
REMARK    5  A    between atoms: C_9  and  C_10 
REMARK    6  A    between atoms: N_15  and  C_14 
REMARK    7  A    between atoms: N_20  and  C_19 
REMARK       I    between atoms: C_22  and  N_20 
ROOT
ATOM      1  C   LIG d   1      -5.335  74.414 118.415  0.00  0.00     0.161 C 
ATOM      2  C   LIG d   1      -5.629  73.064 118.159  0.00  0.00     0.016 C 
ATOM      3  C   LIG d   1      -6.595  72.643 117.217  0.00  0.00     0.038 C 
ATOM      4  C   LIG d   1      -7.230  73.547 116.352  0.00  0.00     0.028 C 
ATOM      5  C   LIG d   1      -7.335  74.958 116.921  0.00  0.00    -0.047 C 
ATOM      6  C   LIG d   1      -5.938  75.410 117.402  0.00  0.00     0.091 C 
ENDROOT
BRANCH   1   7
ATOM      7  O   LIG d   1      -3.908  74.594 118.506  0.00  0.00    -0.368 OA
BRANCH   7   8
ATOM      8  C   LIG d   1      -3.207  74.778 117.252  0.00  0.00     0.119 C 
BRANCH   8   9
ATOM      9  C   LIG d   1      -2.120  73.689 117.165  0.00  0.00     0.028 C 
ATOM     10  C   LIG d   1      -1.658  73.209 118.551  0.00  0.00     0.006 C 
ENDBRANCH   8   9
BRANCH   8  11
ATOM     11  C   LIG d   1      -2.450  76.109 117.226  0.00  0.00     0.028 C 
ATOM     12  C   LIG d   1      -2.133  76.587 115.800  0.00  0.00     0.006 C 
ENDBRANCH   8  11
ENDBRANCH   7   8
ENDBRANCH   1   7
BRANCH   6  13
ATOM     13  N   LIG d   1      -5.967  76.747 118.050  0.00  0.00    -0.311 N 
ATOM     14  C   LIG d   1      -5.734  77.884 117.396  0.00  0.00     0.210 C 
ATOM     15  C   LIG d   1      -5.794  79.149 118.257  0.00  0.00     0.109 C 
ATOM     16  O   LIG d   1      -5.516  77.967 116.178  0.00  0.00    -0.276 OA
ATOM     17  H   LIG d   1      -6.167  76.775 119.031  0.00  0.00     0.149 HD
ENDBRANCH   6  13
BRANCH   5  18
ATOM     18  N   LIG d   1      -7.891  75.824 115.864  0.00  0.00     0.381 N 
ATOM     19  H   LIG d   1      -7.276  75.833 115.075  0.00  0.00    -0.090 HD
ATOM     20  H   LIG d   1      -7.964  76.762 116.218  0.00  0.00    -0.090 HD
ATOM     21  H   LIG d   1      -8.790  75.493 115.590  0.00  0.00    -0.090 HD
ENDBRANCH   5  18
BRANCH   3  22
ATOM     22  C   LIG d   1      -6.964  71.308 117.161  0.00  0.00     0.382 C 
ATOM     23  O   LIG d   1      -6.136  70.444 116.782  0.00  0.00    -0.241 OA
ATOM     24  O   LIG d   1      -8.127  70.961 117.441  0.00  0.00    -0.241 OA
ENDBRANCH   3  22
TORSDOF 7
ENDMDL
MODEL 8
REMARK VINA RESULT:      -4.9      2.699      5.954
REMARK  7 active torsions:
REMARK  status: ('A' for Active; 'I' for Inactive)
REMARK    1  A    between atoms: C_2  and  C_3 
REMARK    2  A    between atoms: C_3  and  O_6 
REMARK    3  A    between atoms: C_3  and  C_4 
REMARK    4  A    between atoms: C_7  and  O_6 
REMARK    5  A    between atoms: C_9  and  C_10 
REMARK    6  A    between atoms: N_15  and  C_14 
REMARK    7  A    between atoms: N_20  and  C_19 
REMARK       I    between atoms: C_22  and  N_20 
ROOT
ATOM      1  C   LIG d   1      -3.777  76.526 114.941  0.00  0.00     0.161 C 
ATOM      2  C   LIG d   1      -3.738  75.363 115.728  0.00  0.00     0.016 C 
ATOM      3  C   LIG d   1      -2.635  75.008 116.538  0.00  0.00     0.038 C 
ATOM      4  C   LIG d   1      -1.549  75.875 116.733  0.00  0.00     0.028 C 
ATOM      5  C   LIG d   1      -1.318  76.828 115.566  0.00  0.00    -0.047 C 
ATOM      6  C   LIG d   1      -2.648  77.539 115.227  0.00  0.00     0.091 C 
ENDROOT
BRANCH   1   7
ATOM      7  O   LIG d   1      -5.064  77.161 115.071  0.00  0.00    -0.368 OA
BRANCH   7   8
ATOM      8  C   LIG d   1      -5.954  76.602 116.068  0.00  0.00     0.119 C 
BRANCH   8   9
ATOM      9  C   LIG d   1      -7.166  76.007 115.326  0.00  0.00     0.028 C 
ATOM     10  C   LIG d   1      -8.310  75.628 116.281  0.00  0.00     0.006 C 
ENDBRANCH   8   9
BRANCH   8  11
ATOM     11  C   LIG d   1      -6.529  77.692 116.976  0.00  0.00     0.028 C 
ATOM     12  C   LIG d   1      -5.512  78.798 117.298  0.00  0.00     0.006 C 
ENDBRANCH   8  11
ENDBRANCH   7   8
ENDBRANCH   1   7
BRANCH   6  13
ATOM     13  N   LIG d   1      -2.531  78.427 114.041  0.00  0.00    -0.311 N 
ATOM     14  C   LIG d   1      -2.933  79.697 114.034  0.00  0.00     0.210 C 
ATOM     15  C   LIG d   1      -2.738  80.429 112.703  0.00  0.00     0.109 C 
ATOM     16  O   LIG d   1      -3.402  80.296 115.014  0.00  0.00    -0.276 OA
ATOM     17  H   LIG d   1      -2.132  78.032 113.213  0.00  0.00     0.149 HD
ENDBRANCH   6  13
BRANCH   5  18
ATOM     18  N   LIG d   1      -0.247  77.764 115.959  0.00  0.00     0.381 N 
ATOM     19  H   LIG d   1      -0.491  78.216 116.817  0.00  0.00    -0.090 HD
ATOM     20  H   LIG d   1      -0.152  78.467 115.248  0.00  0.00    -0.090 HD
ATOM     21  H   LIG d   1       0.613  77.272 116.068  0.00  0.00    -0.090 HD
ENDBRANCH   5  18
BRANCH   3  22
ATOM     22  C   LIG d   1      -2.593  73.756 117.132  0.00  0.00     0.382 C 
ATOM     23  O   LIG d   1      -3.641  73.247 117.596  0.00  0.00    -0.241 OA
ATOM     24  O   LIG d   1      -1.512  73.148 117.249  0.00  0.00    -0.241 OA
ENDBRANCH   3  22
TORSDOF 7
ENDMDL
MODEL 9
REMARK VINA RESULT:      -4.8      3.545      5.814
REMARK  7 active torsions:
REMARK  status: ('A' for Active; 'I' for Inactive)
REMARK    1  A    between atoms: C_2  and  C_3 
REMARK    2  A    between atoms: C_3  and  O_6 
REMARK    3  A    between atoms: C_3  and  C_4 
REMARK    4  A    between atoms: C_7  and  O_6 
REMARK    5  A    between atoms: C_9  and  C_10 
REMARK    6  A    between atoms: N_15  and  C_14 
REMARK    7  A    between atoms: N_20  and  C_19 
REMARK       I    between atoms: C_22  and  N_20 
ROOT
ATOM      1  C   LIG d   1      -0.222  82.993 114.409  0.00  0.00     0.161 C 
ATOM      2  C   LIG d   1      -1.478  82.398 114.210  0.00  0.00     0.016 C 
ATOM      3  C   LIG d   1      -1.706  81.350 113.288  0.00  0.00     0.038 C 
ATOM      4  C   LIG d   1      -0.653  80.719 112.608  0.00  0.00     0.028 C 
ATOM      5  C   LIG d   1       0.560  81.620 112.401  0.00  0.00    -0.047 C 
ATOM      6  C   LIG d   1       0.959  82.244 113.757  0.00  0.00     0.091 C 
ENDROOT
BRANCH   1   7
ATOM      7  O   LIG d   1       0.016  83.173 115.819  0.00  0.00    -0.368 OA
BRANCH   7   8
ATOM      8  C   LIG d   1      -0.679  82.260 116.704  0.00  0.00     0.119 C 
BRANCH   8   9
ATOM      9  C   LIG d   1      -1.145  83.068 117.930  0.00  0.00     0.028 C 
ATOM     10  C   LIG d   1      -0.267  84.304 118.187  0.00  0.00     0.006 C 
ENDBRANCH   8   9
BRANCH   8  11
ATOM     11  C   LIG d   1       0.268  81.192 117.258  0.00  0.00     0.028 C 
ATOM     12  C   LIG d   1      -0.037  79.786 116.718  0.00  0.00     0.006 C 
ENDBRANCH   8  11
ENDBRANCH   7   8
ENDBRANCH   1   7
BRANCH   6  13
ATOM     13  N   LIG d   1       2.086  83.205 113.629  0.00  0.00    -0.311 N 
ATOM     14  C   LIG d   1       1.985  84.372 112.996  0.00  0.00     0.210 C 
ATOM     15  C   LIG d   1       3.272  85.203 112.963  0.00  0.00     0.109 C 
ATOM     16  O   LIG d   1       0.944  84.813 112.486  0.00  0.00    -0.276 OA
ATOM     17  H   LIG d   1       2.960  82.941 114.041  0.00  0.00     0.149 HD
ENDBRANCH   6  13
BRANCH   5  18
ATOM     18  N   LIG d   1       1.629  80.797 111.805  0.00  0.00     0.381 N 
ATOM     19  H   LIG d   1       2.506  81.272 111.885  0.00  0.00    -0.090 HD
ATOM     20  H   LIG d   1       1.431  80.663 110.829  0.00  0.00    -0.090 HD
ATOM     21  H   LIG d   1       1.678  79.915 112.266  0.00  0.00    -0.090 HD
ENDBRANCH   5  18
BRANCH   3  22
ATOM     22  C   LIG d   1      -3.004  80.949 113.010  0.00  0.00     0.382 C 
ATOM     23  O   LIG d   1      -3.310  79.734 113.065  0.00  0.00    -0.241 OA
ATOM     24  O   LIG d   1      -3.861  81.782 112.662  0.00  0.00    -0.241 OA
ENDBRANCH   3  22
TORSDOF 7
ENDMDL
