MODEL 1
REMARK VINA RESULT:      -4.9      0.000      0.000
REMARK  7 active torsions:
REMARK  status: ('A' for Active; 'I' for Inactive)
REMARK    1  A    between atoms: C_2  and  C_3 
REMARK    2  A    between atoms: C_3  and  O_6 
REMARK    3  A    between atoms: C_3  and  C_4 
REMARK    4  A    between atoms: C_7  and  O_6 
REMARK    5  A    between atoms: C_9  and  C_10 
REMARK    6  A    between atoms: N_15  and  C_14 
REMARK    7  A    between atoms: N_20  and  C_19 
REMARK       I    between atoms: C_22  and  N_20 
ROOT
ATOM      1  C   LIG d   1       3.012  86.268 115.187  0.00  0.00     0.161 C 
ATOM      2  C   LIG d   1       3.525  87.457 114.643  0.00  0.00     0.016 C 
ATOM      3  C   LIG d   1       3.857  87.608 113.277  0.00  0.00     0.038 C 
ATOM      4  C   LIG d   1       3.553  86.621 112.327  0.00  0.00     0.028 C 
ATOM      5  C   LIG d   1       3.499  85.214 112.912  0.00  0.00    -0.047 C 
ATOM      6  C   LIG d   1       2.570  85.218 114.147  0.00  0.00     0.091 C 
ENDROOT
BRANCH   1   7
ATOM      7  O   LIG d   1       1.926  86.571 116.086  0.00  0.00    -0.368 OA
BRANCH   7   8
ATOM      8  C   LIG d   1       0.786  87.250 115.502  0.00  0.00     0.119 C 
BRANCH   8   9
ATOM      9  C   LIG d   1       0.363  88.366 116.477  0.00  0.00     0.028 C 
ATOM     10  C   LIG d   1       1.254  89.614 116.361  0.00  0.00     0.006 C 
ENDBRANCH   8   9
BRANCH   8  11
ATOM     11  C   LIG d   1      -0.426  86.318 115.402  0.00  0.00     0.028 C 
ATOM     12  C   LIG d   1      -0.925  86.144 113.959  0.00  0.00     0.006 C 
ENDBRANCH   8  11
ENDBRANCH   7   8
ENDBRANCH   1   7
BRANCH   6  13
ATOM     13  N   LIG d   1       2.527  83.899 114.829  0.00  0.00    -0.311 N 
ATOM     14  C   LIG d   1       1.597  82.977 114.585  0.00  0.00     0.210 C 
ATOM     15  C   LIG d   1       1.726  81.694 115.412  0.00  0.00     0.109 C 
ATOM     16  O   LIG d   1       0.697  83.087 113.738  0.00  0.00    -0.276 OA
ATOM     17  H   LIG d   1       3.238  83.713 115.509  0.00  0.00     0.149 HD
ENDBRANCH   6  13
BRANCH   5  18
ATOM     18  N   LIG d   1       3.039  84.305 111.845  0.00  0.00     0.381 N 
ATOM     19  H   LIG d   1       3.797  84.099 111.224  0.00  0.00    -0.090 HD
ATOM     20  H   LIG d   1       2.316  84.763 111.318  0.00  0.00    -0.090 HD
ATOM     21  H   LIG d   1       2.688  83.462 112.242  0.00  0.00    -0.090 HD
ENDBRANCH   5  18
BRANCH   3  22
ATOM     22  C   LIG d   1       4.536  88.741 112.856  0.00  0.00     0.382 C 
ATOM     23  O   LIG d   1       4.014  89.873 112.997  0.00  0.00    -0.241 OA
ATOM     24  O   LIG d   1       5.644  88.642 112.296  0.00  0.00    -0.241 OA
ENDBRANCH   3  22
TORSDOF 7
ENDMDL
MODEL 2
REMARK VINA RESULT:      -4.8     25.341     27.887
REMARK  7 active torsions:
REMARK  status: ('A' for Active; 'I' for Inactive)
REMARK    1  A    between atoms: C_2  and  C_3 
REMARK    2  A    between atoms: C_3  and  O_6 
REMARK    3  A    between atoms: C_3  and  C_4 
REMARK    4  A    between atoms: C_7  and  O_6 
REMARK    5  A    between atoms: C_9  and  C_10 
REMARK    6  A    between atoms: N_15  and  C_14 
REMARK    7  A    between atoms: N_20  and  C_19 
REMARK       I    between atoms: C_22  and  N_20 
ROOT
ATOM      1  C   LIG d   1     -25.551  84.995 113.408  0.00  0.00     0.161 C 
ATOM      2  C   LIG d   1     -24.469  85.891 113.438  0.00  0.00     0.016 C 
ATOM      3  C   LIG d   1     -23.128  85.485 113.633  0.00  0.00     0.038 C 
ATOM      4  C   LIG d   1     -22.760  84.132 113.661  0.00  0.00     0.028 C 
ATOM      5  C   LIG d   1     -23.875  83.210 114.140  0.00  0.00    -0.047 C 
ATOM      6  C   LIG d   1     -25.156  83.506 113.326  0.00  0.00     0.091 C 
ENDROOT
BRANCH   1   7
ATOM      7  O   LIG d   1     -26.440  85.338 112.327  0.00  0.00    -0.368 OA
BRANCH   7   8
ATOM      8  C   LIG d   1     -27.331  86.456 112.564  0.00  0.00     0.119 C 
BRANCH   8   9
ATOM      9  C   LIG d   1     -28.701  86.091 111.961  0.00  0.00     0.028 C 
ATOM     10  C   LIG d   1     -28.923  84.571 111.884  0.00  0.00     0.006 C 
ENDBRANCH   8   9
BRANCH   8  11
ATOM     11  C   LIG d   1     -26.873  87.704 111.805  0.00  0.00     0.028 C 
ATOM     12  C   LIG d   1     -27.018  88.991 112.633  0.00  0.00     0.006 C 
ENDBRANCH   8  11
ENDBRANCH   7   8
ENDBRANCH   1   7
BRANCH   6  13
ATOM     13  N   LIG d   1     -26.319  82.705 113.789  0.00  0.00    -0.311 N 
ATOM     14  C   LIG d   1     -26.866  81.724 113.072  0.00  0.00     0.210 C 
ATOM     15  C   LIG d   1     -28.070  81.040 113.726  0.00  0.00     0.109 C 
ATOM     16  O   LIG d   1     -26.447  81.334 111.972  0.00  0.00    -0.276 OA
ATOM     17  H   LIG d   1     -26.703  82.934 114.685  0.00  0.00     0.149 HD
ENDBRANCH   6  13
BRANCH   5  18
ATOM     18  N   LIG d   1     -23.402  81.821 113.989  0.00  0.00     0.381 N 
ATOM     19  H   LIG d   1     -22.515  81.814 113.527  0.00  0.00    -0.090 HD
ATOM     20  H   LIG d   1     -24.057  81.314 113.421  0.00  0.00    -0.090 HD
ATOM     21  H   LIG d   1     -23.322  81.389 114.883  0.00  0.00    -0.090 HD
ENDBRANCH   5  18
BRANCH   3  22
ATOM     22  C   LIG d   1     -22.145  86.441 113.842  0.00  0.00     0.382 C 
ATOM     23  O   LIG d   1     -22.415  87.489 114.477  0.00  0.00    -0.241 OA
ATOM     24  O   LIG d   1     -21.005  86.288 113.366  0.00  0.00    -0.241 OA
ENDBRANCH   3  22
TORSDOF 7
ENDMDL
MODEL 3
REMARK VINA RESULT:      -4.8      2.058      5.013
REMARK  7 active torsions:
REMARK  status: ('A' for Active; 'I' for Inactive)
REMARK    1  A    between atoms: C_2  and  C_3 
REMARK    2  A    between atoms: C_3  and  O_6 
REMARK    3  A    between atoms: C_3  and  C_4 
REMARK    4  A    between atoms: C_7  and  O_6 
REMARK    5  A    between atoms: C_9  and  C_10 
REMARK    6  A    between atoms: N_15  and  C_14 
REMARK    7  A    between atoms: N_20  and  C_19 
REMARK       I    between atoms: C_22  and  N_20 
ROOT
ATOM      1  C   LIG d   1       0.668  86.047 113.263  0.00  0.00     0.161 C 
ATOM      2  C   LIG d   1      -0.150  84.907 113.208  0.00  0.00     0.016 C 
ATOM      3  C   LIG d   1       0.325  83.624 112.850  0.00  0.00     0.038 C 
ATOM      4  C   LIG d   1       1.691  83.364 112.667  0.00  0.00     0.028 C 
ATOM      5  C   LIG d   1       2.486  84.586 112.219  0.00  0.00    -0.047 C 
ATOM      6  C   LIG d   1       2.182  85.761 113.176  0.00  0.00     0.091 C 
ENDROOT
BRANCH   1   7
ATOM      7  O   LIG d   1       0.370  86.806 114.452  0.00  0.00    -0.368 OA
BRANCH   7   8
ATOM      8  C   LIG d   1      -0.132  86.050 115.582  0.00  0.00     0.119 C 
BRANCH   8   9
ATOM      9  C   LIG d   1      -1.128  86.951 116.336  0.00  0.00     0.028 C 
ATOM     10  C   LIG d   1      -1.002  86.815 117.863  0.00  0.00     0.006 C 
ENDBRANCH   8   9
BRANCH   8  11
ATOM     11  C   LIG d   1       0.982  85.746 116.587  0.00  0.00     0.028 C 
ATOM     12  C   LIG d   1       1.414  84.271 116.570  0.00  0.00     0.006 C 
ENDBRANCH   8  11
ENDBRANCH   7   8
ENDBRANCH   1   7
BRANCH   6  13
ATOM     13  N   LIG d   1       2.854  87.020 112.759  0.00  0.00    -0.311 N 
ATOM     14  C   LIG d   1       3.692  87.697 113.542  0.00  0.00     0.210 C 
ATOM     15  C   LIG d   1       4.259  88.980 112.925  0.00  0.00     0.109 C 
ATOM     16  O   LIG d   1       4.045  87.341 114.676  0.00  0.00    -0.276 OA
ATOM     17  H   LIG d   1       2.648  87.365 111.842  0.00  0.00     0.149 HD
ENDBRANCH   6  13
BRANCH   5  18
ATOM     18  N   LIG d   1       3.912  84.209 112.200  0.00  0.00     0.381 N 
ATOM     19  H   LIG d   1       4.090  83.598 111.429  0.00  0.00    -0.090 HD
ATOM     20  H   LIG d   1       4.128  83.717 113.049  0.00  0.00    -0.090 HD
ATOM     21  H   LIG d   1       4.479  85.024 112.126  0.00  0.00    -0.090 HD
ENDBRANCH   5  18
BRANCH   3  22
ATOM     22  C   LIG d   1      -0.577  82.594 112.631  0.00  0.00     0.382 C 
ATOM     23  O   LIG d   1      -0.439  81.502 113.235  0.00  0.00    -0.241 OA
ATOM     24  O   LIG d   1      -1.499  82.726 111.805  0.00  0.00    -0.241 OA
ENDBRANCH   3  22
TORSDOF 7
ENDMDL
MODEL 4
REMARK VINA RESULT:      -4.8      2.469      3.925
REMARK  7 active torsions:
REMARK  status: ('A' for Active; 'I' for Inactive)
REMARK    1  A    between atoms: C_2  and  C_3 
REMARK    2  A    between atoms: C_3  and  O_6 
REMARK    3  A    between atoms: C_3  and  C_4 
REMARK    4  A    between atoms: C_7  and  O_6 
REMARK    5  A    between atoms: C_9  and  C_10 
REMARK    6  A    between atoms: N_15  and  C_14 
REMARK    7  A    between atoms: N_20  and  C_19 
REMARK       I    between atoms: C_22  and  N_20 
ROOT
ATOM      1  C   LIG d   1       2.749  84.895 113.686  0.00  0.00     0.161 C 
ATOM      2  C   LIG d   1       3.031  86.044 112.929  0.00  0.00     0.016 C 
ATOM      3  C   LIG d   1       3.700  87.175 113.451  0.00  0.00     0.038 C 
ATOM      4  C   LIG d   1       4.269  87.174 114.733  0.00  0.00     0.028 C 
ATOM      5  C   LIG d   1       3.571  86.228 115.705  0.00  0.00    -0.047 C 
ATOM      6  C   LIG d   1       3.461  84.831 115.054  0.00  0.00     0.091 C 
ENDROOT
BRANCH   1   7
ATOM      7  O   LIG d   1       3.044  83.716 112.912  0.00  0.00    -0.368 OA
BRANCH   7   8
ATOM      8  C   LIG d   1       1.919  83.094 112.244  0.00  0.00     0.119 C 
BRANCH   8   9
ATOM      9  C   LIG d   1       0.633  83.665 112.873  0.00  0.00     0.028 C 
ATOM     10  C   LIG d   1      -0.322  84.256 111.823  0.00  0.00     0.006 C 
ENDBRANCH   8   9
BRANCH   8  11
ATOM     11  C   LIG d   1       1.870  81.588 112.519  0.00  0.00     0.028 C 
ATOM     12  C   LIG d   1       1.296  81.253 113.905  0.00  0.00     0.006 C 
ENDBRANCH   8  11
ENDBRANCH   7   8
ENDBRANCH   1   7
BRANCH   6  13
ATOM     13  N   LIG d   1       2.715  83.867 115.904  0.00  0.00    -0.311 N 
ATOM     14  C   LIG d   1       3.309  82.987 116.708  0.00  0.00     0.210 C 
ATOM     15  C   LIG d   1       2.356  82.072 117.482  0.00  0.00     0.109 C 
ATOM     16  O   LIG d   1       4.535  82.899 116.879  0.00  0.00    -0.276 OA
ATOM     17  H   LIG d   1       1.716  83.890 115.851  0.00  0.00     0.149 HD
ENDBRANCH   6  13
BRANCH   5  18
ATOM     18  N   LIG d   1       4.350  86.223 116.958  0.00  0.00     0.381 N 
ATOM     19  H   LIG d   1       3.751  86.001 117.728  0.00  0.00    -0.090 HD
ATOM     20  H   LIG d   1       4.730  87.140 117.108  0.00  0.00    -0.090 HD
ATOM     21  H   LIG d   1       5.087  85.555 116.898  0.00  0.00    -0.090 HD
ENDBRANCH   5  18
BRANCH   3  22
ATOM     22  C   LIG d   1       3.768  88.340 112.701  0.00  0.00     0.382 C 
ATOM     23  O   LIG d   1       4.879  88.883 112.487  0.00  0.00    -0.241 OA
ATOM     24  O   LIG d   1       2.730  88.878 112.274  0.00  0.00    -0.241 OA
ENDBRANCH   3  22
TORSDOF 7
ENDMDL
MODEL 5
REMARK VINA RESULT:      -4.7      2.678      5.807
REMARK  7 active torsions:
REMARK  status: ('A' for Active; 'I' for Inactive)
REMARK    1  A    between atoms: C_2  and  C_3 
REMARK    2  A    between atoms: C_3  and  O_6 
REMARK    3  A    between atoms: C_3  and  C_4 
REMARK    4  A    between atoms: C_7  and  O_6 
REMARK    5  A    between atoms: C_9  and  C_10 
REMARK    6  A    between atoms: N_15  and  C_14 
REMARK    7  A    between atoms: N_20  and  C_19 
REMARK       I    between atoms: C_22  and  N_20 
ROOT
ATOM      1  C   LIG d   1       1.100  86.899 114.868  0.00  0.00     0.161 C 
ATOM      2  C   LIG d   1      -0.008  86.732 115.716  0.00  0.00     0.016 C 
ATOM      3  C   LIG d   1      -0.343  87.641 116.746  0.00  0.00     0.038 C 
ATOM      4  C   LIG d   1       0.324  88.866 116.900  0.00  0.00     0.028 C 
ATOM      5  C   LIG d   1       1.761  88.841 116.392  0.00  0.00    -0.047 C 
ATOM      6  C   LIG d   1       1.774  88.285 114.950  0.00  0.00     0.091 C 
ENDROOT
BRANCH   1   7
ATOM      7  O   LIG d   1       0.723  86.605 113.508  0.00  0.00    -0.368 OA
BRANCH   7   8
ATOM      8  C   LIG d   1       1.002  85.260 113.046  0.00  0.00     0.119 C 
BRANCH   8   9
ATOM      9  C   LIG d   1       2.128  85.356 111.998  0.00  0.00     0.028 C 
ATOM     10  C   LIG d   1       3.444  84.730 112.491  0.00  0.00     0.006 C 
ENDBRANCH   8   9
BRANCH   8  11
ATOM     11  C   LIG d   1      -0.196  84.667 112.301  0.00  0.00     0.028 C 
ATOM     12  C   LIG d   1      -0.532  83.237 112.755  0.00  0.00     0.006 C 
ENDBRANCH   8  11
ENDBRANCH   7   8
ENDBRANCH   1   7
BRANCH   6  13
ATOM     13  N   LIG d   1       3.151  88.148 114.407  0.00  0.00    -0.311 N 
ATOM     14  C   LIG d   1       3.482  88.473 113.158  0.00  0.00     0.210 C 
ATOM     15  C   LIG d   1       4.952  88.235 112.797  0.00  0.00     0.109 C 
ATOM     16  O   LIG d   1       2.706  88.965 112.326  0.00  0.00    -0.276 OA
ATOM     17  H   LIG d   1       3.850  87.785 115.024  0.00  0.00     0.149 HD
ENDBRANCH   6  13
BRANCH   5  18
ATOM     18  N   LIG d   1       2.292  90.214 116.487  0.00  0.00     0.381 N 
ATOM     19  H   LIG d   1       3.067  90.321 115.864  0.00  0.00    -0.090 HD
ATOM     20  H   LIG d   1       2.616  90.373 117.425  0.00  0.00    -0.090 HD
ATOM     21  H   LIG d   1       1.579  90.871 116.258  0.00  0.00    -0.090 HD
ENDBRANCH   5  18
BRANCH   3  22
ATOM     22  C   LIG d   1      -1.331  87.310 117.660  0.00  0.00     0.382 C 
ATOM     23  O   LIG d   1      -1.132  86.394 118.495  0.00  0.00    -0.241 OA
ATOM     24  O   LIG d   1      -2.436  87.884 117.632  0.00  0.00    -0.241 OA
ENDBRANCH   3  22
TORSDOF 7
ENDMDL
MODEL 6
REMARK VINA RESULT:      -4.5     26.861     29.789
REMARK  7 active torsions:
REMARK  status: ('A' for Active; 'I' for Inactive)
REMARK    1  A    between atoms: C_2  and  C_3 
REMARK    2  A    between atoms: C_3  and  O_6 
REMARK    3  A    between atoms: C_3  and  C_4 
REMARK    4  A    between atoms: C_7  and  O_6 
REMARK    5  A    between atoms: C_9  and  C_10 
REMARK    6  A    between atoms: N_15  and  C_14 
REMARK    7  A    between atoms: N_20  and  C_19 
REMARK       I    between atoms: C_22  and  N_20 
ROOT
ATOM      1  C   LIG d   1     -17.416  65.174 114.647  0.00  0.00     0.161 C 
ATOM      2  C   LIG d   1     -16.415  65.483 115.583  0.00  0.00     0.016 C 
ATOM      3  C   LIG d   1     -16.576  66.447 116.605  0.00  0.00     0.038 C 
ATOM      4  C   LIG d   1     -17.812  67.062 116.856  0.00  0.00     0.028 C 
ATOM      5  C   LIG d   1     -18.704  67.154 115.622  0.00  0.00    -0.047 C 
ATOM      6  C   LIG d   1     -18.808  65.755 114.973  0.00  0.00     0.091 C 
ENDROOT
BRANCH   1   7
ATOM      7  O   LIG d   1     -17.498  63.745 114.473  0.00  0.00    -0.368 OA
BRANCH   7   8
ATOM      8  C   LIG d   1     -18.288  63.028 115.453  0.00  0.00     0.119 C 
BRANCH   8   9
ATOM      9  C   LIG d   1     -17.341  62.065 116.195  0.00  0.00     0.028 C 
ATOM     10  C   LIG d   1     -17.144  62.455 117.670  0.00  0.00     0.006 C 
ENDBRANCH   8   9
BRANCH   8  11
ATOM     11  C   LIG d   1     -19.332  62.132 114.780  0.00  0.00     0.028 C 
ATOM     12  C   LIG d   1     -19.228  62.144 113.247  0.00  0.00     0.006 C 
ENDBRANCH   8  11
ENDBRANCH   7   8
ENDBRANCH   1   7
BRANCH   6  13
ATOM     13  N   LIG d   1     -19.595  65.772 113.713  0.00  0.00    -0.311 N 
ATOM     14  C   LIG d   1     -20.885  65.444 113.649  0.00  0.00     0.210 C 
ATOM     15  C   LIG d   1     -21.500  65.510 112.248  0.00  0.00     0.109 C 
ATOM     16  O   LIG d   1     -21.585  65.136 114.625  0.00  0.00    -0.276 OA
ATOM     17  H   LIG d   1     -19.113  66.040 112.878  0.00  0.00     0.149 HD
ENDBRANCH   6  13
BRANCH   5  18
ATOM     18  N   LIG d   1     -20.009  67.689 116.055  0.00  0.00     0.381 N 
ATOM     19  H   LIG d   1     -20.725  67.011 115.890  0.00  0.00    -0.090 HD
ATOM     20  H   LIG d   1     -20.219  68.509 115.513  0.00  0.00    -0.090 HD
ATOM     21  H   LIG d   1     -19.978  67.921 117.023  0.00  0.00    -0.090 HD
ENDBRANCH   5  18
BRANCH   3  22
ATOM     22  C   LIG d   1     -15.482  66.832 117.364  0.00  0.00     0.382 C 
ATOM     23  O   LIG d   1     -15.644  67.215 118.548  0.00  0.00    -0.241 OA
ATOM     24  O   LIG d   1     -14.340  66.845 116.866  0.00  0.00    -0.241 OA
ENDBRANCH   3  22
TORSDOF 7
ENDMDL
MODEL 7
REMARK VINA RESULT:      -4.4     11.526     13.699
REMARK  7 active torsions:
REMARK  status: ('A' for Active; 'I' for Inactive)
REMARK    1  A    between atoms: C_2  and  C_3 
REMARK    2  A    between atoms: C_3  and  O_6 
REMARK    3  A    between atoms: C_3  and  C_4 
REMARK    4  A    between atoms: C_7  and  O_6 
REMARK    5  A    between atoms: C_9  and  C_10 
REMARK    6  A    between atoms: N_15  and  C_14 
REMARK    7  A    between atoms: N_20  and  C_19 
REMARK       I    between atoms: C_22  and  N_20 
ROOT
ATOM      1  C   LIG d   1      11.709  78.303 114.151  0.00  0.00     0.161 C 
ATOM      2  C   LIG d   1      10.391  78.644 114.499  0.00  0.00     0.016 C 
ATOM      3  C   LIG d   1       9.393  77.688 114.795  0.00  0.00     0.038 C 
ATOM      4  C   LIG d   1       9.686  76.321 114.910  0.00  0.00     0.028 C 
ATOM      5  C   LIG d   1      10.884  75.886 114.074  0.00  0.00    -0.047 C 
ATOM      6  C   LIG d   1      12.076  76.822 114.379  0.00  0.00     0.091 C 
ENDROOT
BRANCH   1   7
ATOM      7  O   LIG d   1      12.635  79.162 114.844  0.00  0.00    -0.368 OA
BRANCH   7   8
ATOM      8  C   LIG d   1      13.251  80.207 114.053  0.00  0.00     0.119 C 
BRANCH   8   9
ATOM      9  C   LIG d   1      12.925  79.921 112.574  0.00  0.00     0.028 C 
ATOM     10  C   LIG d   1      14.132  79.359 111.805  0.00  0.00     0.006 C 
ENDBRANCH   8   9
BRANCH   8  11
ATOM     11  C   LIG d   1      14.778  80.154 114.149  0.00  0.00     0.028 C 
ATOM     12  C   LIG d   1      15.400  81.510 114.518  0.00  0.00     0.006 C 
ENDBRANCH   8  11
ENDBRANCH   7   8
ENDBRANCH   1   7
BRANCH   6  13
ATOM     13  N   LIG d   1      13.265  76.518 113.541  0.00  0.00    -0.311 N 
ATOM     14  C   LIG d   1      14.484  76.323 114.041  0.00  0.00     0.210 C 
ATOM     15  C   LIG d   1      15.572  76.043 113.000  0.00  0.00     0.109 C 
ATOM     16  O   LIG d   1      14.761  76.323 115.250  0.00  0.00    -0.276 OA
ATOM     17  H   LIG d   1      13.124  76.468 112.551  0.00  0.00     0.149 HD
ENDBRANCH   6  13
BRANCH   5  18
ATOM     18  N   LIG d   1      11.162  74.473 114.394  0.00  0.00     0.381 N 
ATOM     19  H   LIG d   1      10.964  73.900 113.598  0.00  0.00    -0.090 HD
ATOM     20  H   LIG d   1      10.561  74.186 115.146  0.00  0.00    -0.090 HD
ATOM     21  H   LIG d   1      12.116  74.365 114.661  0.00  0.00    -0.090 HD
ENDBRANCH   5  18
BRANCH   3  22
ATOM     22  C   LIG d   1       8.074  78.093 114.940  0.00  0.00     0.382 C 
ATOM     23  O   LIG d   1       7.141  77.313 114.633  0.00  0.00    -0.241 OA
ATOM     24  O   LIG d   1       7.807  79.245 115.331  0.00  0.00    -0.241 OA
ENDBRANCH   3  22
TORSDOF 7
ENDMDL
MODEL 8
REMARK VINA RESULT:      -4.4      2.646      3.698
REMARK  7 active torsions:
REMARK  status: ('A' for Active; 'I' for Inactive)
REMARK    1  A    between atoms: C_2  and  C_3 
REMARK    2  A    between atoms: C_3  and  O_6 
REMARK    3  A    between atoms: C_3  and  C_4 
REMARK    4  A    between atoms: C_7  and  O_6 
REMARK    5  A    between atoms: C_9  and  C_10 
REMARK    6  A    between atoms: N_15  and  C_14 
REMARK    7  A    between atoms: N_20  and  C_19 
REMARK       I    between atoms: C_22  and  N_20 
ROOT
ATOM      1  C   LIG d   1       2.463  87.825 115.187  0.00  0.00     0.161 C 
ATOM      2  C   LIG d   1       2.691  88.853 116.117  0.00  0.00     0.016 C 
ATOM      3  C   LIG d   1       3.764  89.769 116.018  0.00  0.00     0.038 C 
ATOM      4  C   LIG d   1       4.600  89.812 114.893  0.00  0.00     0.028 C 
ATOM      5  C   LIG d   1       4.718  88.473 114.174  0.00  0.00    -0.047 C 
ATOM      6  C   LIG d   1       3.299  87.927 113.894  0.00  0.00     0.091 C 
ENDROOT
BRANCH   1   7
ATOM      7  O   LIG d   1       1.059  87.754 114.871  0.00  0.00    -0.368 OA
BRANCH   7   8
ATOM      8  C   LIG d   1       0.339  86.622 115.419  0.00  0.00     0.119 C 
BRANCH   8   9
ATOM      9  C   LIG d   1      -0.564  87.151 116.550  0.00  0.00     0.028 C 
ATOM     10  C   LIG d   1      -0.352  86.394 117.872  0.00  0.00     0.006 C 
ENDBRANCH   8   9
BRANCH   8  11
ATOM     11  C   LIG d   1       1.291  85.628 116.091  0.00  0.00     0.028 C 
ATOM     12  C   LIG d   1       1.335  84.269 115.376  0.00  0.00     0.006 C 
ENDBRANCH   8  11
ENDBRANCH   7   8
ENDBRANCH   1   7
BRANCH   6  13
ATOM     13  N   LIG d   1       3.324  86.579 113.268  0.00  0.00    -0.311 N 
ATOM     14  C   LIG d   1       2.477  86.199 112.313  0.00  0.00     0.210 C 
ATOM     15  C   LIG d   1       2.662  84.760 111.819  0.00  0.00     0.109 C 
ATOM     16  O   LIG d   1       1.610  86.926 111.805  0.00  0.00    -0.276 OA
ATOM     17  H   LIG d   1       4.016  85.935 113.598  0.00  0.00     0.149 HD
ENDBRANCH   6  13
BRANCH   5  18
ATOM     18  N   LIG d   1       5.505  88.694 112.946  0.00  0.00     0.381 N 
ATOM     19  H   LIG d   1       5.137  88.134 112.203  0.00  0.00    -0.090 HD
ATOM     20  H   LIG d   1       6.455  88.411 113.114  0.00  0.00    -0.090 HD
ATOM     21  H   LIG d   1       5.478  89.657 112.692  0.00  0.00    -0.090 HD
ENDBRANCH   5  18
BRANCH   3  22
ATOM     22  C   LIG d   1       4.033  90.628 117.073  0.00  0.00     0.382 C 
ATOM     23  O   LIG d   1       4.006  90.201 118.252  0.00  0.00    -0.241 OA
ATOM     24  O   LIG d   1       4.259  91.835 116.862  0.00  0.00    -0.241 OA
ENDBRANCH   3  22
TORSDOF 7
ENDMDL
MODEL 9
REMARK VINA RESULT:      -4.3     10.535     12.604
REMARK  7 active torsions:
REMARK  status: ('A' for Active; 'I' for Inactive)
REMARK    1  A    between atoms: C_2  and  C_3 
REMARK    2  A    between atoms: C_3  and  O_6 
REMARK    3  A    between atoms: C_3  and  C_4 
REMARK    4  A    between atoms: C_7  and  O_6 
REMARK    5  A    between atoms: C_9  and  C_10 
REMARK    6  A    between atoms: N_15  and  C_14 
REMARK    7  A    between atoms: N_20  and  C_19 
REMARK       I    between atoms: C_22  and  N_20 
ROOT
ATOM      1  C   LIG d   1      10.745  79.217 114.287  0.00  0.00     0.161 C 
ATOM      2  C   LIG d   1       9.442  79.391 114.783  0.00  0.00     0.016 C 
ATOM      3  C   LIG d   1       8.595  78.316 115.138  0.00  0.00     0.038 C 
ATOM      4  C   LIG d   1       9.051  76.989 115.163  0.00  0.00     0.028 C 
ATOM      5  C   LIG d   1      10.195  76.724 114.191  0.00  0.00    -0.047 C 
ATOM      6  C   LIG d   1      11.299  77.783 114.413  0.00  0.00     0.091 C 
ENDROOT
BRANCH   1   7
ATOM      7  O   LIG d   1      11.637  80.156 114.919  0.00  0.00    -0.368 OA
BRANCH   7   8
ATOM      8  C   LIG d   1      12.371  79.665 116.067  0.00  0.00     0.119 C 
BRANCH   8   9
ATOM      9  C   LIG d   1      11.844  80.412 117.308  0.00  0.00     0.028 C 
ATOM     10  C   LIG d   1      10.934  79.531 118.180  0.00  0.00     0.006 C 
ENDBRANCH   8   9
BRANCH   8  11
ATOM     11  C   LIG d   1      13.856  80.027 115.976  0.00  0.00     0.028 C 
ATOM     12  C   LIG d   1      14.223  80.706 114.647  0.00  0.00     0.006 C 
ENDBRANCH   8  11
ENDBRANCH   7   8
ENDBRANCH   1   7
BRANCH   6  13
ATOM     13  N   LIG d   1      12.419  77.646 113.445  0.00  0.00    -0.311 N 
ATOM     14  C   LIG d   1      13.537  76.973 113.708  0.00  0.00     0.210 C 
ATOM     15  C   LIG d   1      14.573  76.974 112.579  0.00  0.00     0.109 C 
ATOM     16  O   LIG d   1      13.757  76.349 114.757  0.00  0.00    -0.276 OA
ATOM     17  H   LIG d   1      12.311  78.095 112.557  0.00  0.00     0.149 HD
ENDBRANCH   6  13
BRANCH   5  18
ATOM     18  N   LIG d   1      10.663  75.344 114.420  0.00  0.00     0.381 N 
ATOM     19  H   LIG d   1       9.971  74.694 114.105  0.00  0.00    -0.090 HD
ATOM     20  H   LIG d   1      10.799  75.206 115.406  0.00  0.00    -0.090 HD
ATOM     21  H   LIG d   1      11.519  75.189 113.935  0.00  0.00    -0.090 HD
ENDBRANCH   5  18
BRANCH   3  22
ATOM     22  C   LIG d   1       7.262  78.560 115.434  0.00  0.00     0.382 C 
ATOM     23  O   LIG d   1       6.363  78.150 114.661  0.00  0.00    -0.241 OA
ATOM     24  O   LIG d   1       6.950  79.222 116.441  0.00  0.00    -0.241 OA
ENDBRANCH   3  22
TORSDOF 7
ENDMDL
