MODEL 1
REMARK VINA RESULT:      -4.9      0.000      0.000
REMARK  7 active torsions:
REMARK  status: ('A' for Active; 'I' for Inactive)
REMARK    1  A    between atoms: C_2  and  C_3 
REMARK    2  A    between atoms: C_3  and  O_6 
REMARK    3  A    between atoms: C_3  and  C_4 
REMARK    4  A    between atoms: C_7  and  O_6 
REMARK    5  A    between atoms: C_9  and  C_10 
REMARK    6  A    between atoms: N_15  and  C_14 
REMARK    7  A    between atoms: N_20  and  C_19 
REMARK       I    between atoms: C_22  and  N_20 
ROOT
ATOM      1  C   LIG d   1      -2.929  75.143 115.489  0.00  0.00     0.161 C 
ATOM      2  C   LIG d   1      -2.175  76.070 114.751  0.00  0.00     0.016 C 
ATOM      3  C   LIG d   1      -2.748  77.005 113.859  0.00  0.00     0.038 C 
ATOM      4  C   LIG d   1      -4.136  77.178 113.757  0.00  0.00     0.028 C 
ATOM      5  C   LIG d   1      -4.930  75.924 114.105  0.00  0.00    -0.047 C 
ATOM      6  C   LIG d   1      -4.452  75.391 115.475  0.00  0.00     0.091 C 
ENDROOT
BRANCH   1   7
ATOM      7  O   LIG d   1      -2.443  75.087 116.845  0.00  0.00    -0.368 OA
BRANCH   7   8
ATOM      8  C   LIG d   1      -1.603  76.189 117.267  0.00  0.00     0.119 C 
BRANCH   8   9
ATOM      9  C   LIG d   1      -0.372  75.588 117.973  0.00  0.00     0.028 C 
ATOM     10  C   LIG d   1      -0.511  74.075 118.210  0.00  0.00     0.006 C 
ENDBRANCH   8   9
BRANCH   8  11
ATOM     11  C   LIG d   1      -2.300  77.046 118.328  0.00  0.00     0.028 C 
ATOM     12  C   LIG d   1      -3.158  78.167 117.719  0.00  0.00     0.006 C 
ENDBRANCH   8  11
ENDBRANCH   7   8
ENDBRANCH   1   7
BRANCH   6  13
ATOM     13  N   LIG d   1      -5.119  74.118 115.852  0.00  0.00    -0.311 N 
ATOM     14  C   LIG d   1      -6.269  74.062 116.522  0.00  0.00     0.210 C 
ATOM     15  C   LIG d   1      -6.773  72.648 116.827  0.00  0.00     0.109 C 
ATOM     16  O   LIG d   1      -6.936  75.050 116.864  0.00  0.00    -0.276 OA
ATOM     17  H   LIG d   1      -4.662  73.267 115.587  0.00  0.00     0.149 HD
ENDBRANCH   6  13
BRANCH   5  18
ATOM     18  N   LIG d   1      -6.361  76.283 114.092  0.00  0.00     0.381 N 
ATOM     19  H   LIG d   1      -6.568  76.879 114.869  0.00  0.00    -0.090 HD
ATOM     20  H   LIG d   1      -6.908  75.445 114.183  0.00  0.00    -0.090 HD
ATOM     21  H   LIG d   1      -6.588  76.746 113.239  0.00  0.00    -0.090 HD
ENDBRANCH   5  18
BRANCH   3  22
ATOM     22  C   LIG d   1      -1.928  77.752 113.026  0.00  0.00     0.382 C 
ATOM     23  O   LIG d   1      -1.778  77.415 111.827  0.00  0.00    -0.241 OA
ATOM     24  O   LIG d   1      -1.303  78.734 113.471  0.00  0.00    -0.241 OA
ENDBRANCH   3  22
TORSDOF 7
ENDMDL
MODEL 2
REMARK VINA RESULT:      -4.8      3.111      6.074
REMARK  7 active torsions:
REMARK  status: ('A' for Active; 'I' for Inactive)
REMARK    1  A    between atoms: C_2  and  C_3 
REMARK    2  A    between atoms: C_3  and  O_6 
REMARK    3  A    between atoms: C_3  and  C_4 
REMARK    4  A    between atoms: C_7  and  O_6 
REMARK    5  A    between atoms: C_9  and  C_10 
REMARK    6  A    between atoms: N_15  and  C_14 
REMARK    7  A    between atoms: N_20  and  C_19 
REMARK       I    between atoms: C_22  and  N_20 
ROOT
ATOM      1  C   LIG d   1      -5.810  76.744 117.287  0.00  0.00     0.161 C 
ATOM      2  C   LIG d   1      -6.874  75.860 117.042  0.00  0.00     0.016 C 
ATOM      3  C   LIG d   1      -8.230  76.191 117.270  0.00  0.00     0.038 C 
ATOM      4  C   LIG d   1      -8.627  77.490 117.618  0.00  0.00     0.028 C 
ATOM      5  C   LIG d   1      -7.551  78.273 118.364  0.00  0.00    -0.047 C 
ATOM      6  C   LIG d   1      -6.232  78.203 117.561  0.00  0.00     0.091 C 
ENDROOT
BRANCH   1   7
ATOM      7  O   LIG d   1      -4.870  76.691 116.195  0.00  0.00    -0.368 OA
BRANCH   7   8
ATOM      8  C   LIG d   1      -4.395  75.373 115.827  0.00  0.00     0.119 C 
BRANCH   8   9
ATOM      9  C   LIG d   1      -2.879  75.334 116.097  0.00  0.00     0.028 C 
ATOM     10  C   LIG d   1      -2.291  76.734 116.340  0.00  0.00     0.006 C 
ENDBRANCH   8   9
BRANCH   8  11
ATOM     11  C   LIG d   1      -4.545  75.127 114.322  0.00  0.00     0.028 C 
ATOM     12  C   LIG d   1      -4.989  76.383 113.555  0.00  0.00     0.006 C 
ENDBRANCH   8  11
ENDBRANCH   7   8
ENDBRANCH   1   7
BRANCH   6  13
ATOM     13  N   LIG d   1      -5.105  78.872 118.261  0.00  0.00    -0.311 N 
ATOM     14  C   LIG d   1      -4.232  79.671 117.649  0.00  0.00     0.210 C 
ATOM     15  C   LIG d   1      -3.136  80.243 118.553  0.00  0.00     0.109 C 
ATOM     16  O   LIG d   1      -4.281  79.985 116.451  0.00  0.00    -0.276 OA
ATOM     17  H   LIG d   1      -5.010  78.697 119.242  0.00  0.00     0.149 HD
ENDBRANCH   6  13
BRANCH   5  18
ATOM     18  N   LIG d   1      -8.046  79.651 118.542  0.00  0.00     0.381 N 
ATOM     19  H   LIG d   1      -7.756  80.218 117.771  0.00  0.00    -0.090 HD
ATOM     20  H   LIG d   1      -7.648  80.033 119.382  0.00  0.00    -0.090 HD
ATOM     21  H   LIG d   1      -9.040  79.651 118.608  0.00  0.00    -0.090 HD
ENDBRANCH   5  18
BRANCH   3  22
ATOM     22  C   LIG d   1      -9.201  75.205 117.189  0.00  0.00     0.382 C 
ATOM     23  O   LIG d   1     -10.406  75.522 117.045  0.00  0.00    -0.241 OA
ATOM     24  O   LIG d   1      -8.893  74.003 117.303  0.00  0.00    -0.241 OA
ENDBRANCH   3  22
TORSDOF 7
ENDMDL
MODEL 3
REMARK VINA RESULT:      -4.7     12.247     14.498
REMARK  7 active torsions:
REMARK  status: ('A' for Active; 'I' for Inactive)
REMARK    1  A    between atoms: C_2  and  C_3 
REMARK    2  A    between atoms: C_3  and  O_6 
REMARK    3  A    between atoms: C_3  and  C_4 
REMARK    4  A    between atoms: C_7  and  O_6 
REMARK    5  A    between atoms: C_9  and  C_10 
REMARK    6  A    between atoms: N_15  and  C_14 
REMARK    7  A    between atoms: N_20  and  C_19 
REMARK       I    between atoms: C_22  and  N_20 
ROOT
ATOM      1  C   LIG d   1       3.901  87.380 115.922  0.00  0.00     0.161 C 
ATOM      2  C   LIG d   1       4.111  86.269 115.087  0.00  0.00     0.016 C 
ATOM      3  C   LIG d   1       4.650  86.367 113.784  0.00  0.00     0.038 C 
ATOM      4  C   LIG d   1       5.161  87.572 113.281  0.00  0.00     0.028 C 
ATOM      5  C   LIG d   1       4.510  88.808 113.892  0.00  0.00    -0.047 C 
ATOM      6  C   LIG d   1       4.555  88.689 115.433  0.00  0.00     0.091 C 
ENDROOT
BRANCH   1   7
ATOM      7  O   LIG d   1       4.335  87.073 117.261  0.00  0.00    -0.368 OA
BRANCH   7   8
ATOM      8  C   LIG d   1       3.288  86.890 118.245  0.00  0.00     0.119 C 
BRANCH   8   9
ATOM      9  C   LIG d   1       3.139  85.375 118.486  0.00  0.00     0.028 C 
ATOM     10  C   LIG d   1       1.778  84.836 118.012  0.00  0.00     0.006 C 
ENDBRANCH   8   9
BRANCH   8  11
ATOM     11  C   LIG d   1       1.930  87.350 117.705  0.00  0.00     0.028 C 
ATOM     12  C   LIG d   1       1.360  88.553 118.473  0.00  0.00     0.006 C 
ENDBRANCH   8  11
ENDBRANCH   7   8
ENDBRANCH   1   7
BRANCH   6  13
ATOM     13  N   LIG d   1       3.864  89.817 116.109  0.00  0.00    -0.311 N 
ATOM     14  C   LIG d   1       4.505  90.787 116.758  0.00  0.00     0.210 C 
ATOM     15  C   LIG d   1       3.601  91.843 117.402  0.00  0.00     0.109 C 
ATOM     16  O   LIG d   1       5.739  90.891 116.835  0.00  0.00    -0.276 OA
ATOM     17  H   LIG d   1       2.863  89.828 116.070  0.00  0.00     0.149 HD
ENDBRANCH   6  13
BRANCH   5  18
ATOM     18  N   LIG d   1       5.230  89.990 113.382  0.00  0.00     0.381 N 
ATOM     19  H   LIG d   1       5.326  89.926 112.388  0.00  0.00    -0.090 HD
ATOM     20  H   LIG d   1       6.149  90.010 113.787  0.00  0.00    -0.090 HD
ATOM     21  H   LIG d   1       4.735  90.821 113.622  0.00  0.00    -0.090 HD
ENDBRANCH   5  18
BRANCH   3  22
ATOM     22  C   LIG d   1       4.646  85.256 112.954  0.00  0.00     0.382 C 
ATOM     23  O   LIG d   1       4.084  85.312 111.834  0.00  0.00    -0.241 OA
ATOM     24  O   LIG d   1       5.159  84.185 113.329  0.00  0.00    -0.241 OA
ENDBRANCH   3  22
TORSDOF 7
ENDMDL
MODEL 4
REMARK VINA RESULT:      -4.6      3.076      6.102
REMARK  7 active torsions:
REMARK  status: ('A' for Active; 'I' for Inactive)
REMARK    1  A    between atoms: C_2  and  C_3 
REMARK    2  A    between atoms: C_3  and  O_6 
REMARK    3  A    between atoms: C_3  and  C_4 
REMARK    4  A    between atoms: C_7  and  O_6 
REMARK    5  A    between atoms: C_9  and  C_10 
REMARK    6  A    between atoms: N_15  and  C_14 
REMARK    7  A    between atoms: N_20  and  C_19 
REMARK       I    between atoms: C_22  and  N_20 
ROOT
ATOM      1  C   LIG d   1      -4.775  76.499 116.667  0.00  0.00     0.161 C 
ATOM      2  C   LIG d   1      -5.993  75.801 116.710  0.00  0.00     0.016 C 
ATOM      3  C   LIG d   1      -7.217  76.395 117.094  0.00  0.00     0.038 C 
ATOM      4  C   LIG d   1      -7.334  77.775 117.318  0.00  0.00     0.028 C 
ATOM      5  C   LIG d   1      -6.033  78.426 117.777  0.00  0.00    -0.047 C 
ATOM      6  C   LIG d   1      -4.902  78.031 116.800  0.00  0.00     0.091 C 
ENDROOT
BRANCH   1   7
ATOM      7  O   LIG d   1      -4.059  76.159 115.463  0.00  0.00    -0.368 OA
BRANCH   7   8
ATOM      8  C   LIG d   1      -4.262  77.039 114.330  0.00  0.00     0.119 C 
BRANCH   8   9
ATOM      9  C   LIG d   1      -5.133  76.284 113.307  0.00  0.00     0.028 C 
ATOM     10  C   LIG d   1      -6.575  76.816 113.258  0.00  0.00     0.006 C 
ENDBRANCH   8   9
BRANCH   8  11
ATOM     11  C   LIG d   1      -2.945  77.328 113.605  0.00  0.00     0.028 C 
ATOM     12  C   LIG d   1      -3.121  78.264 112.399  0.00  0.00     0.006 C 
ENDBRANCH   8  11
ENDBRANCH   7   8
ENDBRANCH   1   7
BRANCH   6  13
ATOM     13  N   LIG d   1      -3.578  78.557 117.223  0.00  0.00    -0.311 N 
ATOM     14  C   LIG d   1      -3.037  79.667 116.724  0.00  0.00     0.210 C 
ATOM     15  C   LIG d   1      -1.656  80.021 117.283  0.00  0.00     0.109 C 
ATOM     16  O   LIG d   1      -3.583  80.409 115.894  0.00  0.00    -0.276 OA
ATOM     17  H   LIG d   1      -3.080  78.034 117.916  0.00  0.00     0.149 HD
ENDBRANCH   6  13
BRANCH   5  18
ATOM     18  N   LIG d   1      -6.262  79.882 117.839  0.00  0.00     0.381 N 
ATOM     19  H   LIG d   1      -6.993  80.137 117.206  0.00  0.00    -0.090 HD
ATOM     20  H   LIG d   1      -5.421  80.355 117.558  0.00  0.00    -0.090 HD
ATOM     21  H   LIG d   1      -6.508  80.149 118.767  0.00  0.00    -0.090 HD
ENDBRANCH   5  18
BRANCH   3  22
ATOM     22  C   LIG d   1      -8.334  75.598 117.297  0.00  0.00     0.382 C 
ATOM     23  O   LIG d   1      -8.207  74.353 117.387  0.00  0.00    -0.241 OA
ATOM     24  O   LIG d   1      -9.471  76.104 117.347  0.00  0.00    -0.241 OA
ENDBRANCH   3  22
TORSDOF 7
ENDMDL
MODEL 5
REMARK VINA RESULT:      -4.6      3.190      5.656
REMARK  7 active torsions:
REMARK  status: ('A' for Active; 'I' for Inactive)
REMARK    1  A    between atoms: C_2  and  C_3 
REMARK    2  A    between atoms: C_3  and  O_6 
REMARK    3  A    between atoms: C_3  and  C_4 
REMARK    4  A    between atoms: C_7  and  O_6 
REMARK    5  A    between atoms: C_9  and  C_10 
REMARK    6  A    between atoms: N_15  and  C_14 
REMARK    7  A    between atoms: N_20  and  C_19 
REMARK       I    between atoms: C_22  and  N_20 
ROOT
ATOM      1  C   LIG d   1      -4.848  77.390 117.684  0.00  0.00     0.161 C 
ATOM      2  C   LIG d   1      -5.603  78.568 117.813  0.00  0.00     0.016 C 
ATOM      3  C   LIG d   1      -5.088  79.856 117.542  0.00  0.00     0.038 C 
ATOM      4  C   LIG d   1      -3.818  80.043 116.975  0.00  0.00     0.028 C 
ATOM      5  C   LIG d   1      -2.838  78.922 117.301  0.00  0.00    -0.047 C 
ATOM      6  C   LIG d   1      -3.496  77.565 116.960  0.00  0.00     0.091 C 
ENDROOT
BRANCH   1   7
ATOM      7  O   LIG d   1      -5.636  76.373 117.035  0.00  0.00    -0.368 OA
BRANCH   7   8
ATOM      8  C   LIG d   1      -6.549  76.833 116.008  0.00  0.00     0.119 C 
BRANCH   8   9
ATOM      9  C   LIG d   1      -7.930  76.218 116.309  0.00  0.00     0.028 C 
ATOM     10  C   LIG d   1      -7.870  75.155 117.419  0.00  0.00     0.006 C 
ENDBRANCH   8   9
BRANCH   8  11
ATOM     11  C   LIG d   1      -6.157  76.293 114.630  0.00  0.00     0.028 C 
ATOM     12  C   LIG d   1      -5.142  75.141 114.708  0.00  0.00     0.006 C 
ENDBRANCH   8  11
ENDBRANCH   7   8
ENDBRANCH   1   7
BRANCH   6  13
ATOM     13  N   LIG d   1      -2.636  76.410 117.328  0.00  0.00    -0.311 N 
ATOM     14  C   LIG d   1      -1.845  75.779 116.461  0.00  0.00     0.210 C 
ATOM     15  C   LIG d   1      -1.058  74.601 117.043  0.00  0.00     0.109 C 
ATOM     16  O   LIG d   1      -1.697  76.104 115.273  0.00  0.00    -0.276 OA
ATOM     17  H   LIG d   1      -2.672  76.099 118.279  0.00  0.00     0.149 HD
ENDBRANCH   6  13
BRANCH   5  18
ATOM     18  N   LIG d   1      -1.602  79.173 116.536  0.00  0.00     0.381 N 
ATOM     19  H   LIG d   1      -0.860  79.417 117.162  0.00  0.00    -0.090 HD
ATOM     20  H   LIG d   1      -1.757  79.947 115.914  0.00  0.00    -0.090 HD
ATOM     21  H   LIG d   1      -1.353  78.362 116.014  0.00  0.00    -0.090 HD
ENDBRANCH   5  18
BRANCH   3  22
ATOM     22  C   LIG d   1      -5.831  80.978 117.877  0.00  0.00     0.382 C 
ATOM     23  O   LIG d   1      -7.078  80.894 117.985  0.00  0.00    -0.241 OA
ATOM     24  O   LIG d   1      -5.275  82.082 118.028  0.00  0.00    -0.241 OA
ENDBRANCH   3  22
TORSDOF 7
ENDMDL
MODEL 6
REMARK VINA RESULT:      -4.6      3.166      4.762
REMARK  7 active torsions:
REMARK  status: ('A' for Active; 'I' for Inactive)
REMARK    1  A    between atoms: C_2  and  C_3 
REMARK    2  A    between atoms: C_3  and  O_6 
REMARK    3  A    between atoms: C_3  and  C_4 
REMARK    4  A    between atoms: C_7  and  O_6 
REMARK    5  A    between atoms: C_9  and  C_10 
REMARK    6  A    between atoms: N_15  and  C_14 
REMARK    7  A    between atoms: N_20  and  C_19 
REMARK       I    between atoms: C_22  and  N_20 
ROOT
ATOM      1  C   LIG d   1      -2.249  79.854 114.855  0.00  0.00     0.161 C 
ATOM      2  C   LIG d   1      -1.785  80.982 114.158  0.00  0.00     0.016 C 
ATOM      3  C   LIG d   1      -1.200  80.916 112.873  0.00  0.00     0.038 C 
ATOM      4  C   LIG d   1      -1.176  79.727 112.129  0.00  0.00     0.028 C 
ATOM      5  C   LIG d   1      -1.175  78.471 112.994  0.00  0.00    -0.047 C 
ATOM      6  C   LIG d   1      -2.333  78.563 114.013  0.00  0.00     0.091 C 
ENDROOT
BRANCH   1   7
ATOM      7  O   LIG d   1      -3.526  80.143 115.457  0.00  0.00    -0.368 OA
BRANCH   7   8
ATOM      8  C   LIG d   1      -3.491  80.645 116.816  0.00  0.00     0.119 C 
BRANCH   8   9
ATOM      9  C   LIG d   1      -2.178  80.154 117.457  0.00  0.00     0.028 C 
ATOM     10  C   LIG d   1      -1.423  81.280 118.183  0.00  0.00     0.006 C 
ENDBRANCH   8   9
BRANCH   8  11
ATOM     11  C   LIG d   1      -4.609  80.034 117.665  0.00  0.00     0.028 C 
ATOM     12  C   LIG d   1      -5.008  78.624 117.201  0.00  0.00     0.006 C 
ENDBRANCH   8  11
ENDBRANCH   7   8
ENDBRANCH   1   7
BRANCH   6  13
ATOM     13  N   LIG d   1      -2.352  77.413 114.954  0.00  0.00    -0.311 N 
ATOM     14  C   LIG d   1      -3.041  76.295 114.732  0.00  0.00     0.210 C 
ATOM     15  C   LIG d   1      -2.939  75.241 115.839  0.00  0.00     0.109 C 
ATOM     16  O   LIG d   1      -3.699  76.062 113.707  0.00  0.00    -0.276 OA
ATOM     17  H   LIG d   1      -1.820  77.504 115.797  0.00  0.00     0.149 HD
ENDBRANCH   6  13
BRANCH   5  18
ATOM     18  N   LIG d   1      -1.289  77.309 112.092  0.00  0.00     0.381 N 
ATOM     19  H   LIG d   1      -2.163  77.341 111.607  0.00  0.00    -0.090 HD
ATOM     20  H   LIG d   1      -1.265  76.468 112.642  0.00  0.00    -0.090 HD
ATOM     21  H   LIG d   1      -0.537  77.309 111.439  0.00  0.00    -0.090 HD
ENDBRANCH   5  18
BRANCH   3  22
ATOM     22  C   LIG d   1      -0.593  82.041 112.335  0.00  0.00     0.382 C 
ATOM     23  O   LIG d   1       0.650  82.185 112.421  0.00  0.00    -0.241 OA
ATOM     24  O   LIG d   1      -1.279  82.936 111.805  0.00  0.00    -0.241 OA
ENDBRANCH   3  22
TORSDOF 7
ENDMDL
MODEL 7
REMARK VINA RESULT:      -4.6      2.987      5.620
REMARK  7 active torsions:
REMARK  status: ('A' for Active; 'I' for Inactive)
REMARK    1  A    between atoms: C_2  and  C_3 
REMARK    2  A    between atoms: C_3  and  O_6 
REMARK    3  A    between atoms: C_3  and  C_4 
REMARK    4  A    between atoms: C_7  and  O_6 
REMARK    5  A    between atoms: C_9  and  C_10 
REMARK    6  A    between atoms: N_15  and  C_14 
REMARK    7  A    between atoms: N_20  and  C_19 
REMARK       I    between atoms: C_22  and  N_20 
ROOT
ATOM      1  C   LIG d   1      -2.183  77.041 115.116  0.00  0.00     0.161 C 
ATOM      2  C   LIG d   1      -1.826  75.946 115.920  0.00  0.00     0.016 C 
ATOM      3  C   LIG d   1      -0.849  76.015 116.940  0.00  0.00     0.038 C 
ATOM      4  C   LIG d   1      -0.268  77.231 117.329  0.00  0.00     0.028 C 
ATOM      5  C   LIG d   1      -0.226  78.267 116.211  0.00  0.00    -0.047 C 
ATOM      6  C   LIG d   1      -1.639  78.402 115.599  0.00  0.00     0.091 C 
ENDROOT
BRANCH   1   7
ATOM      7  O   LIG d   1      -3.616  77.096 114.973  0.00  0.00    -0.368 OA
BRANCH   7   8
ATOM      8  C   LIG d   1      -4.387  76.560 116.077  0.00  0.00     0.119 C 
BRANCH   8   9
ATOM      9  C   LIG d   1      -5.559  75.760 115.477  0.00  0.00     0.028 C 
ATOM     10  C   LIG d   1      -5.339  74.240 115.568  0.00  0.00     0.006 C 
ENDBRANCH   8   9
BRANCH   8  11
ATOM     11  C   LIG d   1      -5.038  77.678 116.897  0.00  0.00     0.028 C 
ATOM     12  C   LIG d   1      -4.267  77.996 118.188  0.00  0.00     0.006 C 
ENDBRANCH   8  11
ENDBRANCH   7   8
ENDBRANCH   1   7
BRANCH   6  13
ATOM     13  N   LIG d   1      -1.670  79.335 114.442  0.00  0.00    -0.311 N 
ATOM     14  C   LIG d   1      -2.498  80.375 114.360  0.00  0.00     0.210 C 
ATOM     15  C   LIG d   1      -2.378  81.197 113.073  0.00  0.00     0.109 C 
ATOM     16  O   LIG d   1      -3.298  80.713 115.246  0.00  0.00    -0.276 OA
ATOM     17  H   LIG d   1      -1.032  79.153 113.693  0.00  0.00     0.149 HD
ENDBRANCH   6  13
BRANCH   5  18
ATOM     18  N   LIG d   1       0.276  79.528 116.790  0.00  0.00     0.381 N 
ATOM     19  H   LIG d   1       0.089  80.286 116.165  0.00  0.00    -0.090 HD
ATOM     20  H   LIG d   1       1.271  79.456 116.910  0.00  0.00    -0.090 HD
ATOM     21  H   LIG d   1      -0.161  79.697 117.669  0.00  0.00    -0.090 HD
ENDBRANCH   5  18
BRANCH   3  22
ATOM     22  C   LIG d   1      -0.416  74.851 117.556  0.00  0.00     0.382 C 
ATOM     23  O   LIG d   1       0.342  74.915 118.554  0.00  0.00    -0.241 OA
ATOM     24  O   LIG d   1      -0.737  73.737 117.100  0.00  0.00    -0.241 OA
ENDBRANCH   3  22
TORSDOF 7
ENDMDL
MODEL 8
REMARK VINA RESULT:      -4.5     13.516     15.934
REMARK  7 active torsions:
REMARK  status: ('A' for Active; 'I' for Inactive)
REMARK    1  A    between atoms: C_2  and  C_3 
REMARK    2  A    between atoms: C_3  and  O_6 
REMARK    3  A    between atoms: C_3  and  C_4 
REMARK    4  A    between atoms: C_7  and  O_6 
REMARK    5  A    between atoms: C_9  and  C_10 
REMARK    6  A    between atoms: N_15  and  C_14 
REMARK    7  A    between atoms: N_20  and  C_19 
REMARK       I    between atoms: C_22  and  N_20 
ROOT
ATOM      1  C   LIG d   1      11.352  75.972 115.018  0.00  0.00     0.161 C 
ATOM      2  C   LIG d   1      10.015  76.377 115.165  0.00  0.00     0.016 C 
ATOM      3  C   LIG d   1       9.600  77.727 115.100  0.00  0.00     0.038 C 
ATOM      4  C   LIG d   1      10.479  78.756 114.729  0.00  0.00     0.028 C 
ATOM      5  C   LIG d   1      11.936  78.459 115.067  0.00  0.00    -0.047 C 
ATOM      6  C   LIG d   1      12.308  77.069 114.504  0.00  0.00     0.091 C 
ENDROOT
BRANCH   1   7
ATOM      7  O   LIG d   1      11.420  74.809 114.169  0.00  0.00    -0.368 OA
BRANCH   7   8
ATOM      8  C   LIG d   1      11.737  73.557 114.826  0.00  0.00     0.119 C 
BRANCH   8   9
ATOM      9  C   LIG d   1      12.550  72.706 113.831  0.00  0.00     0.028 C 
ATOM     10  C   LIG d   1      14.060  72.753 114.118  0.00  0.00     0.006 C 
ENDBRANCH   8   9
BRANCH   8  11
ATOM     11  C   LIG d   1      10.472  72.744 115.115  0.00  0.00     0.028 C 
ATOM     12  C   LIG d   1      10.608  71.267 114.715  0.00  0.00     0.006 C 
ENDBRANCH   8  11
ENDBRANCH   7   8
ENDBRANCH   1   7
BRANCH   6  13
ATOM     13  N   LIG d   1      13.692  76.664 114.862  0.00  0.00    -0.311 N 
ATOM     14  C   LIG d   1      14.756  76.946 114.112  0.00  0.00     0.210 C 
ATOM     15  C   LIG d   1      16.088  76.418 114.655  0.00  0.00     0.109 C 
ATOM     16  O   LIG d   1      14.727  77.610 113.065  0.00  0.00    -0.276 OA
ATOM     17  H   LIG d   1      13.811  76.147 115.712  0.00  0.00     0.149 HD
ENDBRANCH   6  13
BRANCH   5  18
ATOM     18  N   LIG d   1      12.755  79.549 114.504  0.00  0.00     0.381 N 
ATOM     19  H   LIG d   1      13.705  79.249 114.418  0.00  0.00    -0.090 HD
ATOM     20  H   LIG d   1      12.727  80.334 115.131  0.00  0.00    -0.090 HD
ATOM     21  H   LIG d   1      12.401  79.815 113.611  0.00  0.00    -0.090 HD
ENDBRANCH   5  18
BRANCH   3  22
ATOM     22  C   LIG d   1       8.300  78.064 115.446  0.00  0.00     0.382 C 
ATOM     23  O   LIG d   1       7.343  77.692 114.724  0.00  0.00    -0.241 OA
ATOM     24  O   LIG d   1       8.075  78.772 116.445  0.00  0.00    -0.241 OA
ENDBRANCH   3  22
TORSDOF 7
ENDMDL
MODEL 9
REMARK VINA RESULT:      -4.4     10.870     13.130
REMARK  7 active torsions:
REMARK  status: ('A' for Active; 'I' for Inactive)
REMARK    1  A    between atoms: C_2  and  C_3 
REMARK    2  A    between atoms: C_3  and  O_6 
REMARK    3  A    between atoms: C_3  and  C_4 
REMARK    4  A    between atoms: C_7  and  O_6 
REMARK    5  A    between atoms: C_9  and  C_10 
REMARK    6  A    between atoms: N_15  and  C_14 
REMARK    7  A    between atoms: N_20  and  C_19 
REMARK       I    between atoms: C_22  and  N_20 
ROOT
ATOM      1  C   LIG d   1       2.302  86.607 115.060  0.00  0.00     0.161 C 
ATOM      2  C   LIG d   1       2.657  87.966 115.055  0.00  0.00     0.016 C 
ATOM      3  C   LIG d   1       3.412  88.577 116.082  0.00  0.00     0.038 C 
ATOM      4  C   LIG d   1       3.997  87.831 117.116  0.00  0.00     0.028 C 
ATOM      5  C   LIG d   1       3.244  86.543 117.434  0.00  0.00    -0.047 C 
ATOM      6  C   LIG d   1       3.024  85.754 116.124  0.00  0.00     0.091 C 
ENDROOT
BRANCH   1   7
ATOM      7  O   LIG d   1       2.500  86.045 113.748  0.00  0.00    -0.368 OA
BRANCH   7   8
ATOM      8  C   LIG d   1       3.860  85.677 113.411  0.00  0.00     0.119 C 
BRANCH   8   9
ATOM      9  C   LIG d   1       4.398  86.738 112.432  0.00  0.00     0.028 C 
ATOM     10  C   LIG d   1       5.461  87.644 113.075  0.00  0.00     0.006 C 
ENDBRANCH   8   9
BRANCH   8  11
ATOM     11  C   LIG d   1       3.905  84.354 112.640  0.00  0.00     0.028 C 
ATOM     12  C   LIG d   1       2.507  83.779 112.361  0.00  0.00     0.006 C 
ENDBRANCH   8  11
ENDBRANCH   7   8
ENDBRANCH   1   7
BRANCH   6  13
ATOM     13  N   LIG d   1       2.221  84.521 116.333  0.00  0.00    -0.311 N 
ATOM     14  C   LIG d   1       2.723  83.292 116.223  0.00  0.00     0.210 C 
ATOM     15  C   LIG d   1       1.718  82.160 116.459  0.00  0.00     0.109 C 
ATOM     16  O   LIG d   1       3.912  83.032 115.983  0.00  0.00    -0.276 OA
ATOM     17  H   LIG d   1       1.254  84.640 116.561  0.00  0.00     0.149 HD
ENDBRANCH   6  13
BRANCH   5  18
ATOM     18  N   LIG d   1       4.036  85.799 118.432  0.00  0.00     0.381 N 
ATOM     19  H   LIG d   1       4.366  84.943 118.032  0.00  0.00    -0.090 HD
ATOM     20  H   LIG d   1       3.446  85.575 119.214  0.00  0.00    -0.090 HD
ATOM     21  H   LIG d   1       4.808  86.351 118.735  0.00  0.00    -0.090 HD
ENDBRANCH   5  18
BRANCH   3  22
ATOM     22  C   LIG d   1       3.556  89.956 116.102  0.00  0.00     0.382 C 
ATOM     23  O   LIG d   1       4.435  90.505 115.394  0.00  0.00    -0.241 OA
ATOM     24  O   LIG d   1       2.848  90.654 116.852  0.00  0.00    -0.241 OA
ENDBRANCH   3  22
TORSDOF 7
ENDMDL
