MODEL 1
REMARK VINA RESULT:      -5.1      0.000      0.000
REMARK  7 active torsions:
REMARK  status: ('A' for Active; 'I' for Inactive)
REMARK    1  A    between atoms: C_2  and  C_3 
REMARK    2  A    between atoms: C_3  and  O_6 
REMARK    3  A    between atoms: C_3  and  C_4 
REMARK    4  A    between atoms: C_7  and  O_6 
REMARK    5  A    between atoms: C_9  and  C_10 
REMARK    6  A    between atoms: N_15  and  C_14 
REMARK    7  A    between atoms: N_20  and  C_19 
REMARK       I    between atoms: C_22  and  N_20 
ROOT
ATOM      1  C   LIG d   1      -5.614  78.411 117.086  0.00  0.00     0.161 C 
ATOM      2  C   LIG d   1      -6.894  77.847 117.217  0.00  0.00     0.016 C 
ATOM      3  C   LIG d   1      -8.046  78.600 117.540  0.00  0.00     0.038 C 
ATOM      4  C   LIG d   1      -8.022  80.001 117.606  0.00  0.00     0.028 C 
ATOM      5  C   LIG d   1      -6.656  80.567 117.977  0.00  0.00    -0.047 C 
ATOM      6  C   LIG d   1      -5.588  79.953 117.044  0.00  0.00     0.091 C 
ENDROOT
BRANCH   1   7
ATOM      7  O   LIG d   1      -4.958  77.867 115.923  0.00  0.00    -0.368 OA
BRANCH   7   8
ATOM      8  C   LIG d   1      -4.144  76.689 116.144  0.00  0.00     0.119 C 
BRANCH   8   9
ATOM      9  C   LIG d   1      -2.849  76.861 115.326  0.00  0.00     0.028 C 
ATOM     10  C   LIG d   1      -2.595  78.325 114.930  0.00  0.00     0.006 C 
ENDBRANCH   8   9
BRANCH   8  11
ATOM     11  C   LIG d   1      -4.816  75.433 115.581  0.00  0.00     0.028 C 
ATOM     12  C   LIG d   1      -5.581  75.701 114.275  0.00  0.00     0.006 C 
ENDBRANCH   8  11
ENDBRANCH   7   8
ENDBRANCH   1   7
BRANCH   6  13
ATOM     13  N   LIG d   1      -4.211  80.389 117.394  0.00  0.00    -0.311 N 
ATOM     14  C   LIG d   1      -3.600  81.423 116.817  0.00  0.00     0.210 C 
ATOM     15  C   LIG d   1      -2.175  81.690 117.311  0.00  0.00     0.109 C 
ATOM     16  O   LIG d   1      -4.115  82.163 115.966  0.00  0.00    -0.276 OA
ATOM     17  H   LIG d   1      -3.731  79.863 118.097  0.00  0.00     0.149 HD
ENDBRANCH   6  13
BRANCH   5  18
ATOM     18  N   LIG d   1      -6.739  82.036 117.874  0.00  0.00     0.381 N 
ATOM     19  H   LIG d   1      -5.949  82.385 117.369  0.00  0.00    -0.090 HD
ATOM     20  H   LIG d   1      -6.721  82.428 118.799  0.00  0.00    -0.090 HD
ATOM     21  H   LIG d   1      -7.581  82.298 117.410  0.00  0.00    -0.090 HD
ENDBRANCH   5  18
BRANCH   3  22
ATOM     22  C   LIG d   1      -9.232  77.947 117.842  0.00  0.00     0.382 C 
ATOM     23  O   LIG d   1      -9.380  76.741 117.530  0.00  0.00    -0.241 OA
ATOM     24  O   LIG d   1     -10.172  78.560 118.381  0.00  0.00    -0.241 OA
ENDBRANCH   3  22
TORSDOF 7
ENDMDL
MODEL 2
REMARK VINA RESULT:      -4.9     10.001     12.836
REMARK  7 active torsions:
REMARK  status: ('A' for Active; 'I' for Inactive)
REMARK    1  A    between atoms: C_2  and  C_3 
REMARK    2  A    between atoms: C_3  and  O_6 
REMARK    3  A    between atoms: C_3  and  C_4 
REMARK    4  A    between atoms: C_7  and  O_6 
REMARK    5  A    between atoms: C_9  and  C_10 
REMARK    6  A    between atoms: N_15  and  C_14 
REMARK    7  A    between atoms: N_20  and  C_19 
REMARK       I    between atoms: C_22  and  N_20 
ROOT
ATOM      1  C   LIG d   1       3.673  85.409 113.602  0.00  0.00     0.161 C 
ATOM      2  C   LIG d   1       4.205  86.543 112.966  0.00  0.00     0.016 C 
ATOM      3  C   LIG d   1       5.024  87.491 113.623  0.00  0.00     0.038 C 
ATOM      4  C   LIG d   1       5.493  87.287 114.929  0.00  0.00     0.028 C 
ATOM      5  C   LIG d   1       4.572  86.412 115.773  0.00  0.00    -0.047 C 
ATOM      6  C   LIG d   1       4.264  85.112 114.996  0.00  0.00     0.091 C 
ENDROOT
BRANCH   1   7
ATOM      7  O   LIG d   1       3.810  84.259 112.744  0.00  0.00    -0.368 OA
BRANCH   7   8
ATOM      8  C   LIG d   1       2.643  83.903 111.963  0.00  0.00     0.119 C 
BRANCH   8   9
ATOM      9  C   LIG d   1       1.400  84.332 112.767  0.00  0.00     0.028 C 
ATOM     10  C   LIG d   1       0.335  85.006 111.886  0.00  0.00     0.006 C 
ENDBRANCH   8   9
BRANCH   8  11
ATOM     11  C   LIG d   1       2.519  82.385 111.805  0.00  0.00     0.028 C 
ATOM     12  C   LIG d   1       1.846  81.713 113.012  0.00  0.00     0.006 C 
ENDBRANCH   8  11
ENDBRANCH   7   8
ENDBRANCH   1   7
BRANCH   6  13
ATOM     13  N   LIG d   1       3.303  84.236 115.715  0.00  0.00    -0.311 N 
ATOM     14  C   LIG d   1       3.621  83.033 116.191  0.00  0.00     0.210 C 
ATOM     15  C   LIG d   1       2.475  82.287 116.882  0.00  0.00     0.109 C 
ATOM     16  O   LIG d   1       4.752  82.527 116.136  0.00  0.00    -0.276 OA
ATOM     17  H   LIG d   1       2.371  84.581 115.832  0.00  0.00     0.149 HD
ENDBRANCH   6  13
BRANCH   5  18
ATOM     18  N   LIG d   1       5.247  86.169 117.062  0.00  0.00     0.381 N 
ATOM     19  H   LIG d   1       4.631  85.680 117.680  0.00  0.00    -0.090 HD
ATOM     20  H   LIG d   1       5.477  87.053 117.481  0.00  0.00    -0.090 HD
ATOM     21  H   LIG d   1       6.077  85.636 116.918  0.00  0.00    -0.090 HD
ENDBRANCH   5  18
BRANCH   3  22
ATOM     22  C   LIG d   1       5.349  88.678 112.984  0.00  0.00     0.382 C 
ATOM     23  O   LIG d   1       6.446  88.787 112.384  0.00  0.00    -0.241 OA
ATOM     24  O   LIG d   1       4.579  89.655 113.037  0.00  0.00    -0.241 OA
ENDBRANCH   3  22
TORSDOF 7
ENDMDL
MODEL 3
REMARK VINA RESULT:      -4.8      9.064     13.896
REMARK  7 active torsions:
REMARK  status: ('A' for Active; 'I' for Inactive)
REMARK    1  A    between atoms: C_2  and  C_3 
REMARK    2  A    between atoms: C_3  and  O_6 
REMARK    3  A    between atoms: C_3  and  C_4 
REMARK    4  A    between atoms: C_7  and  O_6 
REMARK    5  A    between atoms: C_9  and  C_10 
REMARK    6  A    between atoms: N_15  and  C_14 
REMARK    7  A    between atoms: N_20  and  C_19 
REMARK       I    between atoms: C_22  and  N_20 
ROOT
ATOM      1  C   LIG d   1       2.511  87.831 115.289  0.00  0.00     0.161 C 
ATOM      2  C   LIG d   1       3.739  88.414 114.935  0.00  0.00     0.016 C 
ATOM      3  C   LIG d   1       4.476  88.041 113.787  0.00  0.00     0.038 C 
ATOM      4  C   LIG d   1       3.957  87.158 112.828  0.00  0.00     0.028 C 
ATOM      5  C   LIG d   1       2.947  86.168 113.399  0.00  0.00    -0.047 C 
ATOM      6  C   LIG d   1       1.876  86.947 114.195  0.00  0.00     0.091 C 
ENDROOT
BRANCH   1   7
ATOM      7  O   LIG d   1       1.586  88.855 115.704  0.00  0.00    -0.368 OA
BRANCH   7   8
ATOM      8  C   LIG d   1       1.823  89.437 117.010  0.00  0.00     0.119 C 
BRANCH   8   9
ATOM      9  C   LIG d   1       0.631  89.056 117.910  0.00  0.00     0.028 C 
ATOM     10  C   LIG d   1      -0.660  89.793 117.517  0.00  0.00     0.006 C 
ENDBRANCH   8   9
BRANCH   8  11
ATOM     11  C   LIG d   1       1.812  90.967 116.949  0.00  0.00     0.028 C 
ATOM     12  C   LIG d   1       3.133  91.592 117.424  0.00  0.00     0.006 C 
ENDBRANCH   8  11
ENDBRANCH   7   8
ENDBRANCH   1   7
BRANCH   6  13
ATOM     13  N   LIG d   1       0.896  86.046 114.858  0.00  0.00    -0.311 N 
ATOM     14  C   LIG d   1      -0.241  85.654 114.288  0.00  0.00     0.210 C 
ATOM     15  C   LIG d   1      -1.117  84.742 115.152  0.00  0.00     0.109 C 
ATOM     16  O   LIG d   1      -0.593  85.948 113.136  0.00  0.00    -0.276 OA
ATOM     17  H   LIG d   1       1.118  85.734 115.783  0.00  0.00     0.149 HD
ENDBRANCH   6  13
BRANCH   5  18
ATOM     18  N   LIG d   1       2.386  85.403 112.270  0.00  0.00     0.381 N 
ATOM     19  H   LIG d   1       2.106  86.029 111.541  0.00  0.00    -0.090 HD
ATOM     20  H   LIG d   1       1.573  84.905 112.587  0.00  0.00    -0.090 HD
ATOM     21  H   LIG d   1       3.064  84.760 111.923  0.00  0.00    -0.090 HD
ENDBRANCH   5  18
BRANCH   3  22
ATOM     22  C   LIG d   1       5.764  88.522 113.611  0.00  0.00     0.382 C 
ATOM     23  O   LIG d   1       6.507  88.704 114.606  0.00  0.00    -0.241 OA
ATOM     24  O   LIG d   1       6.178  88.818 112.474  0.00  0.00    -0.241 OA
ENDBRANCH   3  22
TORSDOF 7
ENDMDL
MODEL 4
REMARK VINA RESULT:      -4.8     10.169     13.715
REMARK  7 active torsions:
REMARK  status: ('A' for Active; 'I' for Inactive)
REMARK    1  A    between atoms: C_2  and  C_3 
REMARK    2  A    between atoms: C_3  and  O_6 
REMARK    3  A    between atoms: C_3  and  C_4 
REMARK    4  A    between atoms: C_7  and  O_6 
REMARK    5  A    between atoms: C_9  and  C_10 
REMARK    6  A    between atoms: N_15  and  C_14 
REMARK    7  A    between atoms: N_20  and  C_19 
REMARK       I    between atoms: C_22  and  N_20 
ROOT
ATOM      1  C   LIG d   1       3.341  88.522 115.567  0.00  0.00     0.161 C 
ATOM      2  C   LIG d   1       3.945  89.591 116.250  0.00  0.00     0.016 C 
ATOM      3  C   LIG d   1       3.225  90.520 117.036  0.00  0.00     0.038 C 
ATOM      4  C   LIG d   1       1.861  90.353 117.317  0.00  0.00     0.028 C 
ATOM      5  C   LIG d   1       1.112  89.575 116.240  0.00  0.00    -0.047 C 
ATOM      6  C   LIG d   1       1.870  88.259 115.952  0.00  0.00     0.091 C 
ENDROOT
BRANCH   1   7
ATOM      7  O   LIG d   1       4.126  87.326 115.740  0.00  0.00    -0.368 OA
BRANCH   7   8
ATOM      8  C   LIG d   1       4.920  86.915 114.600  0.00  0.00     0.119 C 
BRANCH   8   9
ATOM      9  C   LIG d   1       4.584  87.866 113.435  0.00  0.00     0.028 C 
ATOM     10  C   LIG d   1       5.769  88.769 113.054  0.00  0.00     0.006 C 
ENDBRANCH   8   9
BRANCH   8  11
ATOM     11  C   LIG d   1       4.517  85.520 114.114  0.00  0.00     0.028 C 
ATOM     12  C   LIG d   1       4.000  85.519 112.666  0.00  0.00     0.006 C 
ENDBRANCH   8  11
ENDBRANCH   7   8
ENDBRANCH   1   7
BRANCH   6  13
ATOM     13  N   LIG d   1       1.250  87.477 114.851  0.00  0.00    -0.311 N 
ATOM     14  C   LIG d   1       0.824  86.223 114.992  0.00  0.00     0.210 C 
ATOM     15  C   LIG d   1       0.235  85.594 113.725  0.00  0.00     0.109 C 
ATOM     16  O   LIG d   1       0.849  85.582 116.053  0.00  0.00    -0.276 OA
ATOM     17  H   LIG d   1       1.162  87.931 113.963  0.00  0.00     0.149 HD
ENDBRANCH   6  13
BRANCH   5  18
ATOM     18  N   LIG d   1      -0.264  89.355 116.725  0.00  0.00     0.381 N 
ATOM     19  H   LIG d   1      -0.890  89.988 116.268  0.00  0.00    -0.090 HD
ATOM     20  H   LIG d   1      -0.294  89.540 117.712  0.00  0.00    -0.090 HD
ATOM     21  H   LIG d   1      -0.543  88.415 116.547  0.00  0.00    -0.090 HD
ENDBRANCH   5  18
BRANCH   3  22
ATOM     22  C   LIG d   1       3.863  91.653 117.517  0.00  0.00     0.382 C 
ATOM     23  O   LIG d   1       4.573  91.582 118.549  0.00  0.00    -0.241 OA
ATOM     24  O   LIG d   1       3.701  92.754 116.958  0.00  0.00    -0.241 OA
ENDBRANCH   3  22
TORSDOF 7
ENDMDL
MODEL 5
REMARK VINA RESULT:      -4.7      9.902     13.820
REMARK  7 active torsions:
REMARK  status: ('A' for Active; 'I' for Inactive)
REMARK    1  A    between atoms: C_2  and  C_3 
REMARK    2  A    between atoms: C_3  and  O_6 
REMARK    3  A    between atoms: C_3  and  C_4 
REMARK    4  A    between atoms: C_7  and  O_6 
REMARK    5  A    between atoms: C_9  and  C_10 
REMARK    6  A    between atoms: N_15  and  C_14 
REMARK    7  A    between atoms: N_20  and  C_19 
REMARK       I    between atoms: C_22  and  N_20 
ROOT
ATOM      1  C   LIG d   1       2.925  88.708 115.813  0.00  0.00     0.161 C 
ATOM      2  C   LIG d   1       3.375  89.890 116.424  0.00  0.00     0.016 C 
ATOM      3  C   LIG d   1       2.521  90.785 117.110  0.00  0.00     0.038 C 
ATOM      4  C   LIG d   1       1.176  90.480 117.362  0.00  0.00     0.028 C 
ATOM      5  C   LIG d   1       0.564  89.538 116.330  0.00  0.00    -0.047 C 
ATOM      6  C   LIG d   1       1.480  88.303 116.173  0.00  0.00     0.091 C 
ENDROOT
BRANCH   1   7
ATOM      7  O   LIG d   1       3.835  87.629 116.105  0.00  0.00    -0.368 OA
BRANCH   7   8
ATOM      8  C   LIG d   1       4.730  87.242 115.034  0.00  0.00     0.119 C 
BRANCH   8   9
ATOM      9  C   LIG d   1       6.109  87.859 115.336  0.00  0.00     0.028 C 
ATOM     10  C   LIG d   1       6.978  86.949 116.221  0.00  0.00     0.006 C 
ENDBRANCH   8   9
BRANCH   8  11
ATOM     11  C   LIG d   1       4.296  87.853 113.698  0.00  0.00     0.028 C 
ATOM     12  C   LIG d   1       5.432  88.612 112.994  0.00  0.00     0.006 C 
ENDBRANCH   8  11
ENDBRANCH   7   8
ENDBRANCH   1   7
BRANCH   6  13
ATOM     13  N   LIG d   1       0.999  87.370 115.121  0.00  0.00    -0.311 N 
ATOM     14  C   LIG d   1       0.720  86.088 115.349  0.00  0.00     0.210 C 
ATOM     15  C   LIG d   1       0.257  85.298 114.121  0.00  0.00     0.109 C 
ATOM     16  O   LIG d   1       0.782  85.537 116.459  0.00  0.00    -0.276 OA
ATOM     17  H   LIG d   1       0.890  87.742 114.197  0.00  0.00     0.149 HD
ENDBRANCH   6  13
BRANCH   5  18
ATOM     18  N   LIG d   1      -0.795  89.196 116.790  0.00  0.00     0.381 N 
ATOM     19  H   LIG d   1      -1.384  90.003 116.737  0.00  0.00    -0.090 HD
ATOM     20  H   LIG d   1      -0.749  88.900 117.749  0.00  0.00    -0.090 HD
ATOM     21  H   LIG d   1      -1.171  88.464 116.227  0.00  0.00    -0.090 HD
ENDBRANCH   5  18
BRANCH   3  22
ATOM     22  C   LIG d   1       3.004  92.019 117.517  0.00  0.00     0.382 C 
ATOM     23  O   LIG d   1       2.545  92.563 118.550  0.00  0.00    -0.241 OA
ATOM     24  O   LIG d   1       3.862  92.617 116.839  0.00  0.00    -0.241 OA
ENDBRANCH   3  22
TORSDOF 7
ENDMDL
MODEL 6
REMARK VINA RESULT:      -4.6     10.539     13.045
REMARK  7 active torsions:
REMARK  status: ('A' for Active; 'I' for Inactive)
REMARK    1  A    between atoms: C_2  and  C_3 
REMARK    2  A    between atoms: C_3  and  O_6 
REMARK    3  A    between atoms: C_3  and  C_4 
REMARK    4  A    between atoms: C_7  and  O_6 
REMARK    5  A    between atoms: C_9  and  C_10 
REMARK    6  A    between atoms: N_15  and  C_14 
REMARK    7  A    between atoms: N_20  and  C_19 
REMARK       I    between atoms: C_22  and  N_20 
ROOT
ATOM      1  C   LIG d   1       1.679  88.851 116.253  0.00  0.00     0.161 C 
ATOM      2  C   LIG d   1       0.408  89.266 116.684  0.00  0.00     0.016 C 
ATOM      3  C   LIG d   1       0.167  90.511 117.310  0.00  0.00     0.038 C 
ATOM      4  C   LIG d   1       1.162  91.494 117.412  0.00  0.00     0.028 C 
ATOM      5  C   LIG d   1       2.576  90.924 117.447  0.00  0.00    -0.047 C 
ATOM      6  C   LIG d   1       2.756  89.956 116.256  0.00  0.00     0.091 C 
ENDROOT
BRANCH   1   7
ATOM      7  O   LIG d   1       1.580  88.251 114.946  0.00  0.00    -0.368 OA
BRANCH   7   8
ATOM      8  C   LIG d   1       1.906  86.841 114.866  0.00  0.00     0.119 C 
BRANCH   8   9
ATOM      9  C   LIG d   1       0.667  86.110 114.313  0.00  0.00     0.028 C 
ATOM     10  C   LIG d   1      -0.382  85.828 115.402  0.00  0.00     0.006 C 
ENDBRANCH   8   9
BRANCH   8  11
ATOM     11  C   LIG d   1       2.144  86.244 116.256  0.00  0.00     0.028 C 
ATOM     12  C   LIG d   1       3.555  85.657 116.419  0.00  0.00     0.006 C 
ENDBRANCH   8  11
ENDBRANCH   7   8
ENDBRANCH   1   7
BRANCH   6  13
ATOM     13  N   LIG d   1       4.084  89.289 116.263  0.00  0.00    -0.311 N 
ATOM     14  C   LIG d   1       4.827  89.122 115.169  0.00  0.00     0.210 C 
ATOM     15  C   LIG d   1       6.154  88.391 115.395  0.00  0.00     0.109 C 
ATOM     16  O   LIG d   1       4.526  89.537 114.040  0.00  0.00    -0.276 OA
ATOM     17  H   LIG d   1       4.419  88.949 117.143  0.00  0.00     0.149 HD
ENDBRANCH   6  13
BRANCH   5  18
ATOM     18  N   LIG d   1       3.516  92.061 117.415  0.00  0.00     0.381 N 
ATOM     19  H   LIG d   1       3.780  92.308 118.348  0.00  0.00    -0.090 HD
ATOM     20  H   LIG d   1       3.057  92.851 116.998  0.00  0.00    -0.090 HD
ATOM     21  H   LIG d   1       4.325  91.820 116.886  0.00  0.00    -0.090 HD
ENDBRANCH   5  18
BRANCH   3  22
ATOM     22  C   LIG d   1      -1.072  90.766 117.878  0.00  0.00     0.382 C 
ATOM     23  O   LIG d   1      -1.452  91.950 118.047  0.00  0.00    -0.241 OA
ATOM     24  O   LIG d   1      -1.795  89.828 118.263  0.00  0.00    -0.241 OA
ENDBRANCH   3  22
TORSDOF 7
ENDMDL
MODEL 7
REMARK VINA RESULT:      -4.5     15.352     18.202
REMARK  7 active torsions:
REMARK  status: ('A' for Active; 'I' for Inactive)
REMARK    1  A    between atoms: C_2  and  C_3 
REMARK    2  A    between atoms: C_3  and  O_6 
REMARK    3  A    between atoms: C_3  and  C_4 
REMARK    4  A    between atoms: C_7  and  O_6 
REMARK    5  A    between atoms: C_9  and  C_10 
REMARK    6  A    between atoms: N_15  and  C_14 
REMARK    7  A    between atoms: N_20  and  C_19 
REMARK       I    between atoms: C_22  and  N_20 
ROOT
ATOM      1  C   LIG d   1      11.564  78.839 114.281  0.00  0.00     0.161 C 
ATOM      2  C   LIG d   1      10.197  79.126 114.426  0.00  0.00     0.016 C 
ATOM      3  C   LIG d   1       9.250  78.186 114.893  0.00  0.00     0.038 C 
ATOM      4  C   LIG d   1       9.633  76.933 115.393  0.00  0.00     0.028 C 
ATOM      5  C   LIG d   1      10.938  76.416 114.796  0.00  0.00    -0.047 C 
ATOM      6  C   LIG d   1      12.019  77.513 114.926  0.00  0.00     0.091 C 
ENDROOT
BRANCH   1   7
ATOM      7  O   LIG d   1      12.350  79.937 114.785  0.00  0.00    -0.368 OA
BRANCH   7   8
ATOM      8  C   LIG d   1      13.078  80.707 113.796  0.00  0.00     0.119 C 
BRANCH   8   9
ATOM      9  C   LIG d   1      12.902  80.000 112.438  0.00  0.00     0.028 C 
ATOM     10  C   LIG d   1      14.237  79.501 111.859  0.00  0.00     0.006 C 
ENDBRANCH   8   9
BRANCH   8  11
ATOM     11  C   LIG d   1      14.585  80.685 114.073  0.00  0.00     0.028 C 
ATOM     12  C   LIG d   1      14.915  80.521 115.565  0.00  0.00     0.006 C 
ENDBRANCH   8  11
ENDBRANCH   7   8
ENDBRANCH   1   7
BRANCH   6  13
ATOM     13  N   LIG d   1      13.304  77.121 114.290  0.00  0.00    -0.311 N 
ATOM     14  C   LIG d   1      14.431  76.928 114.974  0.00  0.00     0.210 C 
ATOM     15  C   LIG d   1      15.646  76.548 114.122  0.00  0.00     0.109 C 
ATOM     16  O   LIG d   1      14.531  77.003 116.207  0.00  0.00    -0.276 OA
ATOM     17  H   LIG d   1      13.305  77.008 113.295  0.00  0.00     0.149 HD
ENDBRANCH   6  13
BRANCH   5  18
ATOM     18  N   LIG d   1      11.290  75.171 115.504  0.00  0.00     0.381 N 
ATOM     19  H   LIG d   1      12.282  75.040 115.487  0.00  0.00    -0.090 HD
ATOM     20  H   LIG d   1      10.862  74.395 115.030  0.00  0.00    -0.090 HD
ATOM     21  H   LIG d   1      10.969  75.212 116.446  0.00  0.00    -0.090 HD
ENDBRANCH   5  18
BRANCH   3  22
ATOM     22  C   LIG d   1       7.897  78.482 114.826  0.00  0.00     0.382 C 
ATOM     23  O   LIG d   1       7.512  79.674 114.893  0.00  0.00    -0.241 OA
ATOM     24  O   LIG d   1       7.054  77.569 114.743  0.00  0.00    -0.241 OA
ENDBRANCH   3  22
TORSDOF 7
ENDMDL
MODEL 8
REMARK VINA RESULT:      -4.4     14.208     17.143
REMARK  7 active torsions:
REMARK  status: ('A' for Active; 'I' for Inactive)
REMARK    1  A    between atoms: C_2  and  C_3 
REMARK    2  A    between atoms: C_3  and  O_6 
REMARK    3  A    between atoms: C_3  and  C_4 
REMARK    4  A    between atoms: C_7  and  O_6 
REMARK    5  A    between atoms: C_9  and  C_10 
REMARK    6  A    between atoms: N_15  and  C_14 
REMARK    7  A    between atoms: N_20  and  C_19 
REMARK       I    between atoms: C_22  and  N_20 
ROOT
ATOM      1  C   LIG d   1      10.298  79.058 114.322  0.00  0.00     0.161 C 
ATOM      2  C   LIG d   1       9.002  78.904 114.841  0.00  0.00     0.016 C 
ATOM      3  C   LIG d   1       8.550  77.720 115.467  0.00  0.00     0.038 C 
ATOM      4  C   LIG d   1       9.418  76.655 115.753  0.00  0.00     0.028 C 
ATOM      5  C   LIG d   1      10.603  76.566 114.797  0.00  0.00    -0.047 C 
ATOM      6  C   LIG d   1      11.292  77.948 114.723  0.00  0.00     0.091 C 
ENDROOT
BRANCH   1   7
ATOM      7  O   LIG d   1      10.820  80.352 114.684  0.00  0.00    -0.368 OA
BRANCH   7   8
ATOM      8  C   LIG d   1      11.626  80.400 115.887  0.00  0.00     0.119 C 
BRANCH   8   9
ATOM      9  C   LIG d   1      10.720  80.896 117.031  0.00  0.00     0.028 C 
ATOM     10  C   LIG d   1      10.487  79.818 118.104  0.00  0.00     0.006 C 
ENDBRANCH   8   9
BRANCH   8  11
ATOM     11  C   LIG d   1      12.739  81.445 115.770  0.00  0.00     0.028 C 
ATOM     12  C   LIG d   1      13.498  81.360 114.436  0.00  0.00     0.006 C 
ENDBRANCH   8  11
ENDBRANCH   7   8
ENDBRANCH   1   7
BRANCH   6  13
ATOM     13  N   LIG d   1      12.411  77.971 113.745  0.00  0.00    -0.311 N 
ATOM     14  C   LIG d   1      13.682  77.759 114.081  0.00  0.00     0.210 C 
ATOM     15  C   LIG d   1      14.680  77.848 112.922  0.00  0.00     0.109 C 
ATOM     16  O   LIG d   1      14.074  77.474 115.222  0.00  0.00    -0.276 OA
ATOM     17  H   LIG d   1      12.179  78.164 112.790  0.00  0.00     0.149 HD
ENDBRANCH   6  13
BRANCH   5  18
ATOM     18  N   LIG d   1      11.495  75.501 115.292  0.00  0.00     0.381 N 
ATOM     19  H   LIG d   1      11.321  74.653 114.790  0.00  0.00    -0.090 HD
ATOM     20  H   LIG d   1      11.300  75.338 116.264  0.00  0.00    -0.090 HD
ATOM     21  H   LIG d   1      12.447  75.773 115.178  0.00  0.00    -0.090 HD
ENDBRANCH   5  18
BRANCH   3  22
ATOM     22  C   LIG d   1       7.207  77.577 115.779  0.00  0.00     0.382 C 
ATOM     23  O   LIG d   1       6.862  77.292 116.952  0.00  0.00    -0.241 OA
ATOM     24  O   LIG d   1       6.338  77.686 114.894  0.00  0.00    -0.241 OA
ENDBRANCH   3  22
TORSDOF 7
ENDMDL
MODEL 9
REMARK VINA RESULT:      -4.4      6.278      8.817
REMARK  7 active torsions:
REMARK  status: ('A' for Active; 'I' for Inactive)
REMARK    1  A    between atoms: C_2  and  C_3 
REMARK    2  A    between atoms: C_3  and  O_6 
REMARK    3  A    between atoms: C_3  and  C_4 
REMARK    4  A    between atoms: C_7  and  O_6 
REMARK    5  A    between atoms: C_9  and  C_10 
REMARK    6  A    between atoms: N_15  and  C_14 
REMARK    7  A    between atoms: N_20  and  C_19 
REMARK       I    between atoms: C_22  and  N_20 
ROOT
ATOM      1  C   LIG d   1       1.303  81.558 113.283  0.00  0.00     0.161 C 
ATOM      2  C   LIG d   1       0.029  81.476 112.696  0.00  0.00     0.016 C 
ATOM      3  C   LIG d   1      -1.164  81.341 113.441  0.00  0.00     0.038 C 
ATOM      4  C   LIG d   1      -1.179  81.432 114.841  0.00  0.00     0.028 C 
ATOM      5  C   LIG d   1       0.136  81.009 115.489  0.00  0.00    -0.047 C 
ATOM      6  C   LIG d   1       1.297  81.771 114.811  0.00  0.00     0.091 C 
ENDROOT
BRANCH   1   7
ATOM      7  O   LIG d   1       2.073  82.590 112.636  0.00  0.00    -0.368 OA
BRANCH   7   8
ATOM      8  C   LIG d   1       1.967  83.918 113.207  0.00  0.00     0.119 C 
BRANCH   8   9
ATOM      9  C   LIG d   1       1.227  84.803 112.185  0.00  0.00     0.028 C 
ATOM     10  C   LIG d   1      -0.163  85.236 112.681  0.00  0.00     0.006 C 
ENDBRANCH   8   9
BRANCH   8  11
ATOM     11  C   LIG d   1       3.345  84.563 113.379  0.00  0.00     0.028 C 
ATOM     12  C   LIG d   1       3.418  85.496 114.598  0.00  0.00     0.006 C 
ENDBRANCH   8  11
ENDBRANCH   7   8
ENDBRANCH   1   7
BRANCH   6  13
ATOM     13  N   LIG d   1       2.627  81.354 115.328  0.00  0.00    -0.311 N 
ATOM     14  C   LIG d   1       3.260  81.984 116.316  0.00  0.00     0.210 C 
ATOM     15  C   LIG d   1       4.629  81.401 116.682  0.00  0.00     0.109 C 
ATOM     16  O   LIG d   1       2.804  82.949 116.946  0.00  0.00    -0.276 OA
ATOM     17  H   LIG d   1       3.056  80.560 114.895  0.00  0.00     0.149 HD
ENDBRANCH   6  13
BRANCH   5  18
ATOM     18  N   LIG d   1       0.029  81.284 116.934  0.00  0.00     0.381 N 
ATOM     19  H   LIG d   1       0.245  80.456 117.453  0.00  0.00    -0.090 HD
ATOM     20  H   LIG d   1      -0.917  81.551 117.145  0.00  0.00    -0.090 HD
ATOM     21  H   LIG d   1       0.654  82.017 117.189  0.00  0.00    -0.090 HD
ENDBRANCH   5  18
BRANCH   3  22
ATOM     22  C   LIG d   1      -2.357  81.073 112.787  0.00  0.00     0.382 C 
ATOM     23  O   LIG d   1      -2.814  79.905 112.771  0.00  0.00    -0.241 OA
ATOM     24  O   LIG d   1      -2.959  81.976 112.174  0.00  0.00    -0.241 OA
ENDBRANCH   3  22
TORSDOF 7
ENDMDL
