MODEL 1
REMARK VINA RESULT:      -5.6      0.000      0.000
REMARK  7 active torsions:
REMARK  status: ('A' for Active; 'I' for Inactive)
REMARK    1  A    between atoms: C_2  and  C_3 
REMARK    2  A    between atoms: C_3  and  O_6 
REMARK    3  A    between atoms: C_3  and  C_4 
REMARK    4  A    between atoms: C_7  and  O_6 
REMARK    5  A    between atoms: C_9  and  C_10 
REMARK    6  A    between atoms: N_15  and  C_14 
REMARK    7  A    between atoms: N_20  and  C_19 
REMARK       I    between atoms: C_22  and  N_20 
ROOT
ATOM      1  C   LIG d   1      -2.989  77.039 114.991  0.00  0.00     0.161 C 
ATOM      2  C   LIG d   1      -3.174  78.066 114.051  0.00  0.00     0.016 C 
ATOM      3  C   LIG d   1      -2.128  78.905 113.600  0.00  0.00     0.038 C 
ATOM      4  C   LIG d   1      -0.789  78.672 113.947  0.00  0.00     0.028 C 
ATOM      5  C   LIG d   1      -0.625  77.962 115.287  0.00  0.00    -0.047 C 
ATOM      6  C   LIG d   1      -1.516  76.698 115.297  0.00  0.00     0.091 C 
ENDROOT
BRANCH   1   7
ATOM      7  O   LIG d   1      -3.699  75.857 114.568  0.00  0.00    -0.368 OA
BRANCH   7   8
ATOM      8  C   LIG d   1      -4.718  75.367 115.474  0.00  0.00     0.119 C 
BRANCH   8   9
ATOM      9  C   LIG d   1      -5.992  75.115 114.645  0.00  0.00     0.028 C 
ATOM     10  C   LIG d   1      -5.995  75.897 113.321  0.00  0.00     0.006 C 
ENDBRANCH   8   9
BRANCH   8  11
ATOM     11  C   LIG d   1      -5.107  76.432 116.503  0.00  0.00     0.028 C 
ATOM     12  C   LIG d   1      -6.620  76.477 116.771  0.00  0.00     0.006 C 
ENDBRANCH   8  11
ENDBRANCH   7   8
ENDBRANCH   1   7
BRANCH   6  13
ATOM     13  N   LIG d   1      -1.479  75.990 116.602  0.00  0.00    -0.311 N 
ATOM     14  C   LIG d   1      -1.110  74.717 116.736  0.00  0.00     0.210 C 
ATOM     15  C   LIG d   1      -1.164  74.175 118.168  0.00  0.00     0.109 C 
ATOM     16  O   LIG d   1      -0.713  73.995 115.809  0.00  0.00    -0.276 OA
ATOM     17  H   LIG d   1      -1.756  76.510 117.412  0.00  0.00     0.149 HD
ENDBRANCH   6  13
BRANCH   5  18
ATOM     18  N   LIG d   1       0.808  77.660 115.459  0.00  0.00     0.381 N 
ATOM     19  H   LIG d   1       0.917  76.831 116.007  0.00  0.00    -0.090 HD
ATOM     20  H   LIG d   1       1.244  78.422 115.948  0.00  0.00    -0.090 HD
ATOM     21  H   LIG d   1       1.240  77.537 114.569  0.00  0.00    -0.090 HD
ENDBRANCH   5  18
BRANCH   3  22
ATOM     22  C   LIG d   1      -2.424  80.015 112.823  0.00  0.00     0.382 C 
ATOM     23  O   LIG d   1      -1.661  80.343 111.883  0.00  0.00    -0.241 OA
ATOM     24  O   LIG d   1      -3.421  80.717 113.079  0.00  0.00    -0.241 OA
ENDBRANCH   3  22
TORSDOF 7
ENDMDL
MODEL 2
REMARK VINA RESULT:      -5.1     21.931     24.391
REMARK  7 active torsions:
REMARK  status: ('A' for Active; 'I' for Inactive)
REMARK    1  A    between atoms: C_2  and  C_3 
REMARK    2  A    between atoms: C_3  and  O_6 
REMARK    3  A    between atoms: C_3  and  C_4 
REMARK    4  A    between atoms: C_7  and  O_6 
REMARK    5  A    between atoms: C_9  and  C_10 
REMARK    6  A    between atoms: N_15  and  C_14 
REMARK    7  A    between atoms: N_20  and  C_19 
REMARK       I    between atoms: C_22  and  N_20 
ROOT
ATOM      1  C   LIG d   1     -25.584  85.458 114.210  0.00  0.00     0.161 C 
ATOM      2  C   LIG d   1     -24.464  86.304 114.268  0.00  0.00     0.016 C 
ATOM      3  C   LIG d   1     -23.169  85.911 113.860  0.00  0.00     0.038 C 
ATOM      4  C   LIG d   1     -22.934  84.685 113.219  0.00  0.00     0.028 C 
ATOM      5  C   LIG d   1     -23.938  83.602 113.598  0.00  0.00    -0.047 C 
ATOM      6  C   LIG d   1     -25.369  84.156 113.411  0.00  0.00     0.091 C 
ENDROOT
BRANCH   1   7
ATOM      7  O   LIG d   1     -26.717  86.182 113.692  0.00  0.00    -0.368 OA
BRANCH   7   8
ATOM      8  C   LIG d   1     -26.846  86.218 112.249  0.00  0.00     0.119 C 
BRANCH   8   9
ATOM      9  C   LIG d   1     -26.681  87.685 111.806  0.00  0.00     0.028 C 
ATOM     10  C   LIG d   1     -27.174  88.679 112.871  0.00  0.00     0.006 C 
ENDBRANCH   8   9
BRANCH   8  11
ATOM     11  C   LIG d   1     -28.255  85.816 111.805  0.00  0.00     0.028 C 
ATOM     12  C   LIG d   1     -29.160  85.419 112.982  0.00  0.00     0.006 C 
ENDBRANCH   8  11
ENDBRANCH   7   8
ENDBRANCH   1   7
BRANCH   6  13
ATOM     13  N   LIG d   1     -26.412  83.188 113.839  0.00  0.00    -0.311 N 
ATOM     14  C   LIG d   1     -27.004  82.332 113.008  0.00  0.00     0.210 C 
ATOM     15  C   LIG d   1     -28.066  81.435 113.651  0.00  0.00     0.109 C 
ATOM     16  O   LIG d   1     -26.727  82.208 111.805  0.00  0.00    -0.276 OA
ATOM     17  H   LIG d   1     -26.675  83.199 114.805  0.00  0.00     0.149 HD
ENDBRANCH   6  13
BRANCH   5  18
ATOM     18  N   LIG d   1     -23.660  82.423 112.756  0.00  0.00     0.381 N 
ATOM     19  H   LIG d   1     -24.250  82.436 111.948  0.00  0.00    -0.090 HD
ATOM     20  H   LIG d   1     -23.865  81.592 113.283  0.00  0.00    -0.090 HD
ATOM     21  H   LIG d   1     -22.703  82.420 112.478  0.00  0.00    -0.090 HD
ENDBRANCH   5  18
BRANCH   3  22
ATOM     22  C   LIG d   1     -22.085  86.733 114.127  0.00  0.00     0.382 C 
ATOM     23  O   LIG d   1     -20.982  86.519 113.567  0.00  0.00    -0.241 OA
ATOM     24  O   LIG d   1     -22.182  87.658 114.955  0.00  0.00    -0.241 OA
ENDBRANCH   3  22
TORSDOF 7
ENDMDL
MODEL 3
REMARK VINA RESULT:      -5.1      2.369      4.933
REMARK  7 active torsions:
REMARK  status: ('A' for Active; 'I' for Inactive)
REMARK    1  A    between atoms: C_2  and  C_3 
REMARK    2  A    between atoms: C_3  and  O_6 
REMARK    3  A    between atoms: C_3  and  C_4 
REMARK    4  A    between atoms: C_7  and  O_6 
REMARK    5  A    between atoms: C_9  and  C_10 
REMARK    6  A    between atoms: N_15  and  C_14 
REMARK    7  A    between atoms: N_20  and  C_19 
REMARK       I    between atoms: C_22  and  N_20 
ROOT
ATOM      1  C   LIG d   1      -3.100  77.852 116.028  0.00  0.00     0.161 C 
ATOM      2  C   LIG d   1      -1.882  78.375 116.493  0.00  0.00     0.016 C 
ATOM      3  C   LIG d   1      -0.902  77.598 117.152  0.00  0.00     0.038 C 
ATOM      4  C   LIG d   1      -1.010  76.203 117.257  0.00  0.00     0.028 C 
ATOM      5  C   LIG d   1      -2.451  75.705 117.251  0.00  0.00    -0.047 C 
ATOM      6  C   LIG d   1      -3.187  76.312 116.035  0.00  0.00     0.091 C 
ENDROOT
BRANCH   1   7
ATOM      7  O   LIG d   1      -3.380  78.364 114.710  0.00  0.00    -0.368 OA
BRANCH   7   8
ATOM      8  C   LIG d   1      -2.228  78.712 113.903  0.00  0.00     0.119 C 
BRANCH   8   9
ATOM      9  C   LIG d   1      -2.592  79.972 113.095  0.00  0.00     0.028 C 
ATOM     10  C   LIG d   1      -1.368  80.606 112.414  0.00  0.00     0.006 C 
ENDBRANCH   8   9
BRANCH   8  11
ATOM     11  C   LIG d   1      -1.934  77.631 112.859  0.00  0.00     0.028 C 
ATOM     12  C   LIG d   1      -0.849  76.642 113.314  0.00  0.00     0.006 C 
ENDBRANCH   8  11
ENDBRANCH   7   8
ENDBRANCH   1   7
BRANCH   6  13
ATOM     13  N   LIG d   1      -4.626  75.942 116.000  0.00  0.00    -0.311 N 
ATOM     14  C   LIG d   1      -5.260  75.565 114.891  0.00  0.00     0.210 C 
ATOM     15  C   LIG d   1      -6.747  75.247 115.073  0.00  0.00     0.109 C 
ATOM     16  O   LIG d   1      -4.724  75.433 113.781  0.00  0.00    -0.276 OA
ATOM     17  H   LIG d   1      -5.130  75.991 116.864  0.00  0.00     0.149 HD
ENDBRANCH   6  13
BRANCH   5  18
ATOM     18  N   LIG d   1      -2.413  74.230 117.227  0.00  0.00     0.381 N 
ATOM     19  H   LIG d   1      -1.483  73.913 117.417  0.00  0.00    -0.090 HD
ATOM     20  H   LIG d   1      -2.673  73.913 116.310  0.00  0.00    -0.090 HD
ATOM     21  H   LIG d   1      -3.043  73.862 117.905  0.00  0.00    -0.090 HD
ENDBRANCH   5  18
BRANCH   3  22
ATOM     22  C   LIG d   1       0.182  78.222 117.750  0.00  0.00     0.382 C 
ATOM     23  O   LIG d   1       0.908  77.585 118.552  0.00  0.00    -0.241 OA
ATOM     24  O   LIG d   1       0.418  79.425 117.532  0.00  0.00    -0.241 OA
ENDBRANCH   3  22
TORSDOF 7
ENDMDL
MODEL 4
REMARK VINA RESULT:      -4.8      8.569     10.995
REMARK  7 active torsions:
REMARK  status: ('A' for Active; 'I' for Inactive)
REMARK    1  A    between atoms: C_2  and  C_3 
REMARK    2  A    between atoms: C_3  and  O_6 
REMARK    3  A    between atoms: C_3  and  C_4 
REMARK    4  A    between atoms: C_7  and  O_6 
REMARK    5  A    between atoms: C_9  and  C_10 
REMARK    6  A    between atoms: N_15  and  C_14 
REMARK    7  A    between atoms: N_20  and  C_19 
REMARK       I    between atoms: C_22  and  N_20 
ROOT
ATOM      1  C   LIG d   1       3.773  85.556 113.580  0.00  0.00     0.161 C 
ATOM      2  C   LIG d   1       4.285  86.705 112.955  0.00  0.00     0.016 C 
ATOM      3  C   LIG d   1       4.935  87.747 113.655  0.00  0.00     0.038 C 
ATOM      4  C   LIG d   1       5.254  87.639 115.017  0.00  0.00     0.028 C 
ATOM      5  C   LIG d   1       4.311  86.722 115.789  0.00  0.00    -0.047 C 
ATOM      6  C   LIG d   1       4.210  85.369 115.048  0.00  0.00     0.091 C 
ENDROOT
BRANCH   1   7
ATOM      7  O   LIG d   1       4.109  84.388 112.805  0.00  0.00    -0.368 OA
BRANCH   7   8
ATOM      8  C   LIG d   1       3.006  83.724 112.141  0.00  0.00     0.119 C 
BRANCH   8   9
ATOM      9  C   LIG d   1       1.707  84.412 112.602  0.00  0.00     0.028 C 
ATOM     10  C   LIG d   1       0.726  83.430 113.264  0.00  0.00     0.006 C 
ENDBRANCH   8   9
BRANCH   8  11
ATOM     11  C   LIG d   1       2.877  82.267 112.595  0.00  0.00     0.028 C 
ATOM     12  C   LIG d   1       4.238  81.574 112.767  0.00  0.00     0.006 C 
ENDBRANCH   8  11
ENDBRANCH   7   8
ENDBRANCH   1   7
BRANCH   6  13
ATOM     13  N   LIG d   1       3.242  84.442 115.690  0.00  0.00    -0.311 N 
ATOM     14  C   LIG d   1       3.568  83.224 116.119  0.00  0.00     0.210 C 
ATOM     15  C   LIG d   1       2.414  82.425 116.733  0.00  0.00     0.109 C 
ATOM     16  O   LIG d   1       4.709  82.741 116.078  0.00  0.00    -0.276 OA
ATOM     17  H   LIG d   1       2.300  84.765 115.792  0.00  0.00     0.149 HD
ENDBRANCH   6  13
BRANCH   5  18
ATOM     18  N   LIG d   1       4.839  86.592 117.160  0.00  0.00     0.381 N 
ATOM     19  H   LIG d   1       4.659  85.671 117.506  0.00  0.00    -0.090 HD
ATOM     20  H   LIG d   1       4.366  87.250 117.754  0.00  0.00    -0.090 HD
ATOM     21  H   LIG d   1       5.819  86.772 117.167  0.00  0.00    -0.090 HD
ENDBRANCH   5  18
BRANCH   3  22
ATOM     22  C   LIG d   1       5.238  88.931 113.000  0.00  0.00     0.382 C 
ATOM     23  O   LIG d   1       4.315  89.692 112.621  0.00  0.00    -0.241 OA
ATOM     24  O   LIG d   1       6.421  89.226 112.743  0.00  0.00    -0.241 OA
ENDBRANCH   3  22
TORSDOF 7
ENDMDL
MODEL 5
REMARK VINA RESULT:      -4.7      8.945     11.415
REMARK  7 active torsions:
REMARK  status: ('A' for Active; 'I' for Inactive)
REMARK    1  A    between atoms: C_2  and  C_3 
REMARK    2  A    between atoms: C_3  and  O_6 
REMARK    3  A    between atoms: C_3  and  C_4 
REMARK    4  A    between atoms: C_7  and  O_6 
REMARK    5  A    between atoms: C_9  and  C_10 
REMARK    6  A    between atoms: N_15  and  C_14 
REMARK    7  A    between atoms: N_20  and  C_19 
REMARK       I    between atoms: C_22  and  N_20 
ROOT
ATOM      1  C   LIG d   1       4.234  85.962 115.323  0.00  0.00     0.161 C 
ATOM      2  C   LIG d   1       4.673  87.171 114.760  0.00  0.00     0.016 C 
ATOM      3  C   LIG d   1       4.556  87.476 113.384  0.00  0.00     0.038 C 
ATOM      4  C   LIG d   1       3.851  86.648 112.498  0.00  0.00     0.028 C 
ATOM      5  C   LIG d   1       3.834  85.183 112.923  0.00  0.00    -0.047 C 
ATOM      6  C   LIG d   1       3.363  85.093 114.392  0.00  0.00     0.091 C 
ENDROOT
BRANCH   1   7
ATOM      7  O   LIG d   1       3.541  86.222 116.560  0.00  0.00    -0.368 OA
BRANCH   7   8
ATOM      8  C   LIG d   1       2.312  86.981 116.454  0.00  0.00     0.119 C 
BRANCH   8   9
ATOM      9  C   LIG d   1       2.431  88.189 117.403  0.00  0.00     0.028 C 
ATOM     10  C   LIG d   1       2.384  89.531 116.653  0.00  0.00     0.006 C 
ENDBRANCH   8   9
BRANCH   8  11
ATOM     11  C   LIG d   1       1.114  86.177 116.969  0.00  0.00     0.028 C 
ATOM     12  C   LIG d   1       1.528  85.001 117.867  0.00  0.00     0.006 C 
ENDBRANCH   8  11
ENDBRANCH   7   8
ENDBRANCH   1   7
BRANCH   6  13
ATOM     13  N   LIG d   1       3.397  83.701 114.914  0.00  0.00    -0.311 N 
ATOM     14  C   LIG d   1       2.339  82.892 114.913  0.00  0.00     0.210 C 
ATOM     15  C   LIG d   1       2.586  81.505 115.515  0.00  0.00     0.109 C 
ATOM     16  O   LIG d   1       1.229  83.180 114.441  0.00  0.00    -0.276 OA
ATOM     17  H   LIG d   1       4.267  83.375 115.287  0.00  0.00     0.149 HD
ENDBRANCH   6  13
BRANCH   5  18
ATOM     18  N   LIG d   1       2.952  84.459 111.988  0.00  0.00     0.381 N 
ATOM     19  H   LIG d   1       2.374  83.818 112.494  0.00  0.00    -0.090 HD
ATOM     20  H   LIG d   1       3.520  83.932 111.348  0.00  0.00    -0.090 HD
ATOM     21  H   LIG d   1       2.384  85.105 111.485  0.00  0.00    -0.090 HD
ENDBRANCH   5  18
BRANCH   3  22
ATOM     22  C   LIG d   1       5.184  88.603 112.874  0.00  0.00     0.382 C 
ATOM     23  O   LIG d   1       4.535  89.665 112.719  0.00  0.00    -0.241 OA
ATOM     24  O   LIG d   1       6.379  88.557 112.527  0.00  0.00    -0.241 OA
ENDBRANCH   3  22
TORSDOF 7
ENDMDL
MODEL 6
REMARK VINA RESULT:      -4.6     16.327     19.605
REMARK  7 active torsions:
REMARK  status: ('A' for Active; 'I' for Inactive)
REMARK    1  A    between atoms: C_2  and  C_3 
REMARK    2  A    between atoms: C_3  and  O_6 
REMARK    3  A    between atoms: C_3  and  C_4 
REMARK    4  A    between atoms: C_7  and  O_6 
REMARK    5  A    between atoms: C_9  and  C_10 
REMARK    6  A    between atoms: N_15  and  C_14 
REMARK    7  A    between atoms: N_20  and  C_19 
REMARK       I    between atoms: C_22  and  N_20 
ROOT
ATOM      1  C   LIG d   1     -16.481  65.026 117.042  0.00  0.00     0.161 C 
ATOM      2  C   LIG d   1     -15.461  64.128 117.400  0.00  0.00     0.016 C 
ATOM      3  C   LIG d   1     -15.622  62.723 117.391  0.00  0.00     0.038 C 
ATOM      4  C   LIG d   1     -16.775  62.113 116.876  0.00  0.00     0.028 C 
ATOM      5  C   LIG d   1     -18.021  62.987 116.977  0.00  0.00    -0.047 C 
ATOM      6  C   LIG d   1     -17.709  64.375 116.372  0.00  0.00     0.091 C 
ENDROOT
BRANCH   1   7
ATOM      7  O   LIG d   1     -15.944  66.066 116.202  0.00  0.00    -0.368 OA
BRANCH   7   8
ATOM      8  C   LIG d   1     -15.288  67.162 116.886  0.00  0.00     0.119 C 
BRANCH   8   9
ATOM      9  C   LIG d   1     -16.068  67.430 118.187  0.00  0.00     0.028 C 
ATOM     10  C   LIG d   1     -17.105  68.554 118.029  0.00  0.00     0.006 C 
ENDBRANCH   8   9
BRANCH   8  11
ATOM     11  C   LIG d   1     -15.387  68.461 116.080  0.00  0.00     0.028 C 
ATOM     12  C   LIG d   1     -14.724  68.356 114.697  0.00  0.00     0.006 C 
ENDBRANCH   8  11
ENDBRANCH   7   8
ENDBRANCH   1   7
BRANCH   6  13
ATOM     13  N   LIG d   1     -18.848  65.321 116.506  0.00  0.00    -0.311 N 
ATOM     14  C   LIG d   1     -19.764  65.504 115.557  0.00  0.00     0.210 C 
ATOM     15  C   LIG d   1     -20.842  66.540 115.890  0.00  0.00     0.109 C 
ATOM     16  O   LIG d   1     -19.805  64.883 114.484  0.00  0.00    -0.276 OA
ATOM     17  H   LIG d   1     -18.909  65.843 117.358  0.00  0.00     0.149 HD
ENDBRANCH   6  13
BRANCH   5  18
ATOM     18  N   LIG d   1     -19.115  62.286 116.280  0.00  0.00     0.381 N 
ATOM     19  H   LIG d   1     -19.389  62.805 115.470  0.00  0.00    -0.090 HD
ATOM     20  H   LIG d   1     -19.906  62.224 116.897  0.00  0.00    -0.090 HD
ATOM     21  H   LIG d   1     -18.820  61.372 116.014  0.00  0.00    -0.090 HD
ENDBRANCH   5  18
BRANCH   3  22
ATOM     22  C   LIG d   1     -14.638  61.915 117.939  0.00  0.00     0.382 C 
ATOM     23  O   LIG d   1     -14.877  60.706 118.172  0.00  0.00    -0.241 OA
ATOM     24  O   LIG d   1     -13.528  62.390 118.244  0.00  0.00    -0.241 OA
ENDBRANCH   3  22
TORSDOF 7
ENDMDL
MODEL 7
REMARK VINA RESULT:      -4.6     10.247     12.649
REMARK  7 active torsions:
REMARK  status: ('A' for Active; 'I' for Inactive)
REMARK    1  A    between atoms: C_2  and  C_3 
REMARK    2  A    between atoms: C_3  and  O_6 
REMARK    3  A    between atoms: C_3  and  C_4 
REMARK    4  A    between atoms: C_7  and  O_6 
REMARK    5  A    between atoms: C_9  and  C_10 
REMARK    6  A    between atoms: N_15  and  C_14 
REMARK    7  A    between atoms: N_20  and  C_19 
REMARK       I    between atoms: C_22  and  N_20 
ROOT
ATOM      1  C   LIG d   1       2.580  87.318 115.013  0.00  0.00     0.161 C 
ATOM      2  C   LIG d   1       1.487  87.164 115.882  0.00  0.00     0.016 C 
ATOM      3  C   LIG d   1       1.220  88.040 116.959  0.00  0.00     0.038 C 
ATOM      4  C   LIG d   1       1.947  89.225 117.149  0.00  0.00     0.028 C 
ATOM      5  C   LIG d   1       3.369  89.157 116.602  0.00  0.00    -0.047 C 
ATOM      6  C   LIG d   1       3.320  88.666 115.137  0.00  0.00     0.091 C 
ENDROOT
BRANCH   1   7
ATOM      7  O   LIG d   1       2.157  87.103 113.652  0.00  0.00    -0.368 OA
BRANCH   7   8
ATOM      8  C   LIG d   1       2.629  85.886 113.023  0.00  0.00     0.119 C 
BRANCH   8   9
ATOM      9  C   LIG d   1       1.427  84.928 112.909  0.00  0.00     0.028 C 
ATOM     10  C   LIG d   1       0.185  85.612 112.315  0.00  0.00     0.006 C 
ENDBRANCH   8   9
BRANCH   8  11
ATOM     11  C   LIG d   1       3.645  85.158 113.909  0.00  0.00     0.028 C 
ATOM     12  C   LIG d   1       3.154  83.776 114.367  0.00  0.00     0.006 C 
ENDBRANCH   8  11
ENDBRANCH   7   8
ENDBRANCH   1   7
BRANCH   6  13
ATOM     13  N   LIG d   1       4.676  88.491 114.553  0.00  0.00    -0.311 N 
ATOM     14  C   LIG d   1       5.019  88.944 113.348  0.00  0.00     0.210 C 
ATOM     15  C   LIG d   1       6.460  88.639 112.929  0.00  0.00     0.109 C 
ATOM     16  O   LIG d   1       4.276  89.597 112.600  0.00  0.00    -0.276 OA
ATOM     17  H   LIG d   1       5.351  88.000 115.105  0.00  0.00     0.149 HD
ENDBRANCH   6  13
BRANCH   5  18
ATOM     18  N   LIG d   1       3.965  90.499 116.743  0.00  0.00     0.381 N 
ATOM     19  H   LIG d   1       4.848  90.529 116.273  0.00  0.00    -0.090 HD
ATOM     20  H   LIG d   1       4.121  90.684 117.718  0.00  0.00    -0.090 HD
ATOM     21  H   LIG d   1       3.353  91.186 116.361  0.00  0.00    -0.090 HD
ENDBRANCH   5  18
BRANCH   3  22
ATOM     22  C   LIG d   1       0.239  87.714 117.883  0.00  0.00     0.382 C 
ATOM     23  O   LIG d   1      -0.316  88.617 118.554  0.00  0.00    -0.241 OA
ATOM     24  O   LIG d   1      -0.065  86.523 118.087  0.00  0.00    -0.241 OA
ENDBRANCH   3  22
TORSDOF 7
ENDMDL
MODEL 8
REMARK VINA RESULT:      -4.5     12.280     14.223
REMARK  7 active torsions:
REMARK  status: ('A' for Active; 'I' for Inactive)
REMARK    1  A    between atoms: C_2  and  C_3 
REMARK    2  A    between atoms: C_3  and  O_6 
REMARK    3  A    between atoms: C_3  and  C_4 
REMARK    4  A    between atoms: C_7  and  O_6 
REMARK    5  A    between atoms: C_9  and  C_10 
REMARK    6  A    between atoms: N_15  and  C_14 
REMARK    7  A    between atoms: N_20  and  C_19 
REMARK       I    between atoms: C_22  and  N_20 
ROOT
ATOM      1  C   LIG d   1      11.173  77.614 115.199  0.00  0.00     0.161 C 
ATOM      2  C   LIG d   1      11.566  78.711 114.415  0.00  0.00     0.016 C 
ATOM      3  C   LIG d   1      12.742  78.726 113.630  0.00  0.00     0.038 C 
ATOM      4  C   LIG d   1      13.532  77.579 113.457  0.00  0.00     0.028 C 
ATOM      5  C   LIG d   1      13.450  76.605 114.627  0.00  0.00    -0.047 C 
ATOM      6  C   LIG d   1      11.963  76.315 114.935  0.00  0.00     0.091 C 
ENDROOT
BRANCH   1   7
ATOM      7  O   LIG d   1       9.759  77.382 115.040  0.00  0.00    -0.368 OA
BRANCH   7   8
ATOM      8  C   LIG d   1       8.882  78.254 115.794  0.00  0.00     0.119 C 
BRANCH   8   9
ATOM      9  C   LIG d   1       8.899  77.774 117.258  0.00  0.00     0.028 C 
ATOM     10  C   LIG d   1       9.508  78.817 118.210  0.00  0.00     0.006 C 
ENDBRANCH   8   9
BRANCH   8  11
ATOM     11  C   LIG d   1       7.427  78.110 115.337  0.00  0.00     0.028 C 
ATOM     12  C   LIG d   1       6.473  77.757 116.489  0.00  0.00     0.006 C 
ENDBRANCH   8  11
ENDBRANCH   7   8
ENDBRANCH   1   7
BRANCH   6  13
ATOM     13  N   LIG d   1      11.791  75.436 116.121  0.00  0.00    -0.311 N 
ATOM     14  C   LIG d   1      11.654  74.113 116.039  0.00  0.00     0.210 C 
ATOM     15  C   LIG d   1      11.469  73.398 117.381  0.00  0.00     0.109 C 
ATOM     16  O   LIG d   1      11.700  73.461 114.985  0.00  0.00    -0.276 OA
ATOM     17  H   LIG d   1      11.773  75.879 117.019  0.00  0.00     0.149 HD
ENDBRANCH   6  13
BRANCH   5  18
ATOM     18  N   LIG d   1      14.209  75.396 114.254  0.00  0.00     0.381 N 
ATOM     19  H   LIG d   1      13.798  74.974 113.446  0.00  0.00    -0.090 HD
ATOM     20  H   LIG d   1      14.164  74.737 115.012  0.00  0.00    -0.090 HD
ATOM     21  H   LIG d   1      15.158  75.634 114.067  0.00  0.00    -0.090 HD
ENDBRANCH   5  18
BRANCH   3  22
ATOM     22  C   LIG d   1      13.161  79.909 113.040  0.00  0.00     0.382 C 
ATOM     23  O   LIG d   1      12.492  80.415 112.107  0.00  0.00    -0.241 OA
ATOM     24  O   LIG d   1      14.222  80.453 113.399  0.00  0.00    -0.241 OA
ENDBRANCH   3  22
TORSDOF 7
ENDMDL
MODEL 9
REMARK VINA RESULT:      -4.4     13.554     16.057
REMARK  7 active torsions:
REMARK  status: ('A' for Active; 'I' for Inactive)
REMARK    1  A    between atoms: C_2  and  C_3 
REMARK    2  A    between atoms: C_3  and  O_6 
REMARK    3  A    between atoms: C_3  and  C_4 
REMARK    4  A    between atoms: C_7  and  O_6 
REMARK    5  A    between atoms: C_9  and  C_10 
REMARK    6  A    between atoms: N_15  and  C_14 
REMARK    7  A    between atoms: N_20  and  C_19 
REMARK       I    between atoms: C_22  and  N_20 
ROOT
ATOM      1  C   LIG d   1      12.401  78.155 114.251  0.00  0.00     0.161 C 
ATOM      2  C   LIG d   1      11.116  78.447 114.736  0.00  0.00     0.016 C 
ATOM      3  C   LIG d   1      10.225  77.463 115.222  0.00  0.00     0.038 C 
ATOM      4  C   LIG d   1      10.618  76.128 115.397  0.00  0.00     0.028 C 
ATOM      5  C   LIG d   1      11.734  75.696 114.451  0.00  0.00    -0.047 C 
ATOM      6  C   LIG d   1      12.889  76.719 114.537  0.00  0.00     0.091 C 
ENDROOT
BRANCH   1   7
ATOM      7  O   LIG d   1      13.347  79.116 114.760  0.00  0.00    -0.368 OA
BRANCH   7   8
ATOM      8  C   LIG d   1      13.786  80.134 113.828  0.00  0.00     0.119 C 
BRANCH   8   9
ATOM      9  C   LIG d   1      13.431  79.646 112.410  0.00  0.00     0.028 C 
ATOM     10  C   LIG d   1      12.243  80.414 111.805  0.00  0.00     0.006 C 
ENDBRANCH   8   9
BRANCH   8  11
ATOM     11  C   LIG d   1      15.311  80.277 113.837  0.00  0.00     0.028 C 
ATOM     12  C   LIG d   1      15.999  79.268 114.770  0.00  0.00     0.006 C 
ENDBRANCH   8  11
ENDBRANCH   7   8
ENDBRANCH   1   7
BRANCH   6  13
ATOM     13  N   LIG d   1      13.986  76.418 113.581  0.00  0.00    -0.311 N 
ATOM     14  C   LIG d   1      15.095  75.763 113.920  0.00  0.00     0.210 C 
ATOM     15  C   LIG d   1      16.108  75.576 112.785  0.00  0.00     0.109 C 
ATOM     16  O   LIG d   1      15.323  75.292 115.044  0.00  0.00    -0.276 OA
ATOM     17  H   LIG d   1      13.870  76.736 112.639  0.00  0.00     0.149 HD
ENDBRANCH   6  13
BRANCH   5  18
ATOM     18  N   LIG d   1      12.140  74.331 114.834  0.00  0.00     0.381 N 
ATOM     19  H   LIG d   1      12.899  74.373 115.483  0.00  0.00    -0.090 HD
ATOM     20  H   LIG d   1      12.453  73.843 114.013  0.00  0.00    -0.090 HD
ATOM     21  H   LIG d   1      11.370  73.848 115.243  0.00  0.00    -0.090 HD
ENDBRANCH   5  18
BRANCH   3  22
ATOM     22  C   LIG d   1       8.910  77.804 115.501  0.00  0.00     0.382 C 
ATOM     23  O   LIG d   1       7.981  77.355 114.788  0.00  0.00    -0.241 OA
ATOM     24  O   LIG d   1       8.645  78.590 116.430  0.00  0.00    -0.241 OA
ENDBRANCH   3  22
TORSDOF 7
ENDMDL
