MODEL 1
REMARK VINA RESULT:      -5.0      0.000      0.000
REMARK  7 active torsions:
REMARK  status: ('A' for Active; 'I' for Inactive)
REMARK    1  A    between atoms: C_2  and  C_3 
REMARK    2  A    between atoms: C_3  and  O_6 
REMARK    3  A    between atoms: C_3  and  C_4 
REMARK    4  A    between atoms: C_7  and  O_6 
REMARK    5  A    between atoms: C_9  and  C_10 
REMARK    6  A    between atoms: N_15  and  C_14 
REMARK    7  A    between atoms: N_20  and  C_19 
REMARK       I    between atoms: C_22  and  N_20 
ROOT
ATOM      1  C   LIG d   1      -5.323  74.219 117.081  0.00  0.00     0.161 C 
ATOM      2  C   LIG d   1      -6.060  73.048 116.839  0.00  0.00     0.016 C 
ATOM      3  C   LIG d   1      -7.462  72.962 117.001  0.00  0.00     0.038 C 
ATOM      4  C   LIG d   1      -8.247  74.093 117.274  0.00  0.00     0.028 C 
ATOM      5  C   LIG d   1      -7.493  75.188 118.020  0.00  0.00    -0.047 C 
ATOM      6  C   LIG d   1      -6.176  75.491 117.271  0.00  0.00     0.091 C 
ENDROOT
BRANCH   1   7
ATOM      7  O   LIG d   1      -4.358  74.416 116.029  0.00  0.00    -0.368 OA
BRANCH   7   8
ATOM      8  C   LIG d   1      -4.657  75.466 115.077  0.00  0.00     0.119 C 
BRANCH   8   9
ATOM      9  C   LIG d   1      -4.900  74.798 113.710  0.00  0.00     0.028 C 
ATOM     10  C   LIG d   1      -5.320  75.808 112.629  0.00  0.00     0.006 C 
ENDBRANCH   8   9
BRANCH   8  11
ATOM     11  C   LIG d   1      -3.453  76.389 114.869  0.00  0.00     0.028 C 
ATOM     12  C   LIG d   1      -2.282  76.062 115.809  0.00  0.00     0.006 C 
ENDBRANCH   8  11
ENDBRANCH   7   8
ENDBRANCH   1   7
BRANCH   6  13
ATOM     13  N   LIG d   1      -5.338  76.493 117.980  0.00  0.00    -0.311 N 
ATOM     14  C   LIG d   1      -5.381  77.799 117.723  0.00  0.00     0.210 C 
ATOM     15  C   LIG d   1      -4.419  78.654 118.555  0.00  0.00     0.109 C 
ATOM     16  O   LIG d   1      -6.147  78.335 116.908  0.00  0.00    -0.276 OA
ATOM     17  H   LIG d   1      -4.709  76.148 118.679  0.00  0.00     0.149 HD
ENDBRANCH   6  13
BRANCH   5  18
ATOM     18  N   LIG d   1      -8.387  76.358 118.116  0.00  0.00     0.381 N 
ATOM     19  H   LIG d   1      -9.046  76.343 117.363  0.00  0.00    -0.090 HD
ATOM     20  H   LIG d   1      -7.836  77.195 118.037  0.00  0.00    -0.090 HD
ATOM     21  H   LIG d   1      -8.868  76.349 118.988  0.00  0.00    -0.090 HD
ENDBRANCH   5  18
BRANCH   3  22
ATOM     22  C   LIG d   1      -8.088  71.727 116.931  0.00  0.00     0.382 C 
ATOM     23  O   LIG d   1      -7.520  70.709 117.395  0.00  0.00    -0.241 OA
ATOM     24  O   LIG d   1      -9.193  71.610 116.369  0.00  0.00    -0.241 OA
ENDBRANCH   3  22
TORSDOF 7
ENDMDL
MODEL 2
REMARK VINA RESULT:      -5.0      2.758      4.363
REMARK  7 active torsions:
REMARK  status: ('A' for Active; 'I' for Inactive)
REMARK    1  A    between atoms: C_2  and  C_3 
REMARK    2  A    between atoms: C_3  and  O_6 
REMARK    3  A    between atoms: C_3  and  C_4 
REMARK    4  A    between atoms: C_7  and  O_6 
REMARK    5  A    between atoms: C_9  and  C_10 
REMARK    6  A    between atoms: N_15  and  C_14 
REMARK    7  A    between atoms: N_20  and  C_19 
REMARK       I    between atoms: C_22  and  N_20 
ROOT
ATOM      1  C   LIG d   1      -3.810  76.074 116.641  0.00  0.00     0.161 C 
ATOM      2  C   LIG d   1      -4.621  75.074 117.203  0.00  0.00     0.016 C 
ATOM      3  C   LIG d   1      -5.424  74.200 116.435  0.00  0.00     0.038 C 
ATOM      4  C   LIG d   1      -5.353  74.168 115.034  0.00  0.00     0.028 C 
ATOM      5  C   LIG d   1      -4.928  75.496 114.418  0.00  0.00    -0.047 C 
ATOM      6  C   LIG d   1      -3.634  75.980 115.111  0.00  0.00     0.091 C 
ENDROOT
BRANCH   1   7
ATOM      7  O   LIG d   1      -2.524  76.083 117.293  0.00  0.00    -0.368 OA
BRANCH   7   8
ATOM      8  C   LIG d   1      -1.732  74.878 117.158  0.00  0.00     0.119 C 
BRANCH   8   9
ATOM      9  C   LIG d   1      -1.185  74.524 118.555  0.00  0.00     0.028 C 
ATOM     10  C   LIG d   1      -0.052  73.486 118.496  0.00  0.00     0.006 C 
ENDBRANCH   8   9
BRANCH   8  11
ATOM     11  C   LIG d   1      -0.496  75.118 116.287  0.00  0.00     0.028 C 
ATOM     12  C   LIG d   1       0.042  76.554 116.398  0.00  0.00     0.006 C 
ENDBRANCH   8  11
ENDBRANCH   7   8
ENDBRANCH   1   7
BRANCH   6  13
ATOM     13  N   LIG d   1      -3.196  77.315 114.626  0.00  0.00    -0.311 N 
ATOM     14  C   LIG d   1      -2.246  77.486 113.708  0.00  0.00     0.210 C 
ATOM     15  C   LIG d   1      -1.934  78.946 113.365  0.00  0.00     0.109 C 
ATOM     16  O   LIG d   1      -1.656  76.566 113.122  0.00  0.00    -0.276 OA
ATOM     17  H   LIG d   1      -3.645  78.115 115.026  0.00  0.00     0.149 HD
ENDBRANCH   6  13
BRANCH   5  18
ATOM     18  N   LIG d   1      -4.762  75.282 112.968  0.00  0.00     0.381 N 
ATOM     19  H   LIG d   1      -3.792  75.168 112.752  0.00  0.00    -0.090 HD
ATOM     20  H   LIG d   1      -5.101  76.091 112.479  0.00  0.00    -0.090 HD
ATOM     21  H   LIG d   1      -5.271  74.475 112.682  0.00  0.00    -0.090 HD
ENDBRANCH   5  18
BRANCH   3  22
ATOM     22  C   LIG d   1      -6.340  73.374 117.068  0.00  0.00     0.382 C 
ATOM     23  O   LIG d   1      -6.159  72.132 117.081  0.00  0.00    -0.241 OA
ATOM     24  O   LIG d   1      -7.368  73.849 117.586  0.00  0.00    -0.241 OA
ENDBRANCH   3  22
TORSDOF 7
ENDMDL
MODEL 3
REMARK VINA RESULT:      -5.0     13.637     16.750
REMARK  7 active torsions:
REMARK  status: ('A' for Active; 'I' for Inactive)
REMARK    1  A    between atoms: C_2  and  C_3 
REMARK    2  A    between atoms: C_3  and  O_6 
REMARK    3  A    between atoms: C_3  and  C_4 
REMARK    4  A    between atoms: C_7  and  O_6 
REMARK    5  A    between atoms: C_9  and  C_10 
REMARK    6  A    between atoms: N_15  and  C_14 
REMARK    7  A    between atoms: N_20  and  C_19 
REMARK       I    between atoms: C_22  and  N_20 
ROOT
ATOM      1  C   LIG d   1       9.712  77.103 114.535  0.00  0.00     0.161 C 
ATOM      2  C   LIG d   1       9.602  75.867 115.193  0.00  0.00     0.016 C 
ATOM      3  C   LIG d   1      10.711  75.045 115.495  0.00  0.00     0.038 C 
ATOM      4  C   LIG d   1      12.031  75.476 115.292  0.00  0.00     0.028 C 
ATOM      5  C   LIG d   1      12.168  76.500 114.170  0.00  0.00    -0.047 C 
ATOM      6  C   LIG d   1      11.152  77.641 114.406  0.00  0.00     0.091 C 
ENDROOT
BRANCH   1   7
ATOM      7  O   LIG d   1       8.869  78.078 115.182  0.00  0.00    -0.368 OA
BRANCH   7   8
ATOM      8  C   LIG d   1       7.777  77.550 115.975  0.00  0.00     0.119 C 
BRANCH   8   9
ATOM      9  C   LIG d   1       6.463  77.997 115.307  0.00  0.00     0.028 C 
ATOM     10  C   LIG d   1       5.253  77.866 116.247  0.00  0.00     0.006 C 
ENDBRANCH   8   9
BRANCH   8  11
ATOM     11  C   LIG d   1       7.753  78.172 117.374  0.00  0.00     0.028 C 
ATOM     12  C   LIG d   1       8.570  77.368 118.398  0.00  0.00     0.006 C 
ENDBRANCH   8  11
ENDBRANCH   7   8
ENDBRANCH   1   7
BRANCH   6  13
ATOM     13  N   LIG d   1      11.161  78.643 113.309  0.00  0.00    -0.311 N 
ATOM     14  C   LIG d   1      11.191  79.959 113.517  0.00  0.00     0.210 C 
ATOM     15  C   LIG d   1      11.175  80.815 112.247  0.00  0.00     0.109 C 
ATOM     16  O   LIG d   1      11.262  80.496 114.633  0.00  0.00    -0.276 OA
ATOM     17  H   LIG d   1      11.137  78.293 112.371  0.00  0.00     0.149 HD
ENDBRANCH   6  13
BRANCH   5  18
ATOM     18  N   LIG d   1      13.568  76.964 114.160  0.00  0.00     0.381 N 
ATOM     19  H   LIG d   1      13.997  76.726 113.288  0.00  0.00    -0.090 HD
ATOM     20  H   LIG d   1      14.070  76.501 114.896  0.00  0.00    -0.090 HD
ATOM     21  H   LIG d   1      13.601  77.951 114.295  0.00  0.00    -0.090 HD
ENDBRANCH   5  18
BRANCH   3  22
ATOM     22  C   LIG d   1      10.505  73.758 115.969  0.00  0.00     0.382 C 
ATOM     23  O   LIG d   1      10.490  73.540 117.205  0.00  0.00    -0.241 OA
ATOM     24  O   LIG d   1      10.377  72.806 115.177  0.00  0.00    -0.241 OA
ENDBRANCH   3  22
TORSDOF 7
ENDMDL
MODEL 4
REMARK VINA RESULT:      -4.7     11.719     15.083
REMARK  7 active torsions:
REMARK  status: ('A' for Active; 'I' for Inactive)
REMARK    1  A    between atoms: C_2  and  C_3 
REMARK    2  A    between atoms: C_3  and  O_6 
REMARK    3  A    between atoms: C_3  and  C_4 
REMARK    4  A    between atoms: C_7  and  O_6 
REMARK    5  A    between atoms: C_9  and  C_10 
REMARK    6  A    between atoms: N_15  and  C_14 
REMARK    7  A    between atoms: N_20  and  C_19 
REMARK       I    between atoms: C_22  and  N_20 
ROOT
ATOM      1  C   LIG d   1       2.471  86.016 114.282  0.00  0.00     0.161 C 
ATOM      2  C   LIG d   1       3.134  87.025 113.564  0.00  0.00     0.016 C 
ATOM      3  C   LIG d   1       4.307  87.665 114.024  0.00  0.00     0.038 C 
ATOM      4  C   LIG d   1       4.987  87.231 115.172  0.00  0.00     0.028 C 
ATOM      5  C   LIG d   1       4.080  86.553 116.193  0.00  0.00    -0.047 C 
ATOM      6  C   LIG d   1       3.260  85.452 115.482  0.00  0.00     0.091 C 
ENDROOT
BRANCH   1   7
ATOM      7  O   LIG d   1       2.089  84.951 113.388  0.00  0.00    -0.368 OA
BRANCH   7   8
ATOM      8  C   LIG d   1       0.668  84.694 113.273  0.00  0.00     0.119 C 
BRANCH   8   9
ATOM      9  C   LIG d   1       0.427  84.028 111.905  0.00  0.00     0.028 C 
ATOM     10  C   LIG d   1       0.215  82.509 112.020  0.00  0.00     0.006 C 
ENDBRANCH   8   9
BRANCH   8  11
ATOM     11  C   LIG d   1      -0.133  85.999 113.236  0.00  0.00     0.028 C 
ATOM     12  C   LIG d   1      -0.430  86.475 111.805  0.00  0.00     0.006 C 
ENDBRANCH   8  11
ENDBRANCH   7   8
ENDBRANCH   1   7
BRANCH   6  13
ATOM     13  N   LIG d   1       2.285  84.795 116.392  0.00  0.00    -0.311 N 
ATOM     14  C   LIG d   1       2.359  83.512 116.742  0.00  0.00     0.210 C 
ATOM     15  C   LIG d   1       1.242  83.030 117.673  0.00  0.00     0.109 C 
ATOM     16  O   LIG d   1       3.261  82.735 116.395  0.00  0.00    -0.276 OA
ATOM     17  H   LIG d   1       1.538  85.360 116.745  0.00  0.00     0.149 HD
ENDBRANCH   6  13
BRANCH   5  18
ATOM     18  N   LIG d   1       4.937  86.028 117.273  0.00  0.00     0.381 N 
ATOM     19  H   LIG d   1       4.375  85.777 118.061  0.00  0.00    -0.090 HD
ATOM     20  H   LIG d   1       5.577  86.749 117.559  0.00  0.00    -0.090 HD
ATOM     21  H   LIG d   1       5.444  85.234 116.950  0.00  0.00    -0.090 HD
ENDBRANCH   5  18
BRANCH   3  22
ATOM     22  C   LIG d   1       4.790  88.779 113.355  0.00  0.00     0.382 C 
ATOM     23  O   LIG d   1       4.152  89.859 113.392  0.00  0.00    -0.241 OA
ATOM     24  O   LIG d   1       5.833  88.707 112.677  0.00  0.00    -0.241 OA
ENDBRANCH   3  22
TORSDOF 7
ENDMDL
MODEL 5
REMARK VINA RESULT:      -4.7     14.696     16.828
REMARK  7 active torsions:
REMARK  status: ('A' for Active; 'I' for Inactive)
REMARK    1  A    between atoms: C_2  and  C_3 
REMARK    2  A    between atoms: C_3  and  O_6 
REMARK    3  A    between atoms: C_3  and  C_4 
REMARK    4  A    between atoms: C_7  and  O_6 
REMARK    5  A    between atoms: C_9  and  C_10 
REMARK    6  A    between atoms: N_15  and  C_14 
REMARK    7  A    between atoms: N_20  and  C_19 
REMARK       I    between atoms: C_22  and  N_20 
ROOT
ATOM      1  C   LIG d   1       3.679  88.291 115.461  0.00  0.00     0.161 C 
ATOM      2  C   LIG d   1       2.803  87.637 114.578  0.00  0.00     0.016 C 
ATOM      3  C   LIG d   1       3.086  87.439 113.207  0.00  0.00     0.038 C 
ATOM      4  C   LIG d   1       4.337  87.750 112.655  0.00  0.00     0.028 C 
ATOM      5  C   LIG d   1       5.063  88.870 113.392  0.00  0.00    -0.047 C 
ATOM      6  C   LIG d   1       5.096  88.539 114.902  0.00  0.00     0.091 C 
ENDROOT
BRANCH   1   7
ATOM      7  O   LIG d   1       3.750  87.566 116.704  0.00  0.00    -0.368 OA
BRANCH   7   8
ATOM      8  C   LIG d   1       3.017  86.318 116.758  0.00  0.00     0.119 C 
BRANCH   8   9
ATOM      9  C   LIG d   1       2.008  86.423 117.918  0.00  0.00     0.028 C 
ATOM     10  C   LIG d   1       0.626  86.909 117.452  0.00  0.00     0.006 C 
ENDBRANCH   8   9
BRANCH   8  11
ATOM     11  C   LIG d   1       3.935  85.148 117.123  0.00  0.00     0.028 C 
ATOM     12  C   LIG d   1       5.285  85.199 116.391  0.00  0.00     0.006 C 
ENDBRANCH   8  11
ENDBRANCH   7   8
ENDBRANCH   1   7
BRANCH   6  13
ATOM     13  N   LIG d   1       5.714  89.624 115.707  0.00  0.00    -0.311 N 
ATOM     14  C   LIG d   1       6.614  89.405 116.663  0.00  0.00     0.210 C 
ATOM     15  C   LIG d   1       7.109  90.663 117.386  0.00  0.00     0.109 C 
ATOM     16  O   LIG d   1       7.075  88.293 116.960  0.00  0.00    -0.276 OA
ATOM     17  H   LIG d   1       5.421  90.561 115.511  0.00  0.00     0.149 HD
ENDBRANCH   6  13
BRANCH   5  18
ATOM     18  N   LIG d   1       6.407  88.997 112.799  0.00  0.00     0.381 N 
ATOM     19  H   LIG d   1       6.543  89.930 112.463  0.00  0.00    -0.090 HD
ATOM     20  H   LIG d   1       6.479  88.368 112.019  0.00  0.00    -0.090 HD
ATOM     21  H   LIG d   1       7.102  88.776 113.478  0.00  0.00    -0.090 HD
ENDBRANCH   5  18
BRANCH   3  22
ATOM     22  C   LIG d   1       2.095  86.959 112.364  0.00  0.00     0.382 C 
ATOM     23  O   LIG d   1       1.305  87.759 111.807  0.00  0.00    -0.241 OA
ATOM     24  O   LIG d   1       1.953  85.735 112.188  0.00  0.00    -0.241 OA
ENDBRANCH   3  22
TORSDOF 7
ENDMDL
MODEL 6
REMARK VINA RESULT:      -4.6     14.865     17.999
REMARK  7 active torsions:
REMARK  status: ('A' for Active; 'I' for Inactive)
REMARK    1  A    between atoms: C_2  and  C_3 
REMARK    2  A    between atoms: C_3  and  O_6 
REMARK    3  A    between atoms: C_3  and  C_4 
REMARK    4  A    between atoms: C_7  and  O_6 
REMARK    5  A    between atoms: C_9  and  C_10 
REMARK    6  A    between atoms: N_15  and  C_14 
REMARK    7  A    between atoms: N_20  and  C_19 
REMARK       I    between atoms: C_22  and  N_20 
ROOT
ATOM      1  C   LIG d   1      11.263  76.860 114.497  0.00  0.00     0.161 C 
ATOM      2  C   LIG d   1      10.089  77.631 114.517  0.00  0.00     0.016 C 
ATOM      3  C   LIG d   1       9.050  77.442 115.457  0.00  0.00     0.038 C 
ATOM      4  C   LIG d   1       9.183  76.564 116.543  0.00  0.00     0.028 C 
ATOM      5  C   LIG d   1      10.137  75.406 116.271  0.00  0.00    -0.047 C 
ATOM      6  C   LIG d   1      11.474  75.972 115.741  0.00  0.00     0.091 C 
ENDROOT
BRANCH   1   7
ATOM      7  O   LIG d   1      12.405  77.715 114.291  0.00  0.00    -0.368 OA
BRANCH   7   8
ATOM      8  C   LIG d   1      12.722  78.035 112.914  0.00  0.00     0.119 C 
BRANCH   8   9
ATOM      9  C   LIG d   1      14.082  77.388 112.589  0.00  0.00     0.028 C 
ATOM     10  C   LIG d   1      15.075  77.489 113.759  0.00  0.00     0.006 C 
ENDBRANCH   8   9
BRANCH   8  11
ATOM     11  C   LIG d   1      12.934  79.540 112.728  0.00  0.00     0.028 C 
ATOM     12  C   LIG d   1      11.626  80.296 112.443  0.00  0.00     0.006 C 
ENDBRANCH   8  11
ENDBRANCH   7   8
ENDBRANCH   1   7
BRANCH   6  13
ATOM     13  N   LIG d   1      12.436  74.901 115.370  0.00  0.00    -0.311 N 
ATOM     14  C   LIG d   1      13.659  74.802 115.888  0.00  0.00     0.210 C 
ATOM     15  C   LIG d   1      14.495  73.635 115.354  0.00  0.00     0.109 C 
ATOM     16  O   LIG d   1      14.119  75.551 116.763  0.00  0.00    -0.276 OA
ATOM     17  H   LIG d   1      12.133  74.231 114.690  0.00  0.00     0.149 HD
ENDBRANCH   6  13
BRANCH   5  18
ATOM     18  N   LIG d   1      10.288  74.648 117.528  0.00  0.00     0.381 N 
ATOM     19  H   LIG d   1       9.397  74.550 117.973  0.00  0.00    -0.090 HD
ATOM     20  H   LIG d   1      10.894  75.159 118.145  0.00  0.00    -0.090 HD
ATOM     21  H   LIG d   1      10.674  73.749 117.340  0.00  0.00    -0.090 HD
ENDBRANCH   5  18
BRANCH   3  22
ATOM     22  C   LIG d   1       7.845  78.109 115.293  0.00  0.00     0.382 C 
ATOM     23  O   LIG d   1       6.857  77.508 114.807  0.00  0.00    -0.241 OA
ATOM     24  O   LIG d   1       7.747  79.316 115.584  0.00  0.00    -0.241 OA
ENDBRANCH   3  22
TORSDOF 7
ENDMDL
MODEL 7
REMARK VINA RESULT:      -4.6     12.693     14.905
REMARK  7 active torsions:
REMARK  status: ('A' for Active; 'I' for Inactive)
REMARK    1  A    between atoms: C_2  and  C_3 
REMARK    2  A    between atoms: C_3  and  O_6 
REMARK    3  A    between atoms: C_3  and  C_4 
REMARK    4  A    between atoms: C_7  and  O_6 
REMARK    5  A    between atoms: C_9  and  C_10 
REMARK    6  A    between atoms: N_15  and  C_14 
REMARK    7  A    between atoms: N_20  and  C_19 
REMARK       I    between atoms: C_22  and  N_20 
ROOT
ATOM      1  C   LIG d   1       1.798  86.679 114.975  0.00  0.00     0.161 C 
ATOM      2  C   LIG d   1       0.651  86.190 114.326  0.00  0.00     0.016 C 
ATOM      3  C   LIG d   1       0.610  85.879 112.948  0.00  0.00     0.038 C 
ATOM      4  C   LIG d   1       1.764  85.894 112.150  0.00  0.00     0.028 C 
ATOM      5  C   LIG d   1       2.832  86.863 112.646  0.00  0.00    -0.047 C 
ATOM      6  C   LIG d   1       3.096  86.595 114.145  0.00  0.00     0.091 C 
ENDROOT
BRANCH   1   7
ATOM      7  O   LIG d   1       1.967  86.007 116.239  0.00  0.00    -0.368 OA
BRANCH   7   8
ATOM      8  C   LIG d   1       1.695  86.798 117.422  0.00  0.00     0.119 C 
BRANCH   8   9
ATOM      9  C   LIG d   1       0.611  86.060 118.232  0.00  0.00     0.028 C 
ATOM     10  C   LIG d   1       0.896  84.554 118.358  0.00  0.00     0.006 C 
ENDBRANCH   8   9
BRANCH   8  11
ATOM     11  C   LIG d   1       1.077  88.151 117.058  0.00  0.00     0.028 C 
ATOM     12  C   LIG d   1      -0.413  88.243 117.421  0.00  0.00     0.006 C 
ENDBRANCH   8  11
ENDBRANCH   7   8
ENDBRANCH   1   7
BRANCH   6  13
ATOM     13  N   LIG d   1       4.067  87.556 114.730  0.00  0.00    -0.311 N 
ATOM     14  C   LIG d   1       3.921  88.878 114.663  0.00  0.00     0.210 C 
ATOM     15  C   LIG d   1       5.047  89.687 115.314  0.00  0.00     0.109 C 
ATOM     16  O   LIG d   1       2.950  89.458 114.153  0.00  0.00    -0.276 OA
ATOM     17  H   LIG d   1       4.869  87.171 115.190  0.00  0.00     0.149 HD
ENDBRANCH   6  13
BRANCH   5  18
ATOM     18  N   LIG d   1       4.029  86.676 111.805  0.00  0.00     0.381 N 
ATOM     19  H   LIG d   1       4.560  85.897 112.140  0.00  0.00    -0.090 HD
ATOM     20  H   LIG d   1       4.603  87.498 111.868  0.00  0.00    -0.090 HD
ATOM     21  H   LIG d   1       3.760  86.521 110.858  0.00  0.00    -0.090 HD
ENDBRANCH   5  18
BRANCH   3  22
ATOM     22  C   LIG d   1      -0.604  85.588 112.345  0.00  0.00     0.382 C 
ATOM     23  O   LIG d   1      -1.422  86.509 112.106  0.00  0.00    -0.241 OA
ATOM     24  O   LIG d   1      -0.910  84.411 112.077  0.00  0.00    -0.241 OA
ENDBRANCH   3  22
TORSDOF 7
ENDMDL
MODEL 8
REMARK VINA RESULT:      -4.6     19.459     21.513
REMARK  7 active torsions:
REMARK  status: ('A' for Active; 'I' for Inactive)
REMARK    1  A    between atoms: C_2  and  C_3 
REMARK    2  A    between atoms: C_3  and  O_6 
REMARK    3  A    between atoms: C_3  and  C_4 
REMARK    4  A    between atoms: C_7  and  O_6 
REMARK    5  A    between atoms: C_9  and  C_10 
REMARK    6  A    between atoms: N_15  and  C_14 
REMARK    7  A    between atoms: N_20  and  C_19 
REMARK       I    between atoms: C_22  and  N_20 
ROOT
ATOM      1  C   LIG d   1     -24.067  83.288 113.466  0.00  0.00     0.161 C 
ATOM      2  C   LIG d   1     -23.141  84.301 113.765  0.00  0.00     0.016 C 
ATOM      3  C   LIG d   1     -23.422  85.680 113.625  0.00  0.00     0.038 C 
ATOM      4  C   LIG d   1     -24.709  86.146 113.317  0.00  0.00     0.028 C 
ATOM      5  C   LIG d   1     -25.539  85.149 112.516  0.00  0.00    -0.047 C 
ATOM      6  C   LIG d   1     -25.511  83.781 113.235  0.00  0.00     0.091 C 
ENDROOT
BRANCH   1   7
ATOM      7  O   LIG d   1     -24.040  82.281 114.496  0.00  0.00    -0.368 OA
BRANCH   7   8
ATOM      8  C   LIG d   1     -23.459  82.680 115.762  0.00  0.00     0.119 C 
BRANCH   8   9
ATOM      9  C   LIG d   1     -22.820  81.428 116.394  0.00  0.00     0.028 C 
ATOM     10  C   LIG d   1     -23.307  80.126 115.737  0.00  0.00     0.006 C 
ENDBRANCH   8   9
BRANCH   8  11
ATOM     11  C   LIG d   1     -24.538  83.128 116.753  0.00  0.00     0.028 C 
ATOM     12  C   LIG d   1     -24.310  84.555 117.276  0.00  0.00     0.006 C 
ENDBRANCH   8  11
ENDBRANCH   7   8
ENDBRANCH   1   7
BRANCH   6  13
ATOM     13  N   LIG d   1     -26.230  82.725 112.475  0.00  0.00    -0.311 N 
ATOM     14  C   LIG d   1     -27.506  82.409 112.687  0.00  0.00     0.210 C 
ATOM     15  C   LIG d   1     -28.047  81.278 111.806  0.00  0.00     0.109 C 
ATOM     16  O   LIG d   1     -28.251  82.980 113.498  0.00  0.00    -0.276 OA
ATOM     17  H   LIG d   1     -25.710  82.233 111.775  0.00  0.00     0.149 HD
ENDBRANCH   6  13
BRANCH   5  18
ATOM     18  N   LIG d   1     -26.899  85.705 112.384  0.00  0.00     0.381 N 
ATOM     19  H   LIG d   1     -26.904  86.426 111.691  0.00  0.00    -0.090 HD
ATOM     20  H   LIG d   1     -27.171  86.110 113.263  0.00  0.00    -0.090 HD
ATOM     21  H   LIG d   1     -27.539  84.985 112.131  0.00  0.00    -0.090 HD
ENDBRANCH   5  18
BRANCH   3  22
ATOM     22  C   LIG d   1     -22.399  86.607 113.754  0.00  0.00     0.382 C 
ATOM     23  O   LIG d   1     -22.534  87.586 114.526  0.00  0.00    -0.241 OA
ATOM     24  O   LIG d   1     -21.360  86.500 113.075  0.00  0.00    -0.241 OA
ENDBRANCH   3  22
TORSDOF 7
ENDMDL
MODEL 9
REMARK VINA RESULT:      -4.5     15.942     17.770
REMARK  7 active torsions:
REMARK  status: ('A' for Active; 'I' for Inactive)
REMARK    1  A    between atoms: C_2  and  C_3 
REMARK    2  A    between atoms: C_3  and  O_6 
REMARK    3  A    between atoms: C_3  and  C_4 
REMARK    4  A    between atoms: C_7  and  O_6 
REMARK    5  A    between atoms: C_9  and  C_10 
REMARK    6  A    between atoms: N_15  and  C_14 
REMARK    7  A    between atoms: N_20  and  C_19 
REMARK       I    between atoms: C_22  and  N_20 
ROOT
ATOM      1  C   LIG d   1      11.879  77.095 114.782  0.00  0.00     0.161 C 
ATOM      2  C   LIG d   1      11.866  75.690 114.803  0.00  0.00     0.016 C 
ATOM      3  C   LIG d   1      10.879  74.930 115.472  0.00  0.00     0.038 C 
ATOM      4  C   LIG d   1       9.745  75.527 116.043  0.00  0.00     0.028 C 
ATOM      5  C   LIG d   1       9.975  76.969 116.482  0.00  0.00    -0.047 C 
ATOM      6  C   LIG d   1      10.588  77.760 115.305  0.00  0.00     0.091 C 
ENDROOT
BRANCH   1   7
ATOM      7  O   LIG d   1      12.180  77.561 113.452  0.00  0.00    -0.368 OA
BRANCH   7   8
ATOM      8  C   LIG d   1      13.492  78.146 113.264  0.00  0.00     0.119 C 
BRANCH   8   9
ATOM      9  C   LIG d   1      13.299  79.664 113.081  0.00  0.00     0.028 C 
ATOM     10  C   LIG d   1      12.028  80.003 112.284  0.00  0.00     0.006 C 
ENDBRANCH   8   9
BRANCH   8  11
ATOM     11  C   LIG d   1      14.137  77.659 111.963  0.00  0.00     0.028 C 
ATOM     12  C   LIG d   1      15.590  78.134 111.805  0.00  0.00     0.006 C 
ENDBRANCH   8  11
ENDBRANCH   7   8
ENDBRANCH   1   7
BRANCH   6  13
ATOM     13  N   LIG d   1      10.923  79.160 115.676  0.00  0.00    -0.311 N 
ATOM     14  C   LIG d   1      10.103  80.189 115.471  0.00  0.00     0.210 C 
ATOM     15  C   LIG d   1      10.652  81.551 115.909  0.00  0.00     0.109 C 
ATOM     16  O   LIG d   1       8.961  80.100 114.996  0.00  0.00    -0.276 OA
ATOM     17  H   LIG d   1      11.818  79.319 116.096  0.00  0.00     0.149 HD
ENDBRANCH   6  13
BRANCH   5  18
ATOM     18  N   LIG d   1       8.678  77.510 116.930  0.00  0.00     0.381 N 
ATOM     19  H   LIG d   1       7.932  76.972 116.537  0.00  0.00    -0.090 HD
ATOM     20  H   LIG d   1       8.591  78.457 116.603  0.00  0.00    -0.090 HD
ATOM     21  H   LIG d   1       8.625  77.489 117.925  0.00  0.00    -0.090 HD
ENDBRANCH   5  18
BRANCH   3  22
ATOM     22  C   LIG d   1      11.042  73.560 115.610  0.00  0.00     0.382 C 
ATOM     23  O   LIG d   1      12.112  73.100 116.076  0.00  0.00    -0.241 OA
ATOM     24  O   LIG d   1      10.151  72.777 115.232  0.00  0.00    -0.241 OA
ENDBRANCH   3  22
TORSDOF 7
ENDMDL
