MODEL 1
REMARK VINA RESULT:      -5.5      0.000      0.000
REMARK  7 active torsions:
REMARK  status: ('A' for Active; 'I' for Inactive)
REMARK    1  A    between atoms: C_2  and  C_3 
REMARK    2  A    between atoms: C_3  and  O_6 
REMARK    3  A    between atoms: C_3  and  C_4 
REMARK    4  A    between atoms: C_7  and  O_6 
REMARK    5  A    between atoms: C_9  and  C_10 
REMARK    6  A    between atoms: N_15  and  C_14 
REMARK    7  A    between atoms: N_20  and  C_19 
REMARK       I    between atoms: C_22  and  N_20 
ROOT
ATOM      1  C   LIG d   1      -7.123  76.715 117.267  0.00  0.00     0.161 C 
ATOM      2  C   LIG d   1      -8.430  77.152 117.537  0.00  0.00     0.016 C 
ATOM      3  C   LIG d   1      -8.757  78.498 117.822  0.00  0.00     0.038 C 
ATOM      4  C   LIG d   1      -7.815  79.530 117.707  0.00  0.00     0.028 C 
ATOM      5  C   LIG d   1      -6.379  79.067 117.931  0.00  0.00    -0.047 C 
ATOM      6  C   LIG d   1      -6.099  77.845 117.028  0.00  0.00     0.091 C 
ENDROOT
BRANCH   1   7
ATOM      7  O   LIG d   1      -7.133  75.804 116.150  0.00  0.00    -0.368 OA
BRANCH   7   8
ATOM      8  C   LIG d   1      -6.453  74.540 116.352  0.00  0.00     0.119 C 
BRANCH   8   9
ATOM      9  C   LIG d   1      -5.492  74.337 115.165  0.00  0.00     0.028 C 
ATOM     10  C   LIG d   1      -5.558  75.492 114.152  0.00  0.00     0.006 C 
ENDBRANCH   8   9
BRANCH   8  11
ATOM     11  C   LIG d   1      -7.432  73.364 116.287  0.00  0.00     0.028 C 
ATOM     12  C   LIG d   1      -6.754  72.046 115.879  0.00  0.00     0.006 C 
ENDBRANCH   8  11
ENDBRANCH   7   8
ENDBRANCH   1   7
BRANCH   6  13
ATOM     13  N   LIG d   1      -4.743  77.277 117.246  0.00  0.00    -0.311 N 
ATOM     14  C   LIG d   1      -3.683  77.608 116.512  0.00  0.00     0.210 C 
ATOM     15  C   LIG d   1      -2.384  76.890 116.892  0.00  0.00     0.109 C 
ATOM     16  O   LIG d   1      -3.688  78.452 115.603  0.00  0.00    -0.276 OA
ATOM     17  H   LIG d   1      -4.643  76.607 117.984  0.00  0.00     0.149 HD
ENDBRANCH   6  13
BRANCH   5  18
ATOM     18  N   LIG d   1      -5.492  80.211 117.646  0.00  0.00     0.381 N 
ATOM     19  H   LIG d   1      -4.577  79.881 117.416  0.00  0.00    -0.090 HD
ATOM     20  H   LIG d   1      -5.424  80.782 118.470  0.00  0.00    -0.090 HD
ATOM     21  H   LIG d   1      -5.860  80.748 116.891  0.00  0.00    -0.090 HD
ENDBRANCH   5  18
BRANCH   3  22
ATOM     22  C   LIG d   1     -10.032  78.816 118.266  0.00  0.00     0.382 C 
ATOM     23  O   LIG d   1     -10.841  77.902 118.555  0.00  0.00    -0.241 OA
ATOM     24  O   LIG d   1     -10.397  80.004 118.339  0.00  0.00    -0.241 OA
ENDBRANCH   3  22
TORSDOF 7
ENDMDL
MODEL 2
REMARK VINA RESULT:      -5.1      1.835      2.700
REMARK  7 active torsions:
REMARK  status: ('A' for Active; 'I' for Inactive)
REMARK    1  A    between atoms: C_2  and  C_3 
REMARK    2  A    between atoms: C_3  and  O_6 
REMARK    3  A    between atoms: C_3  and  C_4 
REMARK    4  A    between atoms: C_7  and  O_6 
REMARK    5  A    between atoms: C_9  and  C_10 
REMARK    6  A    between atoms: N_15  and  C_14 
REMARK    7  A    between atoms: N_20  and  C_19 
REMARK       I    between atoms: C_22  and  N_20 
ROOT
ATOM      1  C   LIG d   1      -5.518  75.943 117.980  0.00  0.00     0.161 C 
ATOM      2  C   LIG d   1      -6.673  76.734 117.862  0.00  0.00     0.016 C 
ATOM      3  C   LIG d   1      -6.645  78.109 117.537  0.00  0.00     0.038 C 
ATOM      4  C   LIG d   1      -5.460  78.757 117.156  0.00  0.00     0.028 C 
ATOM      5  C   LIG d   1      -4.206  78.123 117.749  0.00  0.00    -0.047 C 
ATOM      6  C   LIG d   1      -4.225  76.605 117.459  0.00  0.00     0.091 C 
ENDROOT
BRANCH   1   7
ATOM      7  O   LIG d   1      -5.727  74.673 117.330  0.00  0.00    -0.368 OA
BRANCH   7   8
ATOM      8  C   LIG d   1      -6.638  74.676 116.203  0.00  0.00     0.119 C 
BRANCH   8   9
ATOM      9  C   LIG d   1      -7.491  73.396 116.294  0.00  0.00     0.028 C 
ATOM     10  C   LIG d   1      -6.674  72.125 116.007  0.00  0.00     0.006 C 
ENDBRANCH   8   9
BRANCH   8  11
ATOM     11  C   LIG d   1      -5.881  74.566 114.876  0.00  0.00     0.028 C 
ATOM     12  C   LIG d   1      -5.818  75.900 114.114  0.00  0.00     0.006 C 
ENDBRANCH   8  11
ENDBRANCH   7   8
ENDBRANCH   1   7
BRANCH   6  13
ATOM     13  N   LIG d   1      -3.076  75.895 118.078  0.00  0.00    -0.311 N 
ATOM     14  C   LIG d   1      -2.291  75.051 117.411  0.00  0.00     0.210 C 
ATOM     15  C   LIG d   1      -1.175  74.411 118.244  0.00  0.00     0.109 C 
ATOM     16  O   LIG d   1      -2.392  74.795 116.202  0.00  0.00    -0.276 OA
ATOM     17  H   LIG d   1      -2.902  76.068 119.049  0.00  0.00     0.149 HD
ENDBRANCH   6  13
BRANCH   5  18
ATOM     18  N   LIG d   1      -3.040  78.809 117.162  0.00  0.00     0.381 N 
ATOM     19  H   LIG d   1      -3.235  79.058 116.213  0.00  0.00    -0.090 HD
ATOM     20  H   LIG d   1      -2.256  78.180 117.168  0.00  0.00    -0.090 HD
ATOM     21  H   LIG d   1      -2.823  79.626 117.689  0.00  0.00    -0.090 HD
ENDBRANCH   5  18
BRANCH   3  22
ATOM     22  C   LIG d   1      -7.806  78.862 117.629  0.00  0.00     0.382 C 
ATOM     23  O   LIG d   1      -8.902  78.297 117.863  0.00  0.00    -0.241 OA
ATOM     24  O   LIG d   1      -7.778  80.092 117.438  0.00  0.00    -0.241 OA
ENDBRANCH   3  22
TORSDOF 7
ENDMDL
MODEL 3
REMARK VINA RESULT:      -5.0      3.067      5.014
REMARK  7 active torsions:
REMARK  status: ('A' for Active; 'I' for Inactive)
REMARK    1  A    between atoms: C_2  and  C_3 
REMARK    2  A    between atoms: C_3  and  O_6 
REMARK    3  A    between atoms: C_3  and  C_4 
REMARK    4  A    between atoms: C_7  and  O_6 
REMARK    5  A    between atoms: C_9  and  C_10 
REMARK    6  A    between atoms: N_15  and  C_14 
REMARK    7  A    between atoms: N_20  and  C_19 
REMARK       I    between atoms: C_22  and  N_20 
ROOT
ATOM      1  C   LIG d   1      -4.282  75.172 116.438  0.00  0.00     0.161 C 
ATOM      2  C   LIG d   1      -5.028  74.025 116.115  0.00  0.00     0.016 C 
ATOM      3  C   LIG d   1      -6.435  73.955 116.226  0.00  0.00     0.038 C 
ATOM      4  C   LIG d   1      -7.212  75.084 116.527  0.00  0.00     0.028 C 
ATOM      5  C   LIG d   1      -6.468  76.130 117.351  0.00  0.00    -0.047 C 
ATOM      6  C   LIG d   1      -5.122  76.447 116.661  0.00  0.00     0.091 C 
ENDROOT
BRANCH   1   7
ATOM      7  O   LIG d   1      -3.279  75.402 115.430  0.00  0.00    -0.368 OA
BRANCH   7   8
ATOM      8  C   LIG d   1      -1.943  74.937 115.742  0.00  0.00     0.119 C 
BRANCH   8   9
ATOM      9  C   LIG d   1      -1.767  75.026 117.270  0.00  0.00     0.028 C 
ATOM     10  C   LIG d   1      -1.078  73.782 117.855  0.00  0.00     0.006 C 
ENDBRANCH   8   9
BRANCH   8  11
ATOM     11  C   LIG d   1      -0.877  75.868 115.155  0.00  0.00     0.028 C 
ATOM     12  C   LIG d   1      -0.434  76.961 116.141  0.00  0.00     0.006 C 
ENDBRANCH   8  11
ENDBRANCH   7   8
ENDBRANCH   1   7
BRANCH   6  13
ATOM     13  N   LIG d   1      -4.294  77.399 117.446  0.00  0.00    -0.311 N 
ATOM     14  C   LIG d   1      -3.720  78.480 116.919  0.00  0.00     0.210 C 
ATOM     15  C   LIG d   1      -2.892  79.316 117.899  0.00  0.00     0.109 C 
ATOM     16  O   LIG d   1      -3.846  78.842 115.739  0.00  0.00    -0.276 OA
ATOM     17  H   LIG d   1      -4.166  77.198 118.418  0.00  0.00     0.149 HD
ENDBRANCH   6  13
BRANCH   5  18
ATOM     18  N   LIG d   1      -7.347  77.308 117.473  0.00  0.00     0.381 N 
ATOM     19  H   LIG d   1      -8.288  77.054 117.247  0.00  0.00    -0.090 HD
ATOM     20  H   LIG d   1      -7.044  78.009 116.821  0.00  0.00    -0.090 HD
ATOM     21  H   LIG d   1      -7.307  77.668 118.401  0.00  0.00    -0.090 HD
ENDBRANCH   5  18
BRANCH   3  22
ATOM     22  C   LIG d   1      -7.077  72.736 116.075  0.00  0.00     0.382 C 
ATOM     23  O   LIG d   1      -6.456  71.756 115.597  0.00  0.00    -0.241 OA
ATOM     24  O   LIG d   1      -8.281  72.614 116.369  0.00  0.00    -0.241 OA
ENDBRANCH   3  22
TORSDOF 7
ENDMDL
MODEL 4
REMARK VINA RESULT:      -4.9      3.617      5.982
REMARK  7 active torsions:
REMARK  status: ('A' for Active; 'I' for Inactive)
REMARK    1  A    between atoms: C_2  and  C_3 
REMARK    2  A    between atoms: C_3  and  O_6 
REMARK    3  A    between atoms: C_3  and  C_4 
REMARK    4  A    between atoms: C_7  and  O_6 
REMARK    5  A    between atoms: C_9  and  C_10 
REMARK    6  A    between atoms: N_15  and  C_14 
REMARK    7  A    between atoms: N_20  and  C_19 
REMARK       I    between atoms: C_22  and  N_20 
ROOT
ATOM      1  C   LIG d   1      -3.161  76.467 115.722  0.00  0.00     0.161 C 
ATOM      2  C   LIG d   1      -3.324  77.541 114.831  0.00  0.00     0.016 C 
ATOM      3  C   LIG d   1      -2.243  78.208 114.210  0.00  0.00     0.038 C 
ATOM      4  C   LIG d   1      -0.923  77.746 114.324  0.00  0.00     0.028 C 
ATOM      5  C   LIG d   1      -0.660  76.976 115.613  0.00  0.00    -0.047 C 
ATOM      6  C   LIG d   1      -1.736  75.878 115.771  0.00  0.00     0.091 C 
ENDROOT
BRANCH   1   7
ATOM      7  O   LIG d   1      -4.121  75.434 115.422  0.00  0.00    -0.368 OA
BRANCH   7   8
ATOM      8  C   LIG d   1      -4.929  74.973 116.533  0.00  0.00     0.119 C 
BRANCH   8   9
ATOM      9  C   LIG d   1      -6.263  74.462 115.954  0.00  0.00     0.028 C 
ATOM     10  C   LIG d   1      -6.506  72.975 116.267  0.00  0.00     0.006 C 
ENDBRANCH   8   9
BRANCH   8  11
ATOM     11  C   LIG d   1      -5.308  76.130 117.463  0.00  0.00     0.028 C 
ATOM     12  C   LIG d   1      -6.787  76.531 117.343  0.00  0.00     0.006 C 
ENDBRANCH   8  11
ENDBRANCH   7   8
ENDBRANCH   1   7
BRANCH   6  13
ATOM     13  N   LIG d   1      -1.602  75.132 117.049  0.00  0.00    -0.311 N 
ATOM     14  C   LIG d   1      -1.000  73.947 117.147  0.00  0.00     0.210 C 
ATOM     15  C   LIG d   1      -0.989  73.342 118.555  0.00  0.00     0.109 C 
ATOM     16  O   LIG d   1      -0.446  73.356 116.209  0.00  0.00    -0.276 OA
ATOM     17  H   LIG d   1      -1.996  75.554 117.867  0.00  0.00     0.149 HD
ENDBRANCH   6  13
BRANCH   5  18
ATOM     18  N   LIG d   1       0.711  76.435 115.538  0.00  0.00     0.381 N 
ATOM     19  H   LIG d   1       0.755  75.721 114.838  0.00  0.00    -0.090 HD
ATOM     20  H   LIG d   1       0.947  76.024 116.423  0.00  0.00    -0.090 HD
ATOM     21  H   LIG d   1       1.353  77.164 115.319  0.00  0.00    -0.090 HD
ENDBRANCH   5  18
BRANCH   3  22
ATOM     22  C   LIG d   1      -2.473  79.375 113.499  0.00  0.00     0.382 C 
ATOM     23  O   LIG d   1      -2.008  79.506 112.341  0.00  0.00    -0.241 OA
ATOM     24  O   LIG d   1      -3.102  80.318 114.017  0.00  0.00    -0.241 OA
ENDBRANCH   3  22
TORSDOF 7
ENDMDL
MODEL 5
REMARK VINA RESULT:      -4.7     18.223     21.026
REMARK  7 active torsions:
REMARK  status: ('A' for Active; 'I' for Inactive)
REMARK    1  A    between atoms: C_2  and  C_3 
REMARK    2  A    between atoms: C_3  and  O_6 
REMARK    3  A    between atoms: C_3  and  C_4 
REMARK    4  A    between atoms: C_7  and  O_6 
REMARK    5  A    between atoms: C_9  and  C_10 
REMARK    6  A    between atoms: N_15  and  C_14 
REMARK    7  A    between atoms: N_20  and  C_19 
REMARK       I    between atoms: C_22  and  N_20 
ROOT
ATOM      1  C   LIG d   1     -25.276  85.444 114.406  0.00  0.00     0.161 C 
ATOM      2  C   LIG d   1     -24.196  86.333 114.282  0.00  0.00     0.016 C 
ATOM      3  C   LIG d   1     -22.921  85.947 113.809  0.00  0.00     0.038 C 
ATOM      4  C   LIG d   1     -22.681  84.669 113.282  0.00  0.00     0.028 C 
ATOM      5  C   LIG d   1     -23.601  83.595 113.855  0.00  0.00    -0.047 C 
ATOM      6  C   LIG d   1     -25.066  84.072 113.732  0.00  0.00     0.091 C 
ENDROOT
BRANCH   1   7
ATOM      7  O   LIG d   1     -26.480  86.065 113.913  0.00  0.00    -0.368 OA
BRANCH   7   8
ATOM      8  C   LIG d   1     -26.771  85.865 112.508  0.00  0.00     0.119 C 
BRANCH   8   9
ATOM      9  C   LIG d   1     -26.625  87.229 111.806  0.00  0.00     0.028 C 
ATOM     10  C   LIG d   1     -27.020  88.403 112.717  0.00  0.00     0.006 C 
ENDBRANCH   8   9
BRANCH   8  11
ATOM     11  C   LIG d   1     -28.230  85.453 112.294  0.00  0.00     0.028 C 
ATOM     12  C   LIG d   1     -28.967  85.165 113.612  0.00  0.00     0.006 C 
ENDBRANCH   8  11
ENDBRANCH   7   8
ENDBRANCH   1   7
BRANCH   6  13
ATOM     13  N   LIG d   1     -26.026  83.117 114.345  0.00  0.00    -0.311 N 
ATOM     14  C   LIG d   1     -26.675  82.183 113.652  0.00  0.00     0.210 C 
ATOM     15  C   LIG d   1     -27.633  81.317 114.475  0.00  0.00     0.109 C 
ATOM     16  O   LIG d   1     -26.523  81.969 112.440  0.00  0.00    -0.276 OA
ATOM     17  H   LIG d   1     -26.185  83.200 115.330  0.00  0.00     0.149 HD
ENDBRANCH   6  13
BRANCH   5  18
ATOM     18  N   LIG d   1     -23.336  82.344 113.120  0.00  0.00     0.381 N 
ATOM     19  H   LIG d   1     -24.173  82.032 112.670  0.00  0.00    -0.090 HD
ATOM     20  H   LIG d   1     -23.048  81.638 113.775  0.00  0.00    -0.090 HD
ATOM     21  H   LIG d   1     -22.621  82.491 112.443  0.00  0.00    -0.090 HD
ENDBRANCH   5  18
BRANCH   3  22
ATOM     22  C   LIG d   1     -21.858  86.833 113.897  0.00  0.00     0.382 C 
ATOM     23  O   LIG d   1     -21.938  87.835 114.647  0.00  0.00    -0.241 OA
ATOM     24  O   LIG d   1     -20.837  86.666 113.203  0.00  0.00    -0.241 OA
ENDBRANCH   3  22
TORSDOF 7
ENDMDL
MODEL 6
REMARK VINA RESULT:      -4.7     14.196     15.801
REMARK  7 active torsions:
REMARK  status: ('A' for Active; 'I' for Inactive)
REMARK    1  A    between atoms: C_2  and  C_3 
REMARK    2  A    between atoms: C_3  and  O_6 
REMARK    3  A    between atoms: C_3  and  C_4 
REMARK    4  A    between atoms: C_7  and  O_6 
REMARK    5  A    between atoms: C_9  and  C_10 
REMARK    6  A    between atoms: N_15  and  C_14 
REMARK    7  A    between atoms: N_20  and  C_19 
REMARK       I    between atoms: C_22  and  N_20 
ROOT
ATOM      1  C   LIG d   1       3.514  87.352 115.265  0.00  0.00     0.161 C 
ATOM      2  C   LIG d   1       2.940  88.599 114.965  0.00  0.00     0.016 C 
ATOM      3  C   LIG d   1       3.159  89.763 115.737  0.00  0.00     0.038 C 
ATOM      4  C   LIG d   1       4.094  89.794 116.782  0.00  0.00     0.028 C 
ATOM      5  C   LIG d   1       4.317  88.434 117.436  0.00  0.00    -0.047 C 
ATOM      6  C   LIG d   1       4.624  87.393 116.336  0.00  0.00     0.091 C 
ENDROOT
BRANCH   1   7
ATOM      7  O   LIG d   1       4.005  86.737 114.058  0.00  0.00    -0.368 OA
BRANCH   7   8
ATOM      8  C   LIG d   1       3.867  87.515 112.844  0.00  0.00     0.119 C 
BRANCH   8   9
ATOM      9  C   LIG d   1       3.151  86.630 111.805  0.00  0.00     0.028 C 
ATOM     10  C   LIG d   1       1.653  86.465 112.108  0.00  0.00     0.006 C 
ENDBRANCH   8   9
BRANCH   8  11
ATOM     11  C   LIG d   1       5.233  87.838 112.230  0.00  0.00     0.028 C 
ATOM     12  C   LIG d   1       5.898  89.067 112.869  0.00  0.00     0.006 C 
ENDBRANCH   8  11
ENDBRANCH   7   8
ENDBRANCH   1   7
BRANCH   6  13
ATOM     13  N   LIG d   1       4.773  86.018 116.882  0.00  0.00    -0.311 N 
ATOM     14  C   LIG d   1       5.947  85.485 117.217  0.00  0.00     0.210 C 
ATOM     15  C   LIG d   1       5.878  84.048 117.742  0.00  0.00     0.109 C 
ATOM     16  O   LIG d   1       7.034  86.078 117.160  0.00  0.00    -0.276 OA
ATOM     17  H   LIG d   1       3.937  85.478 116.991  0.00  0.00     0.149 HD
ENDBRANCH   6  13
BRANCH   5  18
ATOM     18  N   LIG d   1       5.413  88.584 118.413  0.00  0.00     0.381 N 
ATOM     19  H   LIG d   1       5.772  89.517 118.379  0.00  0.00    -0.090 HD
ATOM     20  H   LIG d   1       6.154  87.951 118.169  0.00  0.00    -0.090 HD
ATOM     21  H   LIG d   1       5.082  88.381 119.330  0.00  0.00    -0.090 HD
ENDBRANCH   5  18
BRANCH   3  22
ATOM     22  C   LIG d   1       2.409  90.902 115.491  0.00  0.00     0.382 C 
ATOM     23  O   LIG d   1       1.748  91.000 114.429  0.00  0.00    -0.241 OA
ATOM     24  O   LIG d   1       2.419  91.852 116.297  0.00  0.00    -0.241 OA
ENDBRANCH   3  22
TORSDOF 7
ENDMDL
MODEL 7
REMARK VINA RESULT:      -4.7     14.477     18.237
REMARK  7 active torsions:
REMARK  status: ('A' for Active; 'I' for Inactive)
REMARK    1  A    between atoms: C_2  and  C_3 
REMARK    2  A    between atoms: C_3  and  O_6 
REMARK    3  A    between atoms: C_3  and  C_4 
REMARK    4  A    between atoms: C_7  and  O_6 
REMARK    5  A    between atoms: C_9  and  C_10 
REMARK    6  A    between atoms: N_15  and  C_14 
REMARK    7  A    between atoms: N_20  and  C_19 
REMARK       I    between atoms: C_22  and  N_20 
ROOT
ATOM      1  C   LIG d   1      10.705  78.506 114.743  0.00  0.00     0.161 C 
ATOM      2  C   LIG d   1       9.372  78.855 115.013  0.00  0.00     0.016 C 
ATOM      3  C   LIG d   1       8.370  77.911 115.333  0.00  0.00     0.038 C 
ATOM      4  C   LIG d   1       8.669  76.558 115.554  0.00  0.00     0.028 C 
ATOM      5  C   LIG d   1       9.905  76.080 114.800  0.00  0.00    -0.047 C 
ATOM      6  C   LIG d   1      11.075  77.049 115.088  0.00  0.00     0.091 C 
ENDROOT
BRANCH   1   7
ATOM      7  O   LIG d   1      11.595  79.421 115.413  0.00  0.00    -0.368 OA
BRANCH   7   8
ATOM      8  C   LIG d   1      12.261  80.394 114.571  0.00  0.00     0.119 C 
BRANCH   8   9
ATOM      9  C   LIG d   1      12.004  79.992 113.106  0.00  0.00     0.028 C 
ATOM     10  C   LIG d   1      11.245  81.077 112.324  0.00  0.00     0.006 C 
ENDBRANCH   8   9
BRANCH   8  11
ATOM     11  C   LIG d   1      13.782  80.335 114.747  0.00  0.00     0.028 C 
ATOM     12  C   LIG d   1      14.519  79.981 113.445  0.00  0.00     0.006 C 
ENDBRANCH   8  11
ENDBRANCH   7   8
ENDBRANCH   1   7
BRANCH   6  13
ATOM     13  N   LIG d   1      12.300  76.702 114.322  0.00  0.00    -0.311 N 
ATOM     14  C   LIG d   1      13.507  76.597 114.877  0.00  0.00     0.210 C 
ATOM     15  C   LIG d   1      14.638  76.250 113.904  0.00  0.00     0.109 C 
ATOM     16  O   LIG d   1      13.742  76.727 116.087  0.00  0.00    -0.276 OA
ATOM     17  H   LIG d   1      12.195  76.548 113.338  0.00  0.00     0.149 HD
ENDBRANCH   6  13
BRANCH   5  18
ATOM     18  N   LIG d   1      10.181  74.696 115.228  0.00  0.00     0.381 N 
ATOM     19  H   LIG d   1      10.211  74.650 116.227  0.00  0.00    -0.090 HD
ATOM     20  H   LIG d   1      11.079  74.419 114.873  0.00  0.00    -0.090 HD
ATOM     21  H   LIG d   1       9.475  74.085 114.881  0.00  0.00    -0.090 HD
ENDBRANCH   5  18
BRANCH   3  22
ATOM     22  C   LIG d   1       7.043  78.310 115.396  0.00  0.00     0.382 C 
ATOM     23  O   LIG d   1       6.668  79.336 114.779  0.00  0.00    -0.241 OA
ATOM     24  O   LIG d   1       6.227  77.683 116.097  0.00  0.00    -0.241 OA
ENDBRANCH   3  22
TORSDOF 7
ENDMDL
MODEL 8
REMARK VINA RESULT:      -4.7     11.274     13.920
REMARK  7 active torsions:
REMARK  status: ('A' for Active; 'I' for Inactive)
REMARK    1  A    between atoms: C_2  and  C_3 
REMARK    2  A    between atoms: C_3  and  O_6 
REMARK    3  A    between atoms: C_3  and  C_4 
REMARK    4  A    between atoms: C_7  and  O_6 
REMARK    5  A    between atoms: C_9  and  C_10 
REMARK    6  A    between atoms: N_15  and  C_14 
REMARK    7  A    between atoms: N_20  and  C_19 
REMARK       I    between atoms: C_22  and  N_20 
ROOT
ATOM      1  C   LIG d   1       3.216  85.473 113.747  0.00  0.00     0.161 C 
ATOM      2  C   LIG d   1       3.714  86.559 113.008  0.00  0.00     0.016 C 
ATOM      3  C   LIG d   1       4.540  87.564 113.563  0.00  0.00     0.038 C 
ATOM      4  C   LIG d   1       5.051  87.468 114.866  0.00  0.00     0.028 C 
ATOM      5  C   LIG d   1       4.168  86.652 115.804  0.00  0.00    -0.047 C 
ATOM      6  C   LIG d   1       3.853  85.292 115.140  0.00  0.00     0.091 C 
ENDROOT
BRANCH   1   7
ATOM      7  O   LIG d   1       3.341  84.260 112.977  0.00  0.00    -0.368 OA
BRANCH   7   8
ATOM      8  C   LIG d   1       2.161  83.844 112.248  0.00  0.00     0.119 C 
BRANCH   8   9
ATOM      9  C   LIG d   1       0.944  84.078 113.164  0.00  0.00     0.028 C 
ATOM     10  C   LIG d   1      -0.236  84.723 112.418  0.00  0.00     0.006 C 
ENDBRANCH   8   9
BRANCH   8  11
ATOM     11  C   LIG d   1       2.178  82.337 111.974  0.00  0.00     0.028 C 
ATOM     12  C   LIG d   1       1.836  81.501 113.217  0.00  0.00     0.006 C 
ENDBRANCH   8  11
ENDBRANCH   7   8
ENDBRANCH   1   7
BRANCH   6  13
ATOM     13  N   LIG d   1       2.925  84.465 115.955  0.00  0.00    -0.311 N 
ATOM     14  C   LIG d   1       3.180  83.205 116.305  0.00  0.00     0.210 C 
ATOM     15  C   LIG d   1       2.081  82.527 117.129  0.00  0.00     0.109 C 
ATOM     16  O   LIG d   1       4.227  82.596 116.039  0.00  0.00    -0.276 OA
ATOM     17  H   LIG d   1       2.065  84.891 116.241  0.00  0.00     0.149 HD
ENDBRANCH   6  13
BRANCH   5  18
ATOM     18  N   LIG d   1       4.885  86.517 117.086  0.00  0.00     0.381 N 
ATOM     19  H   LIG d   1       5.872  86.567 116.929  0.00  0.00    -0.090 HD
ATOM     20  H   LIG d   1       4.674  85.619 117.484  0.00  0.00    -0.090 HD
ATOM     21  H   LIG d   1       4.604  87.240 117.712  0.00  0.00    -0.090 HD
ENDBRANCH   5  18
BRANCH   3  22
ATOM     22  C   LIG d   1       4.830  88.700 112.824  0.00  0.00     0.382 C 
ATOM     23  O   LIG d   1       5.947  88.815 112.263  0.00  0.00    -0.241 OA
ATOM     24  O   LIG d   1       4.007  89.632 112.747  0.00  0.00    -0.241 OA
ENDBRANCH   3  22
TORSDOF 7
ENDMDL
MODEL 9
REMARK VINA RESULT:      -4.7     16.593     19.071
REMARK  7 active torsions:
REMARK  status: ('A' for Active; 'I' for Inactive)
REMARK    1  A    between atoms: C_2  and  C_3 
REMARK    2  A    between atoms: C_3  and  O_6 
REMARK    3  A    between atoms: C_3  and  C_4 
REMARK    4  A    between atoms: C_7  and  O_6 
REMARK    5  A    between atoms: C_9  and  C_10 
REMARK    6  A    between atoms: N_15  and  C_14 
REMARK    7  A    between atoms: N_20  and  C_19 
REMARK       I    between atoms: C_22  and  N_20 
ROOT
ATOM      1  C   LIG d   1     -23.515  83.393 115.025  0.00  0.00     0.161 C 
ATOM      2  C   LIG d   1     -22.687  84.524 114.939  0.00  0.00     0.016 C 
ATOM      3  C   LIG d   1     -22.992  85.654 114.144  0.00  0.00     0.038 C 
ATOM      4  C   LIG d   1     -24.228  85.792 113.496  0.00  0.00     0.028 C 
ATOM      5  C   LIG d   1     -24.881  84.459 113.147  0.00  0.00    -0.047 C 
ATOM      6  C   LIG d   1     -24.920  83.572 114.413  0.00  0.00     0.091 C 
ENDROOT
BRANCH   1   7
ATOM      7  O   LIG d   1     -23.618  82.966 116.398  0.00  0.00    -0.368 OA
BRANCH   7   8
ATOM      8  C   LIG d   1     -22.721  81.904 116.804  0.00  0.00     0.119 C 
BRANCH   8   9
ATOM      9  C   LIG d   1     -23.496  80.577 116.696  0.00  0.00     0.028 C 
ATOM     10  C   LIG d   1     -22.768  79.540 115.824  0.00  0.00     0.006 C 
ENDBRANCH   8   9
BRANCH   8  11
ATOM     11  C   LIG d   1     -22.338  82.031 118.281  0.00  0.00     0.028 C 
ATOM     12  C   LIG d   1     -20.937  82.630 118.485  0.00  0.00     0.006 C 
ENDBRANCH   8  11
ENDBRANCH   7   8
ENDBRANCH   1   7
BRANCH   6  13
ATOM     13  N   LIG d   1     -25.468  82.218 114.140  0.00  0.00    -0.311 N 
ATOM     14  C   LIG d   1     -26.746  81.892 114.326  0.00  0.00     0.210 C 
ATOM     15  C   LIG d   1     -27.096  80.437 114.002  0.00  0.00     0.109 C 
ATOM     16  O   LIG d   1     -27.629  82.679 114.699  0.00  0.00    -0.276 OA
ATOM     17  H   LIG d   1     -24.826  81.526 113.804  0.00  0.00     0.149 HD
ENDBRANCH   6  13
BRANCH   5  18
ATOM     18  N   LIG d   1     -26.221  84.748 112.602  0.00  0.00     0.381 N 
ATOM     19  H   LIG d   1     -26.275  84.440 111.652  0.00  0.00    -0.090 HD
ATOM     20  H   LIG d   1     -26.372  85.741 112.621  0.00  0.00    -0.090 HD
ATOM     21  H   LIG d   1     -26.918  84.289 113.148  0.00  0.00    -0.090 HD
ENDBRANCH   5  18
BRANCH   3  22
ATOM     22  C   LIG d   1     -22.038  86.643 113.960  0.00  0.00     0.382 C 
ATOM     23  O   LIG d   1     -22.165  87.751 114.535  0.00  0.00    -0.241 OA
ATOM     24  O   LIG d   1     -21.075  86.456 113.193  0.00  0.00    -0.241 OA
ENDBRANCH   3  22
TORSDOF 7
ENDMDL
