MODEL 1
REMARK VINA RESULT:      -5.5      0.000      0.000
REMARK  7 active torsions:
REMARK  status: ('A' for Active; 'I' for Inactive)
REMARK    1  A    between atoms: C_2  and  C_3 
REMARK    2  A    between atoms: C_3  and  O_6 
REMARK    3  A    between atoms: C_3  and  C_4 
REMARK    4  A    between atoms: C_7  and  O_6 
REMARK    5  A    between atoms: C_9  and  C_10 
REMARK    6  A    between atoms: N_15  and  C_14 
REMARK    7  A    between atoms: N_20  and  C_19 
REMARK       I    between atoms: C_22  and  N_20 
ROOT
ATOM      1  C   LIG d   1      -6.813  76.471 117.032  0.00  0.00     0.161 C 
ATOM      2  C   LIG d   1      -7.320  75.175 116.840  0.00  0.00     0.016 C 
ATOM      3  C   LIG d   1      -8.642  74.800 117.173  0.00  0.00     0.038 C 
ATOM      4  C   LIG d   1      -9.599  75.740 117.582  0.00  0.00     0.028 C 
ATOM      5  C   LIG d   1      -8.994  76.960 118.270  0.00  0.00    -0.047 C 
ATOM      6  C   LIG d   1      -7.875  77.537 117.374  0.00  0.00     0.091 C 
ENDROOT
BRANCH   1   7
ATOM      7  O   LIG d   1      -6.052  76.874 115.877  0.00  0.00    -0.368 OA
BRANCH   7   8
ATOM      8  C   LIG d   1      -4.611  76.867 116.028  0.00  0.00     0.119 C 
BRANCH   8   9
ATOM      9  C   LIG d   1      -4.030  76.010 114.887  0.00  0.00     0.028 C 
ATOM     10  C   LIG d   1      -5.118  75.480 113.938  0.00  0.00     0.006 C 
ENDBRANCH   8   9
BRANCH   8  11
ATOM     11  C   LIG d   1      -4.190  76.161 117.320  0.00  0.00     0.028 C 
ATOM     12  C   LIG d   1      -3.211  75.001 117.074  0.00  0.00     0.006 C 
ENDBRANCH   8  11
ENDBRANCH   7   8
ENDBRANCH   1   7
BRANCH   6  13
ATOM     13  N   LIG d   1      -7.173  78.682 118.011  0.00  0.00    -0.311 N 
ATOM     14  C   LIG d   1      -7.511  79.954 117.806  0.00  0.00     0.210 C 
ATOM     15  C   LIG d   1      -6.645  80.980 118.544  0.00  0.00     0.109 C 
ATOM     16  O   LIG d   1      -8.465  80.329 117.108  0.00  0.00    -0.276 OA
ATOM     17  H   LIG d   1      -6.406  78.467 118.617  0.00  0.00     0.149 HD
ENDBRANCH   6  13
BRANCH   5  18
ATOM     18  N   LIG d   1     -10.087  77.919 118.519  0.00  0.00     0.381 N 
ATOM     19  H   LIG d   1     -10.970  77.454 118.442  0.00  0.00    -0.090 HD
ATOM     20  H   LIG d   1     -10.050  78.642 117.823  0.00  0.00    -0.090 HD
ATOM     21  H   LIG d   1      -9.991  78.316 119.428  0.00  0.00    -0.090 HD
ENDBRANCH   5  18
BRANCH   3  22
ATOM     22  C   LIG d   1      -9.007  73.463 117.134  0.00  0.00     0.382 C 
ATOM     23  O   LIG d   1      -9.900  73.079 116.340  0.00  0.00    -0.241 OA
ATOM     24  O   LIG d   1      -8.487  72.643 117.915  0.00  0.00    -0.241 OA
ENDBRANCH   3  22
TORSDOF 7
ENDMDL
MODEL 2
REMARK VINA RESULT:      -5.3      1.057      1.737
REMARK  7 active torsions:
REMARK  status: ('A' for Active; 'I' for Inactive)
REMARK    1  A    between atoms: C_2  and  C_3 
REMARK    2  A    between atoms: C_3  and  O_6 
REMARK    3  A    between atoms: C_3  and  C_4 
REMARK    4  A    between atoms: C_7  and  O_6 
REMARK    5  A    between atoms: C_9  and  C_10 
REMARK    6  A    between atoms: N_15  and  C_14 
REMARK    7  A    between atoms: N_20  and  C_19 
REMARK       I    between atoms: C_22  and  N_20 
ROOT
ATOM      1  C   LIG d   1      -6.389  75.637 116.954  0.00  0.00     0.161 C 
ATOM      2  C   LIG d   1      -6.951  74.362 116.768  0.00  0.00     0.016 C 
ATOM      3  C   LIG d   1      -8.276  74.035 117.137  0.00  0.00     0.038 C 
ATOM      4  C   LIG d   1      -9.184  75.008 117.580  0.00  0.00     0.028 C 
ATOM      5  C   LIG d   1      -8.514  76.198 118.257  0.00  0.00    -0.047 C 
ATOM      6  C   LIG d   1      -7.400  76.740 117.333  0.00  0.00     0.091 C 
ENDROOT
BRANCH   1   7
ATOM      7  O   LIG d   1      -5.647  76.020 115.779  0.00  0.00    -0.368 OA
BRANCH   7   8
ATOM      8  C   LIG d   1      -4.224  75.752 115.809  0.00  0.00     0.119 C 
BRANCH   8   9
ATOM      9  C   LIG d   1      -3.793  75.702 117.288  0.00  0.00     0.028 C 
ATOM     10  C   LIG d   1      -2.598  74.762 117.519  0.00  0.00     0.006 C 
ENDBRANCH   8   9
BRANCH   8  11
ATOM     11  C   LIG d   1      -3.427  76.907 115.194  0.00  0.00     0.028 C 
ATOM     12  C   LIG d   1      -3.541  78.208 116.004  0.00  0.00     0.006 C 
ENDBRANCH   8  11
ENDBRANCH   7   8
ENDBRANCH   1   7
BRANCH   6  13
ATOM     13  N   LIG d   1      -6.638  77.853 117.956  0.00  0.00    -0.311 N 
ATOM     14  C   LIG d   1      -6.941  79.138 117.780  0.00  0.00     0.210 C 
ATOM     15  C   LIG d   1      -6.015  80.125 118.496  0.00  0.00     0.109 C 
ATOM     16  O   LIG d   1      -7.908  79.553 117.124  0.00  0.00    -0.276 OA
ATOM     17  H   LIG d   1      -5.855  77.605 118.530  0.00  0.00     0.149 HD
ENDBRANCH   6  13
BRANCH   5  18
ATOM     18  N   LIG d   1      -9.563  77.195 118.544  0.00  0.00     0.381 N 
ATOM     19  H   LIG d   1     -10.462  76.810 118.337  0.00  0.00    -0.090 HD
ATOM     20  H   LIG d   1      -9.419  77.997 117.955  0.00  0.00    -0.090 HD
ATOM     21  H   LIG d   1      -9.522  77.467 119.502  0.00  0.00    -0.090 HD
ENDBRANCH   5  18
BRANCH   3  22
ATOM     22  C   LIG d   1      -8.692  72.713 117.101  0.00  0.00     0.382 C 
ATOM     23  O   LIG d   1      -9.771  72.380 117.648  0.00  0.00    -0.241 OA
ATOM     24  O   LIG d   1      -7.981  71.841 116.566  0.00  0.00    -0.241 OA
ENDBRANCH   3  22
TORSDOF 7
ENDMDL
MODEL 3
REMARK VINA RESULT:      -5.1      2.476      5.744
REMARK  7 active torsions:
REMARK  status: ('A' for Active; 'I' for Inactive)
REMARK    1  A    between atoms: C_2  and  C_3 
REMARK    2  A    between atoms: C_3  and  O_6 
REMARK    3  A    between atoms: C_3  and  C_4 
REMARK    4  A    between atoms: C_7  and  O_6 
REMARK    5  A    between atoms: C_9  and  C_10 
REMARK    6  A    between atoms: N_15  and  C_14 
REMARK    7  A    between atoms: N_20  and  C_19 
REMARK       I    between atoms: C_22  and  N_20 
ROOT
ATOM      1  C   LIG d   1      -6.464  76.746 117.651  0.00  0.00     0.161 C 
ATOM      2  C   LIG d   1      -7.297  77.865 117.491  0.00  0.00     0.016 C 
ATOM      3  C   LIG d   1      -6.808  79.177 117.292  0.00  0.00     0.038 C 
ATOM      4  C   LIG d   1      -5.445  79.437 117.087  0.00  0.00     0.028 C 
ATOM      5  C   LIG d   1      -4.527  78.411 117.743  0.00  0.00    -0.047 C 
ATOM      6  C   LIG d   1      -4.977  76.993 117.320  0.00  0.00     0.091 C 
ENDROOT
BRANCH   1   7
ATOM      7  O   LIG d   1      -6.973  75.643 116.876  0.00  0.00    -0.368 OA
BRANCH   7   8
ATOM      8  C   LIG d   1      -8.069  74.901 117.466  0.00  0.00     0.119 C 
BRANCH   8   9
ATOM      9  C   LIG d   1      -7.877  73.418 117.093  0.00  0.00     0.028 C 
ATOM     10  C   LIG d   1      -9.214  72.668 116.962  0.00  0.00     0.006 C 
ENDBRANCH   8   9
BRANCH   8  11
ATOM     11  C   LIG d   1      -9.411  75.304 116.849  0.00  0.00     0.028 C 
ATOM     12  C   LIG d   1     -10.309  76.076 117.828  0.00  0.00     0.006 C 
ENDBRANCH   8  11
ENDBRANCH   7   8
ENDBRANCH   1   7
BRANCH   6  13
ATOM     13  N   LIG d   1      -4.184  75.926 117.983  0.00  0.00    -0.311 N 
ATOM     14  C   LIG d   1      -3.071  75.410 117.465  0.00  0.00     0.210 C 
ATOM     15  C   LIG d   1      -2.420  74.305 118.302  0.00  0.00     0.109 C 
ATOM     16  O   LIG d   1      -2.543  75.786 116.407  0.00  0.00    -0.276 OA
ATOM     17  H   LIG d   1      -4.524  75.584 118.861  0.00  0.00     0.149 HD
ENDBRANCH   6  13
BRANCH   5  18
ATOM     18  N   LIG d   1      -3.145  78.724 117.335  0.00  0.00     0.381 N 
ATOM     19  H   LIG d   1      -2.707  79.292 118.032  0.00  0.00    -0.090 HD
ATOM     20  H   LIG d   1      -3.170  79.244 116.475  0.00  0.00    -0.090 HD
ATOM     21  H   LIG d   1      -2.628  77.882 117.207  0.00  0.00    -0.090 HD
ENDBRANCH   5  18
BRANCH   3  22
ATOM     22  C   LIG d   1      -7.685  80.251 117.337  0.00  0.00     0.382 C 
ATOM     23  O   LIG d   1      -8.794  80.131 117.910  0.00  0.00    -0.241 OA
ATOM     24  O   LIG d   1      -7.398  81.324 116.773  0.00  0.00    -0.241 OA
ENDBRANCH   3  22
TORSDOF 7
ENDMDL
MODEL 4
REMARK VINA RESULT:      -5.0     17.032     20.128
REMARK  7 active torsions:
REMARK  status: ('A' for Active; 'I' for Inactive)
REMARK    1  A    between atoms: C_2  and  C_3 
REMARK    2  A    between atoms: C_3  and  O_6 
REMARK    3  A    between atoms: C_3  and  C_4 
REMARK    4  A    between atoms: C_7  and  O_6 
REMARK    5  A    between atoms: C_9  and  C_10 
REMARK    6  A    between atoms: N_15  and  C_14 
REMARK    7  A    between atoms: N_20  and  C_19 
REMARK       I    between atoms: C_22  and  N_20 
ROOT
ATOM      1  C   LIG d   1      11.948  76.125 114.422  0.00  0.00     0.161 C 
ATOM      2  C   LIG d   1      10.586  76.471 114.434  0.00  0.00     0.016 C 
ATOM      3  C   LIG d   1      10.103  77.743 114.052  0.00  0.00     0.038 C 
ATOM      4  C   LIG d   1      10.940  78.715 113.484  0.00  0.00     0.028 C 
ATOM      5  C   LIG d   1      12.396  78.591 113.923  0.00  0.00    -0.047 C 
ATOM      6  C   LIG d   1      12.865  77.135 113.700  0.00  0.00     0.091 C 
ENDROOT
BRANCH   1   7
ATOM      7  O   LIG d   1      12.113  74.808 113.861  0.00  0.00    -0.368 OA
BRANCH   7   8
ATOM      8  C   LIG d   1      12.081  73.706 114.801  0.00  0.00     0.119 C 
BRANCH   8   9
ATOM      9  C   LIG d   1      13.298  73.859 115.734  0.00  0.00     0.028 C 
ATOM     10  C   LIG d   1      12.900  73.864 117.220  0.00  0.00     0.006 C 
ENDBRANCH   8   9
BRANCH   8  11
ATOM     11  C   LIG d   1      12.281  72.363 114.092  0.00  0.00     0.028 C 
ATOM     12  C   LIG d   1      13.528  72.343 113.193  0.00  0.00     0.006 C 
ENDBRANCH   8  11
ENDBRANCH   7   8
ENDBRANCH   1   7
BRANCH   6  13
ATOM     13  N   LIG d   1      14.252  76.907 114.182  0.00  0.00    -0.311 N 
ATOM     14  C   LIG d   1      15.327  77.024 113.404  0.00  0.00     0.210 C 
ATOM     15  C   LIG d   1      16.661  76.725 114.095  0.00  0.00     0.109 C 
ATOM     16  O   LIG d   1      15.304  77.378 112.216  0.00  0.00    -0.276 OA
ATOM     17  H   LIG d   1      14.365  76.646 115.142  0.00  0.00     0.149 HD
ENDBRANCH   6  13
BRANCH   5  18
ATOM     18  N   LIG d   1      13.179  79.575 113.152  0.00  0.00     0.381 N 
ATOM     19  H   LIG d   1      14.137  79.289 113.112  0.00  0.00    -0.090 HD
ATOM     20  H   LIG d   1      13.133  80.464 113.618  0.00  0.00    -0.090 HD
ATOM     21  H   LIG d   1      12.811  79.656 112.229  0.00  0.00    -0.090 HD
ENDBRANCH   5  18
BRANCH   3  22
ATOM     22  C   LIG d   1       8.773  78.069 114.274  0.00  0.00     0.382 C 
ATOM     23  O   LIG d   1       8.478  79.153 114.833  0.00  0.00    -0.241 OA
ATOM     24  O   LIG d   1       7.868  77.272 113.964  0.00  0.00    -0.241 OA
ENDBRANCH   3  22
TORSDOF 7
ENDMDL
MODEL 5
REMARK VINA RESULT:      -4.9     12.875     14.888
REMARK  7 active torsions:
REMARK  status: ('A' for Active; 'I' for Inactive)
REMARK    1  A    between atoms: C_2  and  C_3 
REMARK    2  A    between atoms: C_3  and  O_6 
REMARK    3  A    between atoms: C_3  and  C_4 
REMARK    4  A    between atoms: C_7  and  O_6 
REMARK    5  A    between atoms: C_9  and  C_10 
REMARK    6  A    between atoms: N_15  and  C_14 
REMARK    7  A    between atoms: N_20  and  C_19 
REMARK       I    between atoms: C_22  and  N_20 
ROOT
ATOM      1  C   LIG d   1       1.325  87.444 116.400  0.00  0.00     0.161 C 
ATOM      2  C   LIG d   1      -0.032  87.549 116.750  0.00  0.00     0.016 C 
ATOM      3  C   LIG d   1      -0.573  88.657 117.442  0.00  0.00     0.038 C 
ATOM      4  C   LIG d   1       0.182  89.810 117.701  0.00  0.00     0.028 C 
ATOM      5  C   LIG d   1       1.679  89.542 117.815  0.00  0.00    -0.047 C 
ATOM      6  C   LIG d   1       2.141  88.741 116.576  0.00  0.00     0.091 C 
ENDROOT
BRANCH   1   7
ATOM      7  O   LIG d   1       1.445  86.955 115.050  0.00  0.00    -0.368 OA
BRANCH   7   8
ATOM      8  C   LIG d   1       2.000  85.625 114.900  0.00  0.00     0.119 C 
BRANCH   8   9
ATOM      9  C   LIG d   1       3.345  85.765 114.160  0.00  0.00     0.028 C 
ATOM     10  C   LIG d   1       3.331  86.906 113.129  0.00  0.00     0.006 C 
ENDBRANCH   8   9
BRANCH   8  11
ATOM     11  C   LIG d   1       1.126  84.755 113.991  0.00  0.00     0.028 C 
ATOM     12  C   LIG d   1      -0.005  85.548 113.316  0.00  0.00     0.006 C 
ENDBRANCH   8  11
ENDBRANCH   7   8
ENDBRANCH   1   7
BRANCH   6  13
ATOM     13  N   LIG d   1       3.576  88.364 116.648  0.00  0.00    -0.311 N 
ATOM     14  C   LIG d   1       4.516  88.904 115.874  0.00  0.00     0.210 C 
ATOM     15  C   LIG d   1       5.930  88.358 116.097  0.00  0.00     0.109 C 
ATOM     16  O   LIG d   1       4.318  89.806 115.046  0.00  0.00    -0.276 OA
ATOM     17  H   LIG d   1       3.830  87.661 117.314  0.00  0.00     0.149 HD
ENDBRANCH   6  13
BRANCH   5  18
ATOM     18  N   LIG d   1       2.356  90.846 117.946  0.00  0.00     0.381 N 
ATOM     19  H   LIG d   1       2.754  90.930 118.861  0.00  0.00    -0.090 HD
ATOM     20  H   LIG d   1       1.679  91.578 117.828  0.00  0.00    -0.090 HD
ATOM     21  H   LIG d   1       3.071  90.930 117.257  0.00  0.00    -0.090 HD
ENDBRANCH   5  18
BRANCH   3  22
ATOM     22  C   LIG d   1      -1.874  88.600 117.919  0.00  0.00     0.382 C 
ATOM     23  O   LIG d   1      -2.646  89.574 117.751  0.00  0.00    -0.241 OA
ATOM     24  O   LIG d   1      -2.271  87.605 118.554  0.00  0.00    -0.241 OA
ENDBRANCH   3  22
TORSDOF 7
ENDMDL
MODEL 6
REMARK VINA RESULT:      -4.6     16.588     19.221
REMARK  7 active torsions:
REMARK  status: ('A' for Active; 'I' for Inactive)
REMARK    1  A    between atoms: C_2  and  C_3 
REMARK    2  A    between atoms: C_3  and  O_6 
REMARK    3  A    between atoms: C_3  and  C_4 
REMARK    4  A    between atoms: C_7  and  O_6 
REMARK    5  A    between atoms: C_9  and  C_10 
REMARK    6  A    between atoms: N_15  and  C_14 
REMARK    7  A    between atoms: N_20  and  C_19 
REMARK       I    between atoms: C_22  and  N_20 
ROOT
ATOM      1  C   LIG d   1      11.622  78.570 114.467  0.00  0.00     0.161 C 
ATOM      2  C   LIG d   1      10.431  78.016 113.968  0.00  0.00     0.016 C 
ATOM      3  C   LIG d   1       9.167  78.219 114.568  0.00  0.00     0.038 C 
ATOM      4  C   LIG d   1       8.986  79.119 115.628  0.00  0.00     0.028 C 
ATOM      5  C   LIG d   1      10.235  79.309 116.482  0.00  0.00    -0.047 C 
ATOM      6  C   LIG d   1      11.428  79.644 115.558  0.00  0.00     0.091 C 
ENDROOT
BRANCH   1   7
ATOM      7  O   LIG d   1      12.410  79.095 113.381  0.00  0.00    -0.368 OA
BRANCH   7   8
ATOM      8  C   LIG d   1      13.421  78.209 112.840  0.00  0.00     0.119 C 
BRANCH   8   9
ATOM      9  C   LIG d   1      13.859  77.261 113.973  0.00  0.00     0.028 C 
ATOM     10  C   LIG d   1      15.049  76.374 113.569  0.00  0.00     0.006 C 
ENDBRANCH   8   9
BRANCH   8  11
ATOM     11  C   LIG d   1      14.684  78.981 112.446  0.00  0.00     0.028 C 
ATOM     12  C   LIG d   1      14.971  80.170 113.376  0.00  0.00     0.006 C 
ENDBRANCH   8  11
ENDBRANCH   7   8
ENDBRANCH   1   7
BRANCH   6  13
ATOM     13  N   LIG d   1      12.707  79.763 116.305  0.00  0.00    -0.311 N 
ATOM     14  C   LIG d   1      13.158  80.910 116.808  0.00  0.00     0.210 C 
ATOM     15  C   LIG d   1      14.509  80.815 117.525  0.00  0.00     0.109 C 
ATOM     16  O   LIG d   1      12.553  81.991 116.758  0.00  0.00    -0.276 OA
ATOM     17  H   LIG d   1      13.248  78.928 116.419  0.00  0.00     0.149 HD
ENDBRANCH   6  13
BRANCH   5  18
ATOM     18  N   LIG d   1       9.947  80.373 117.463  0.00  0.00     0.381 N 
ATOM     19  H   LIG d   1      10.093  81.269 117.043  0.00  0.00    -0.090 HD
ATOM     20  H   LIG d   1      10.580  80.281 118.237  0.00  0.00    -0.090 HD
ATOM     21  H   LIG d   1       9.007  80.296 117.782  0.00  0.00    -0.090 HD
ENDBRANCH   5  18
BRANCH   3  22
ATOM     22  C   LIG d   1       8.074  77.486 114.131  0.00  0.00     0.382 C 
ATOM     23  O   LIG d   1       8.246  76.379 113.568  0.00  0.00    -0.241 OA
ATOM     24  O   LIG d   1       6.920  77.939 114.254  0.00  0.00    -0.241 OA
ENDBRANCH   3  22
TORSDOF 7
ENDMDL
MODEL 7
REMARK VINA RESULT:      -4.5      2.725      4.268
REMARK  7 active torsions:
REMARK  status: ('A' for Active; 'I' for Inactive)
REMARK    1  A    between atoms: C_2  and  C_3 
REMARK    2  A    between atoms: C_3  and  O_6 
REMARK    3  A    between atoms: C_3  and  C_4 
REMARK    4  A    between atoms: C_7  and  O_6 
REMARK    5  A    between atoms: C_9  and  C_10 
REMARK    6  A    between atoms: N_15  and  C_14 
REMARK    7  A    between atoms: N_20  and  C_19 
REMARK       I    between atoms: C_22  and  N_20 
ROOT
ATOM      1  C   LIG d   1      -3.902  76.123 116.966  0.00  0.00     0.161 C 
ATOM      2  C   LIG d   1      -5.080  75.385 116.767  0.00  0.00     0.016 C 
ATOM      3  C   LIG d   1      -6.362  75.975 116.682  0.00  0.00     0.038 C 
ATOM      4  C   LIG d   1      -6.537  77.366 116.638  0.00  0.00     0.028 C 
ATOM      5  C   LIG d   1      -5.426  78.138 117.342  0.00  0.00    -0.047 C 
ATOM      6  C   LIG d   1      -4.060  77.650 116.809  0.00  0.00     0.091 C 
ENDROOT
BRANCH   1   7
ATOM      7  O   LIG d   1      -2.866  75.634 116.090  0.00  0.00    -0.368 OA
BRANCH   7   8
ATOM      8  C   LIG d   1      -1.929  74.695 116.673  0.00  0.00     0.119 C 
BRANCH   8   9
ATOM      9  C   LIG d   1      -1.753  75.076 118.156  0.00  0.00     0.028 C 
ATOM     10  C   LIG d   1      -0.333  75.578 118.468  0.00  0.00     0.006 C 
ENDBRANCH   8   9
BRANCH   8  11
ATOM     11  C   LIG d   1      -0.538  74.836 116.050  0.00  0.00     0.028 C 
ATOM     12  C   LIG d   1      -0.544  75.676 114.762  0.00  0.00     0.006 C 
ENDBRANCH   8  11
ENDBRANCH   7   8
ENDBRANCH   1   7
BRANCH   6  13
ATOM     13  N   LIG d   1      -2.917  78.294 117.506  0.00  0.00    -0.311 N 
ATOM     14  C   LIG d   1      -1.880  78.835 116.868  0.00  0.00     0.210 C 
ATOM     15  C   LIG d   1      -0.800  79.430 117.777  0.00  0.00     0.109 C 
ATOM     16  O   LIG d   1      -1.768  78.908 115.635  0.00  0.00    -0.276 OA
ATOM     17  H   LIG d   1      -2.941  78.308 118.507  0.00  0.00     0.149 HD
ENDBRANCH   6  13
BRANCH   5  18
ATOM     18  N   LIG d   1      -5.661  79.575 117.101  0.00  0.00     0.381 N 
ATOM     19  H   LIG d   1      -6.473  79.694 116.529  0.00  0.00    -0.090 HD
ATOM     20  H   LIG d   1      -4.871  79.955 116.610  0.00  0.00    -0.090 HD
ATOM     21  H   LIG d   1      -5.783  80.050 117.968  0.00  0.00    -0.090 HD
ENDBRANCH   5  18
BRANCH   3  22
ATOM     22  C   LIG d   1      -7.491  75.169 116.679  0.00  0.00     0.382 C 
ATOM     23  O   LIG d   1      -7.392  73.951 116.961  0.00  0.00    -0.241 OA
ATOM     24  O   LIG d   1      -8.600  75.636 116.355  0.00  0.00    -0.241 OA
ENDBRANCH   3  22
TORSDOF 7
ENDMDL
MODEL 8
REMARK VINA RESULT:      -4.5     16.006     18.999
REMARK  7 active torsions:
REMARK  status: ('A' for Active; 'I' for Inactive)
REMARK    1  A    between atoms: C_2  and  C_3 
REMARK    2  A    between atoms: C_3  and  O_6 
REMARK    3  A    between atoms: C_3  and  C_4 
REMARK    4  A    between atoms: C_7  and  O_6 
REMARK    5  A    between atoms: C_9  and  C_10 
REMARK    6  A    between atoms: N_15  and  C_14 
REMARK    7  A    between atoms: N_20  and  C_19 
REMARK       I    between atoms: C_22  and  N_20 
ROOT
ATOM      1  C   LIG d   1      11.019  76.440 114.085  0.00  0.00     0.161 C 
ATOM      2  C   LIG d   1       9.845  77.210 114.042  0.00  0.00     0.016 C 
ATOM      3  C   LIG d   1       8.989  77.387 115.154  0.00  0.00     0.038 C 
ATOM      4  C   LIG d   1       9.331  76.927 116.434  0.00  0.00     0.028 C 
ATOM      5  C   LIG d   1      10.257  75.715 116.414  0.00  0.00    -0.047 C 
ATOM      6  C   LIG d   1      11.466  76.022 115.501  0.00  0.00     0.091 C 
ENDROOT
BRANCH   1   7
ATOM      7  O   LIG d   1      12.084  77.136 113.408  0.00  0.00    -0.368 OA
BRANCH   7   8
ATOM      8  C   LIG d   1      12.044  78.583 113.474  0.00  0.00     0.119 C 
BRANCH   8   9
ATOM      9  C   LIG d   1      12.735  79.123 112.208  0.00  0.00     0.028 C 
ATOM     10  C   LIG d   1      14.039  78.374 111.885  0.00  0.00     0.006 C 
ENDBRANCH   8   9
BRANCH   8  11
ATOM     11  C   LIG d   1      12.877  79.110 114.647  0.00  0.00     0.028 C 
ATOM     12  C   LIG d   1      12.014  79.718 115.764  0.00  0.00     0.006 C 
ENDBRANCH   8  11
ENDBRANCH   7   8
ENDBRANCH   1   7
BRANCH   6  13
ATOM     13  N   LIG d   1      12.379  74.858 115.359  0.00  0.00    -0.311 N 
ATOM     14  C   LIG d   1      13.685  74.915 115.613  0.00  0.00     0.210 C 
ATOM     15  C   LIG d   1      14.447  73.606 115.383  0.00  0.00     0.109 C 
ATOM     16  O   LIG d   1      14.280  75.917 116.037  0.00  0.00    -0.276 OA
ATOM     17  H   LIG d   1      11.974  73.996 115.050  0.00  0.00     0.149 HD
ENDBRANCH   6  13
BRANCH   5  18
ATOM     18  N   LIG d   1      10.643  75.426 117.808  0.00  0.00     0.381 N 
ATOM     19  H   LIG d   1      11.599  75.682 117.955  0.00  0.00    -0.090 HD
ATOM     20  H   LIG d   1      10.552  74.438 117.972  0.00  0.00    -0.090 HD
ATOM     21  H   LIG d   1      10.056  75.930 118.436  0.00  0.00    -0.090 HD
ENDBRANCH   5  18
BRANCH   3  22
ATOM     22  C   LIG d   1       7.756  77.998 114.982  0.00  0.00     0.382 C 
ATOM     23  O   LIG d   1       7.238  78.642 115.925  0.00  0.00    -0.241 OA
ATOM     24  O   LIG d   1       7.135  77.875 113.909  0.00  0.00    -0.241 OA
ENDBRANCH   3  22
TORSDOF 7
ENDMDL
MODEL 9
REMARK VINA RESULT:      -4.5     17.316     20.302
REMARK  7 active torsions:
REMARK  status: ('A' for Active; 'I' for Inactive)
REMARK    1  A    between atoms: C_2  and  C_3 
REMARK    2  A    between atoms: C_3  and  O_6 
REMARK    3  A    between atoms: C_3  and  C_4 
REMARK    4  A    between atoms: C_7  and  O_6 
REMARK    5  A    between atoms: C_9  and  C_10 
REMARK    6  A    between atoms: N_15  and  C_14 
REMARK    7  A    between atoms: N_20  and  C_19 
REMARK       I    between atoms: C_22  and  N_20 
ROOT
ATOM      1  C   LIG d   1      12.264  78.663 113.725  0.00  0.00     0.161 C 
ATOM      2  C   LIG d   1      10.895  78.841 113.987  0.00  0.00     0.016 C 
ATOM      3  C   LIG d   1      10.008  77.771 114.250  0.00  0.00     0.038 C 
ATOM      4  C   LIG d   1      10.463  76.455 114.418  0.00  0.00     0.028 C 
ATOM      5  C   LIG d   1      11.755  76.160 113.665  0.00  0.00    -0.047 C 
ATOM      6  C   LIG d   1      12.799  77.245 114.015  0.00  0.00     0.091 C 
ENDROOT
BRANCH   1   7
ATOM      7  O   LIG d   1      13.031  79.645 114.449  0.00  0.00    -0.368 OA
BRANCH   7   8
ATOM      8  C   LIG d   1      13.205  79.401 115.866  0.00  0.00     0.119 C 
BRANCH   8   9
ATOM      9  C   LIG d   1      12.677  80.638 116.617  0.00  0.00     0.028 C 
ATOM     10  C   LIG d   1      12.976  80.581 118.125  0.00  0.00     0.006 C 
ENDBRANCH   8   9
BRANCH   8  11
ATOM     11  C   LIG d   1      14.688  79.304 116.237  0.00  0.00     0.028 C 
ATOM     12  C   LIG d   1      15.613  79.875 115.150  0.00  0.00     0.006 C 
ENDBRANCH   8  11
ENDBRANCH   7   8
ENDBRANCH   1   7
BRANCH   6  13
ATOM     13  N   LIG d   1      14.066  77.079 113.255  0.00  0.00    -0.311 N 
ATOM     14  C   LIG d   1      15.132  76.443 113.738  0.00  0.00     0.210 C 
ATOM     15  C   LIG d   1      16.341  76.403 112.799  0.00  0.00     0.109 C 
ATOM     16  O   LIG d   1      15.180  75.881 114.843  0.00  0.00    -0.276 OA
ATOM     17  H   LIG d   1      14.103  77.477 112.337  0.00  0.00     0.149 HD
ENDBRANCH   6  13
BRANCH   5  18
ATOM     18  N   LIG d   1      12.188  74.800 114.039  0.00  0.00     0.381 N 
ATOM     19  H   LIG d   1      12.366  74.759 115.023  0.00  0.00    -0.090 HD
ATOM     20  H   LIG d   1      13.042  74.586 113.555  0.00  0.00    -0.090 HD
ATOM     21  H   LIG d   1      11.484  74.139 113.794  0.00  0.00    -0.090 HD
ENDBRANCH   5  18
BRANCH   3  22
ATOM     22  C   LIG d   1       8.643  78.009 114.307  0.00  0.00     0.382 C 
ATOM     23  O   LIG d   1       8.213  79.069 114.823  0.00  0.00    -0.241 OA
ATOM     24  O   LIG d   1       7.836  77.158 113.889  0.00  0.00    -0.241 OA
ENDBRANCH   3  22
TORSDOF 7
ENDMDL
