MODEL 1
REMARK VINA RESULT:      -5.3      0.000      0.000
REMARK  7 active torsions:
REMARK  status: ('A' for Active; 'I' for Inactive)
REMARK    1  A    between atoms: C_2  and  C_3 
REMARK    2  A    between atoms: C_3  and  O_6 
REMARK    3  A    between atoms: C_3  and  C_4 
REMARK    4  A    between atoms: C_7  and  O_6 
REMARK    5  A    between atoms: C_9  and  C_10 
REMARK    6  A    between atoms: N_15  and  C_14 
REMARK    7  A    between atoms: N_20  and  C_19 
REMARK       I    between atoms: C_22  and  N_20 
ROOT
ATOM      1  C   LIG d   1      -2.531  77.991 116.206  0.00  0.00     0.161 C 
ATOM      2  C   LIG d   1      -2.902  78.900 115.200  0.00  0.00     0.016 C 
ATOM      3  C   LIG d   1      -2.367  78.873 113.892  0.00  0.00     0.038 C 
ATOM      4  C   LIG d   1      -1.532  77.835 113.453  0.00  0.00     0.028 C 
ATOM      5  C   LIG d   1      -0.735  77.182 114.578  0.00  0.00    -0.047 C 
ATOM      6  C   LIG d   1      -1.705  76.784 115.714  0.00  0.00     0.091 C 
ENDROOT
BRANCH   1   7
ATOM      7  O   LIG d   1      -3.703  77.541 116.914  0.00  0.00    -0.368 OA
BRANCH   7   8
ATOM      8  C   LIG d   1      -4.822  77.122 116.094  0.00  0.00     0.119 C 
BRANCH   8   9
ATOM      9  C   LIG d   1      -6.110  77.613 116.783  0.00  0.00     0.028 C 
ATOM     10  C   LIG d   1      -6.884  76.470 117.462  0.00  0.00     0.006 C 
ENDBRANCH   8   9
BRANCH   8  11
ATOM     11  C   LIG d   1      -4.941  75.596 116.051  0.00  0.00     0.028 C 
ATOM     12  C   LIG d   1      -5.166  75.056 114.630  0.00  0.00     0.006 C 
ENDBRANCH   8  11
ENDBRANCH   7   8
ENDBRANCH   1   7
BRANCH   6  13
ATOM     13  N   LIG d   1      -0.997  76.215 116.890  0.00  0.00    -0.311 N 
ATOM     14  C   LIG d   1      -1.160  74.961 117.308  0.00  0.00     0.210 C 
ATOM     15  C   LIG d   1      -0.350  74.583 118.551  0.00  0.00     0.109 C 
ATOM     16  O   LIG d   1      -1.875  74.116 116.747  0.00  0.00    -0.276 OA
ATOM     17  H   LIG d   1      -0.373  76.822 117.385  0.00  0.00     0.149 HD
ENDBRANCH   6  13
BRANCH   5  18
ATOM     18  N   LIG d   1      -0.014  76.031 114.003  0.00  0.00     0.381 N 
ATOM     19  H   LIG d   1      -0.079  76.054 113.005  0.00  0.00    -0.090 HD
ATOM     20  H   LIG d   1      -0.445  75.183 114.327  0.00  0.00    -0.090 HD
ATOM     21  H   LIG d   1       0.942  76.054 114.281  0.00  0.00    -0.090 HD
ENDBRANCH   5  18
BRANCH   3  22
ATOM     22  C   LIG d   1      -2.637  79.916 113.018  0.00  0.00     0.382 C 
ATOM     23  O   LIG d   1      -2.122  79.924 111.874  0.00  0.00    -0.241 OA
ATOM     24  O   LIG d   1      -3.353  80.870 113.375  0.00  0.00    -0.241 OA
ENDBRANCH   3  22
TORSDOF 7
ENDMDL
MODEL 2
REMARK VINA RESULT:      -5.0      2.721      5.825
REMARK  7 active torsions:
REMARK  status: ('A' for Active; 'I' for Inactive)
REMARK    1  A    between atoms: C_2  and  C_3 
REMARK    2  A    between atoms: C_3  and  O_6 
REMARK    3  A    between atoms: C_3  and  C_4 
REMARK    4  A    between atoms: C_7  and  O_6 
REMARK    5  A    between atoms: C_9  and  C_10 
REMARK    6  A    between atoms: N_15  and  C_14 
REMARK    7  A    between atoms: N_20  and  C_19 
REMARK       I    between atoms: C_22  and  N_20 
ROOT
ATOM      1  C   LIG d   1      -3.831  75.853 115.562  0.00  0.00     0.161 C 
ATOM      2  C   LIG d   1      -4.750  74.964 116.145  0.00  0.00     0.016 C 
ATOM      3  C   LIG d   1      -5.995  74.638 115.558  0.00  0.00     0.038 C 
ATOM      4  C   LIG d   1      -6.341  75.064 114.267  0.00  0.00     0.028 C 
ATOM      5  C   LIG d   1      -5.664  76.367 113.858  0.00  0.00    -0.047 C 
ATOM      6  C   LIG d   1      -4.142  76.240 114.102  0.00  0.00     0.091 C 
ENDROOT
BRANCH   1   7
ATOM      7  O   LIG d   1      -2.498  75.312 115.664  0.00  0.00    -0.368 OA
BRANCH   7   8
ATOM      8  C   LIG d   1      -1.628  75.941 116.637  0.00  0.00     0.119 C 
BRANCH   8   9
ATOM      9  C   LIG d   1      -0.569  76.746 115.859  0.00  0.00     0.028 C 
ATOM     10  C   LIG d   1      -0.586  78.241 116.220  0.00  0.00     0.006 C 
ENDBRANCH   8   9
BRANCH   8  11
ATOM     11  C   LIG d   1      -0.839  74.899 117.435  0.00  0.00     0.028 C 
ATOM     12  C   LIG d   1      -1.731  74.063 118.367  0.00  0.00     0.006 C 
ENDBRANCH   8  11
ENDBRANCH   7   8
ENDBRANCH   1   7
BRANCH   6  13
ATOM     13  N   LIG d   1      -3.414  77.502 113.806  0.00  0.00    -0.311 N 
ATOM     14  C   LIG d   1      -2.504  77.613 112.840  0.00  0.00     0.210 C 
ATOM     15  C   LIG d   1      -1.858  78.997 112.717  0.00  0.00     0.109 C 
ATOM     16  O   LIG d   1      -2.193  76.707 112.053  0.00  0.00    -0.276 OA
ATOM     17  H   LIG d   1      -3.627  78.296 114.377  0.00  0.00     0.149 HD
ENDBRANCH   6  13
BRANCH   5  18
ATOM     18  N   LIG d   1      -6.003  76.621 112.445  0.00  0.00     0.381 N 
ATOM     19  H   LIG d   1      -5.547  77.454 112.131  0.00  0.00    -0.090 HD
ATOM     20  H   LIG d   1      -6.996  76.757 112.369  0.00  0.00    -0.090 HD
ATOM     21  H   LIG d   1      -5.723  75.848 111.882  0.00  0.00    -0.090 HD
ENDBRANCH   5  18
BRANCH   3  22
ATOM     22  C   LIG d   1      -6.925  73.908 116.283  0.00  0.00     0.382 C 
ATOM     23  O   LIG d   1      -7.827  74.502 116.922  0.00  0.00    -0.241 OA
ATOM     24  O   LIG d   1      -6.848  72.667 116.341  0.00  0.00    -0.241 OA
ENDBRANCH   3  22
TORSDOF 7
ENDMDL
MODEL 3
REMARK VINA RESULT:      -4.7      2.589      5.578
REMARK  7 active torsions:
REMARK  status: ('A' for Active; 'I' for Inactive)
REMARK    1  A    between atoms: C_2  and  C_3 
REMARK    2  A    between atoms: C_3  and  O_6 
REMARK    3  A    between atoms: C_3  and  C_4 
REMARK    4  A    between atoms: C_7  and  O_6 
REMARK    5  A    between atoms: C_9  and  C_10 
REMARK    6  A    between atoms: N_15  and  C_14 
REMARK    7  A    between atoms: N_20  and  C_19 
REMARK       I    between atoms: C_22  and  N_20 
ROOT
ATOM      1  C   LIG d   1      -4.036  75.859 116.151  0.00  0.00     0.161 C 
ATOM      2  C   LIG d   1      -5.238  75.137 116.065  0.00  0.00     0.016 C 
ATOM      3  C   LIG d   1      -6.506  75.704 116.328  0.00  0.00     0.038 C 
ATOM      4  C   LIG d   1      -6.672  77.079 116.549  0.00  0.00     0.028 C 
ATOM      5  C   LIG d   1      -5.438  77.751 117.143  0.00  0.00    -0.047 C 
ATOM      6  C   LIG d   1      -4.207  77.387 116.283  0.00  0.00     0.091 C 
ENDROOT
BRANCH   1   7
ATOM      7  O   LIG d   1      -3.195  75.544 115.024  0.00  0.00    -0.368 OA
BRANCH   7   8
ATOM      8  C   LIG d   1      -1.955  74.857 115.325  0.00  0.00     0.119 C 
BRANCH   8   9
ATOM      9  C   LIG d   1      -1.930  74.592 116.843  0.00  0.00     0.028 C 
ATOM     10  C   LIG d   1      -0.678  75.174 117.520  0.00  0.00     0.006 C 
ENDBRANCH   8   9
BRANCH   8  11
ATOM     11  C   LIG d   1      -0.742  75.750 115.049  0.00  0.00     0.028 C 
ATOM     12  C   LIG d   1      -0.938  76.660 113.826  0.00  0.00     0.006 C 
ENDBRANCH   8  11
ENDBRANCH   7   8
ENDBRANCH   1   7
BRANCH   6  13
ATOM     13  N   LIG d   1      -2.943  77.934 116.842  0.00  0.00    -0.311 N 
ATOM     14  C   LIG d   1      -2.277  78.949 116.293  0.00  0.00     0.210 C 
ATOM     15  C   LIG d   1      -0.987  79.343 117.019  0.00  0.00     0.109 C 
ATOM     16  O   LIG d   1      -2.650  79.581 115.293  0.00  0.00    -0.276 OA
ATOM     17  H   LIG d   1      -2.586  77.501 117.671  0.00  0.00     0.149 HD
ENDBRANCH   6  13
BRANCH   5  18
ATOM     18  N   LIG d   1      -5.701  79.201 117.193  0.00  0.00     0.381 N 
ATOM     19  H   LIG d   1      -5.338  79.582 118.044  0.00  0.00    -0.090 HD
ATOM     20  H   LIG d   1      -6.694  79.353 117.178  0.00  0.00    -0.090 HD
ATOM     21  H   LIG d   1      -5.277  79.652 116.412  0.00  0.00    -0.090 HD
ENDBRANCH   5  18
BRANCH   3  22
ATOM     22  C   LIG d   1      -7.622  74.884 116.410  0.00  0.00     0.382 C 
ATOM     23  O   LIG d   1      -8.770  75.373 116.280  0.00  0.00    -0.241 OA
ATOM     24  O   LIG d   1      -7.496  73.670 116.657  0.00  0.00    -0.241 OA
ENDBRANCH   3  22
TORSDOF 7
ENDMDL
MODEL 4
REMARK VINA RESULT:      -4.7      9.032     11.021
REMARK  7 active torsions:
REMARK  status: ('A' for Active; 'I' for Inactive)
REMARK    1  A    between atoms: C_2  and  C_3 
REMARK    2  A    between atoms: C_3  and  O_6 
REMARK    3  A    between atoms: C_3  and  C_4 
REMARK    4  A    between atoms: C_7  and  O_6 
REMARK    5  A    between atoms: C_9  and  C_10 
REMARK    6  A    between atoms: N_15  and  C_14 
REMARK    7  A    between atoms: N_20  and  C_19 
REMARK       I    between atoms: C_22  and  N_20 
ROOT
ATOM      1  C   LIG d   1       2.811  86.292 113.904  0.00  0.00     0.161 C 
ATOM      2  C   LIG d   1       3.232  87.624 113.762  0.00  0.00     0.016 C 
ATOM      3  C   LIG d   1       4.105  88.265 114.671  0.00  0.00     0.038 C 
ATOM      4  C   LIG d   1       4.740  87.566 115.708  0.00  0.00     0.028 C 
ATOM      5  C   LIG d   1       3.954  86.350 116.188  0.00  0.00    -0.047 C 
ATOM      6  C   LIG d   1       3.581  85.480 114.966  0.00  0.00     0.091 C 
ENDROOT
BRANCH   1   7
ATOM      7  O   LIG d   1       2.865  85.624 112.627  0.00  0.00    -0.368 OA
BRANCH   7   8
ATOM      8  C   LIG d   1       1.589  85.261 112.043  0.00  0.00     0.119 C 
BRANCH   8   9
ATOM      9  C   LIG d   1       0.485  85.838 112.950  0.00  0.00     0.028 C 
ATOM     10  C   LIG d   1      -0.791  86.191 112.167  0.00  0.00     0.006 C 
ENDBRANCH   8   9
BRANCH   8  11
ATOM     11  C   LIG d   1       1.379  83.745 112.063  0.00  0.00     0.028 C 
ATOM     12  C   LIG d   1       2.683  82.959 111.850  0.00  0.00     0.006 C 
ENDBRANCH   8  11
ENDBRANCH   7   8
ENDBRANCH   1   7
BRANCH   6  13
ATOM     13  N   LIG d   1       2.738  84.313 115.338  0.00  0.00    -0.311 N 
ATOM     14  C   LIG d   1       3.227  83.090 115.539  0.00  0.00     0.210 C 
ATOM     15  C   LIG d   1       2.183  82.027 115.894  0.00  0.00     0.109 C 
ATOM     16  O   LIG d   1       4.430  82.792 115.488  0.00  0.00    -0.276 OA
ATOM     17  H   LIG d   1       1.754  84.472 115.431  0.00  0.00     0.149 HD
ENDBRANCH   6  13
BRANCH   5  18
ATOM     18  N   LIG d   1       4.793  85.637 117.171  0.00  0.00     0.381 N 
ATOM     19  H   LIG d   1       5.282  86.298 117.740  0.00  0.00    -0.090 HD
ATOM     20  H   LIG d   1       5.470  85.082 116.678  0.00  0.00    -0.090 HD
ATOM     21  H   LIG d   1       4.225  85.051 117.742  0.00  0.00    -0.090 HD
ENDBRANCH   5  18
BRANCH   3  22
ATOM     22  C   LIG d   1       4.319  89.632 114.571  0.00  0.00     0.382 C 
ATOM     23  O   LIG d   1       4.367  90.336 115.608  0.00  0.00    -0.241 OA
ATOM     24  O   LIG d   1       4.420  90.175 113.455  0.00  0.00    -0.241 OA
ENDBRANCH   3  22
TORSDOF 7
ENDMDL
MODEL 5
REMARK VINA RESULT:      -4.7      9.070     10.950
REMARK  7 active torsions:
REMARK  status: ('A' for Active; 'I' for Inactive)
REMARK    1  A    between atoms: C_2  and  C_3 
REMARK    2  A    between atoms: C_3  and  O_6 
REMARK    3  A    between atoms: C_3  and  C_4 
REMARK    4  A    between atoms: C_7  and  O_6 
REMARK    5  A    between atoms: C_9  and  C_10 
REMARK    6  A    between atoms: N_15  and  C_14 
REMARK    7  A    between atoms: N_20  and  C_19 
REMARK       I    between atoms: C_22  and  N_20 
ROOT
ATOM      1  C   LIG d   1       3.611  85.889 115.301  0.00  0.00     0.161 C 
ATOM      2  C   LIG d   1       3.994  87.236 115.413  0.00  0.00     0.016 C 
ATOM      3  C   LIG d   1       3.736  88.203 114.414  0.00  0.00     0.038 C 
ATOM      4  C   LIG d   1       2.939  87.919 113.295  0.00  0.00     0.028 C 
ATOM      5  C   LIG d   1       2.958  86.448 112.895  0.00  0.00    -0.047 C 
ATOM      6  C   LIG d   1       2.643  85.585 114.139  0.00  0.00     0.091 C 
ENDROOT
BRANCH   1   7
ATOM      7  O   LIG d   1       3.052  85.435 116.550  0.00  0.00    -0.368 OA
BRANCH   7   8
ATOM      8  C   LIG d   1       1.619  85.588 116.700  0.00  0.00     0.119 C 
BRANCH   8   9
ATOM      9  C   LIG d   1       1.378  86.712 117.726  0.00  0.00     0.028 C 
ATOM     10  C   LIG d   1       0.763  87.969 117.086  0.00  0.00     0.006 C 
ENDBRANCH   8   9
BRANCH   8  11
ATOM     11  C   LIG d   1       0.986  84.336 117.314  0.00  0.00     0.028 C 
ATOM     12  C   LIG d   1      -0.137  84.664 118.310  0.00  0.00     0.006 C 
ENDBRANCH   8  11
ENDBRANCH   7   8
ENDBRANCH   1   7
BRANCH   6  13
ATOM     13  N   LIG d   1       2.725  84.129 113.854  0.00  0.00    -0.311 N 
ATOM     14  C   LIG d   1       1.676  83.393 113.491  0.00  0.00     0.210 C 
ATOM     15  C   LIG d   1       1.976  81.908 113.265  0.00  0.00     0.109 C 
ATOM     16  O   LIG d   1       0.533  83.835 113.303  0.00  0.00    -0.276 OA
ATOM     17  H   LIG d   1       3.622  83.695 113.951  0.00  0.00     0.149 HD
ENDBRANCH   6  13
BRANCH   5  18
ATOM     18  N   LIG d   1       1.981  86.269 111.805  0.00  0.00     0.381 N 
ATOM     19  H   LIG d   1       1.673  85.318 111.778  0.00  0.00    -0.090 HD
ATOM     20  H   LIG d   1       2.427  86.481 110.930  0.00  0.00    -0.090 HD
ATOM     21  H   LIG d   1       1.202  86.874 111.943  0.00  0.00    -0.090 HD
ENDBRANCH   5  18
BRANCH   3  22
ATOM     22  C   LIG d   1       4.312  89.461 114.510  0.00  0.00     0.382 C 
ATOM     23  O   LIG d   1       4.428  90.177 113.487  0.00  0.00    -0.241 OA
ATOM     24  O   LIG d   1       4.758  89.870 115.599  0.00  0.00    -0.241 OA
ENDBRANCH   3  22
TORSDOF 7
ENDMDL
MODEL 6
REMARK VINA RESULT:      -4.6      9.232     11.228
REMARK  7 active torsions:
REMARK  status: ('A' for Active; 'I' for Inactive)
REMARK    1  A    between atoms: C_2  and  C_3 
REMARK    2  A    between atoms: C_3  and  O_6 
REMARK    3  A    between atoms: C_3  and  C_4 
REMARK    4  A    between atoms: C_7  and  O_6 
REMARK    5  A    between atoms: C_9  and  C_10 
REMARK    6  A    between atoms: N_15  and  C_14 
REMARK    7  A    between atoms: N_20  and  C_19 
REMARK       I    between atoms: C_22  and  N_20 
ROOT
ATOM      1  C   LIG d   1       2.792  86.368 114.437  0.00  0.00     0.161 C 
ATOM      2  C   LIG d   1       3.188  87.687 114.158  0.00  0.00     0.016 C 
ATOM      3  C   LIG d   1       4.193  88.368 114.882  0.00  0.00     0.038 C 
ATOM      4  C   LIG d   1       4.982  87.719 115.844  0.00  0.00     0.028 C 
ATOM      5  C   LIG d   1       4.279  86.540 116.508  0.00  0.00    -0.047 C 
ATOM      6  C   LIG d   1       3.717  85.608 115.411  0.00  0.00     0.091 C 
ENDROOT
BRANCH   1   7
ATOM      7  O   LIG d   1       2.644  85.631 113.208  0.00  0.00    -0.368 OA
BRANCH   7   8
ATOM      8  C   LIG d   1       1.285  85.325 112.808  0.00  0.00     0.119 C 
BRANCH   8   9
ATOM      9  C   LIG d   1       1.326  84.015 111.997  0.00  0.00     0.028 C 
ATOM     10  C   LIG d   1       2.563  83.161 112.322  0.00  0.00     0.006 C 
ENDBRANCH   8   9
BRANCH   8  11
ATOM     11  C   LIG d   1       0.736  86.381 111.845  0.00  0.00     0.028 C 
ATOM     12  C   LIG d   1      -0.800  86.410 111.806  0.00  0.00     0.006 C 
ENDBRANCH   8  11
ENDBRANCH   7   8
ENDBRANCH   1   7
BRANCH   6  13
ATOM     13  N   LIG d   1       2.941  84.472 115.974  0.00  0.00    -0.311 N 
ATOM     14  C   LIG d   1       3.359  83.208 115.935  0.00  0.00     0.210 C 
ATOM     15  C   LIG d   1       2.397  82.190 116.555  0.00  0.00     0.109 C 
ATOM     16  O   LIG d   1       4.449  82.837 115.474  0.00  0.00    -0.276 OA
ATOM     17  H   LIG d   1       2.058  84.687 116.394  0.00  0.00     0.149 HD
ENDBRANCH   6  13
BRANCH   5  18
ATOM     18  N   LIG d   1       5.259  85.873 117.386  0.00  0.00     0.381 N 
ATOM     19  H   LIG d   1       5.427  86.437 118.196  0.00  0.00    -0.090 HD
ATOM     20  H   LIG d   1       6.126  85.772 116.888  0.00  0.00    -0.090 HD
ATOM     21  H   LIG d   1       4.919  84.978 117.660  0.00  0.00    -0.090 HD
ENDBRANCH   5  18
BRANCH   3  22
ATOM     22  C   LIG d   1       4.392  89.724 114.673  0.00  0.00     0.382 C 
ATOM     23  O   LIG d   1       4.467  90.504 115.653  0.00  0.00    -0.241 OA
ATOM     24  O   LIG d   1       4.452  90.183 113.517  0.00  0.00    -0.241 OA
ENDBRANCH   3  22
TORSDOF 7
ENDMDL
MODEL 7
REMARK VINA RESULT:      -4.4     17.067     19.520
REMARK  7 active torsions:
REMARK  status: ('A' for Active; 'I' for Inactive)
REMARK    1  A    between atoms: C_2  and  C_3 
REMARK    2  A    between atoms: C_3  and  O_6 
REMARK    3  A    between atoms: C_3  and  C_4 
REMARK    4  A    between atoms: C_7  and  O_6 
REMARK    5  A    between atoms: C_9  and  C_10 
REMARK    6  A    between atoms: N_15  and  C_14 
REMARK    7  A    between atoms: N_20  and  C_19 
REMARK       I    between atoms: C_22  and  N_20 
ROOT
ATOM      1  C   LIG d   1     -16.611  64.105 114.285  0.00  0.00     0.161 C 
ATOM      2  C   LIG d   1     -17.650  64.667 113.526  0.00  0.00     0.016 C 
ATOM      3  C   LIG d   1     -19.012  64.602 113.902  0.00  0.00     0.038 C 
ATOM      4  C   LIG d   1     -19.413  64.097 115.147  0.00  0.00     0.028 C 
ATOM      5  C   LIG d   1     -18.449  63.064 115.722  0.00  0.00    -0.047 C 
ATOM      6  C   LIG d   1     -17.018  63.648 115.701  0.00  0.00     0.091 C 
ENDROOT
BRANCH   1   7
ATOM      7  O   LIG d   1     -15.503  65.025 114.354  0.00  0.00    -0.368 OA
BRANCH   7   8
ATOM      8  C   LIG d   1     -15.820  66.371 114.786  0.00  0.00     0.119 C 
BRANCH   8   9
ATOM      9  C   LIG d   1     -14.913  67.336 113.998  0.00  0.00     0.028 C 
ATOM     10  C   LIG d   1     -15.714  68.419 113.256  0.00  0.00     0.006 C 
ENDBRANCH   8   9
BRANCH   8  11
ATOM     11  C   LIG d   1     -15.455  66.584 116.259  0.00  0.00     0.028 C 
ATOM     12  C   LIG d   1     -16.610  67.179 117.079  0.00  0.00     0.006 C 
ENDBRANCH   8  11
ENDBRANCH   7   8
ENDBRANCH   1   7
BRANCH   6  13
ATOM     13  N   LIG d   1     -16.001  62.670 116.169  0.00  0.00    -0.311 N 
ATOM     14  C   LIG d   1     -15.535  62.637 117.416  0.00  0.00     0.210 C 
ATOM     15  C   LIG d   1     -14.476  61.562 117.682  0.00  0.00     0.109 C 
ATOM     16  O   LIG d   1     -15.923  63.373 118.336  0.00  0.00    -0.276 OA
ATOM     17  H   LIG d   1     -15.654  62.015 115.495  0.00  0.00     0.149 HD
ENDBRANCH   6  13
BRANCH   5  18
ATOM     18  N   LIG d   1     -18.916  62.726 117.080  0.00  0.00     0.381 N 
ATOM     19  H   LIG d   1     -18.769  61.752 117.256  0.00  0.00    -0.090 HD
ATOM     20  H   LIG d   1     -19.902  62.912 117.140  0.00  0.00    -0.090 HD
ATOM     21  H   LIG d   1     -18.426  63.271 117.754  0.00  0.00    -0.090 HD
ENDBRANCH   5  18
BRANCH   3  22
ATOM     22  C   LIG d   1     -19.991  65.008 113.009  0.00  0.00     0.382 C 
ATOM     23  O   LIG d   1     -19.927  64.660 111.805  0.00  0.00    -0.241 OA
ATOM     24  O   LIG d   1     -20.915  65.756 113.382  0.00  0.00    -0.241 OA
ENDBRANCH   3  22
TORSDOF 7
ENDMDL
MODEL 8
REMARK VINA RESULT:      -4.4      9.293     11.288
REMARK  7 active torsions:
REMARK  status: ('A' for Active; 'I' for Inactive)
REMARK    1  A    between atoms: C_2  and  C_3 
REMARK    2  A    between atoms: C_3  and  O_6 
REMARK    3  A    between atoms: C_3  and  C_4 
REMARK    4  A    between atoms: C_7  and  O_6 
REMARK    5  A    between atoms: C_9  and  C_10 
REMARK    6  A    between atoms: N_15  and  C_14 
REMARK    7  A    between atoms: N_20  and  C_19 
REMARK       I    between atoms: C_22  and  N_20 
ROOT
ATOM      1  C   LIG d   1       3.703  85.972 115.274  0.00  0.00     0.161 C 
ATOM      2  C   LIG d   1       4.036  87.336 115.306  0.00  0.00     0.016 C 
ATOM      3  C   LIG d   1       3.718  88.241 114.267  0.00  0.00     0.038 C 
ATOM      4  C   LIG d   1       2.906  87.870 113.185  0.00  0.00     0.028 C 
ATOM      5  C   LIG d   1       2.972  86.382 112.860  0.00  0.00    -0.047 C 
ATOM      6  C   LIG d   1       2.720  85.574 114.153  0.00  0.00     0.091 C 
ENDROOT
BRANCH   1   7
ATOM      7  O   LIG d   1       3.191  85.563 116.558  0.00  0.00    -0.368 OA
BRANCH   7   8
ATOM      8  C   LIG d   1       4.027  84.656 117.317  0.00  0.00     0.119 C 
BRANCH   8   9
ATOM      9  C   LIG d   1       5.344  84.478 116.538  0.00  0.00     0.028 C 
ATOM     10  C   LIG d   1       6.551  85.073 117.282  0.00  0.00     0.006 C 
ENDBRANCH   8   9
BRANCH   8  11
ATOM     11  C   LIG d   1       3.407  83.257 117.391  0.00  0.00     0.028 C 
ATOM     12  C   LIG d   1       4.277  82.184 116.717  0.00  0.00     0.006 C 
ENDBRANCH   8  11
ENDBRANCH   7   8
ENDBRANCH   1   7
BRANCH   6  13
ATOM     13  N   LIG d   1       2.850  84.108 113.940  0.00  0.00    -0.311 N 
ATOM     14  C   LIG d   1       1.823  83.317 113.637  0.00  0.00     0.210 C 
ATOM     15  C   LIG d   1       2.173  81.834 113.480  0.00  0.00     0.109 C 
ATOM     16  O   LIG d   1       0.660  83.707 113.452  0.00  0.00    -0.276 OA
ATOM     17  H   LIG d   1       3.765  83.713 114.040  0.00  0.00     0.149 HD
ENDBRANCH   6  13
BRANCH   5  18
ATOM     18  N   LIG d   1       1.976  86.111 111.805  0.00  0.00     0.381 N 
ATOM     19  H   LIG d   1       1.359  85.382 112.101  0.00  0.00    -0.090 HD
ATOM     20  H   LIG d   1       2.455  85.803 110.977  0.00  0.00    -0.090 HD
ATOM     21  H   LIG d   1       1.455  86.937 111.608  0.00  0.00    -0.090 HD
ENDBRANCH   5  18
BRANCH   3  22
ATOM     22  C   LIG d   1       4.247  89.522 114.285  0.00  0.00     0.382 C 
ATOM     23  O   LIG d   1       4.605  90.067 113.213  0.00  0.00    -0.241 OA
ATOM     24  O   LIG d   1       4.413  90.122 115.363  0.00  0.00    -0.241 OA
ENDBRANCH   3  22
TORSDOF 7
ENDMDL
MODEL 9
REMARK VINA RESULT:      -4.3     16.643     19.454
REMARK  7 active torsions:
REMARK  status: ('A' for Active; 'I' for Inactive)
REMARK    1  A    between atoms: C_2  and  C_3 
REMARK    2  A    between atoms: C_3  and  O_6 
REMARK    3  A    between atoms: C_3  and  C_4 
REMARK    4  A    between atoms: C_7  and  O_6 
REMARK    5  A    between atoms: C_9  and  C_10 
REMARK    6  A    between atoms: N_15  and  C_14 
REMARK    7  A    between atoms: N_20  and  C_19 
REMARK       I    between atoms: C_22  and  N_20 
ROOT
ATOM      1  C   LIG d   1     -16.642  64.244 115.415  0.00  0.00     0.161 C 
ATOM      2  C   LIG d   1     -16.172  63.039 115.965  0.00  0.00     0.016 C 
ATOM      3  C   LIG d   1     -15.345  62.977 117.110  0.00  0.00     0.038 C 
ATOM      4  C   LIG d   1     -15.054  64.114 117.877  0.00  0.00     0.028 C 
ATOM      5  C   LIG d   1     -15.090  65.411 117.076  0.00  0.00    -0.047 C 
ATOM      6  C   LIG d   1     -16.427  65.487 116.304  0.00  0.00     0.091 C 
ENDROOT
BRANCH   1   7
ATOM      7  O   LIG d   1     -18.035  64.111 115.068  0.00  0.00    -0.368 OA
BRANCH   7   8
ATOM      8  C   LIG d   1     -18.319  63.799 113.682  0.00  0.00     0.119 C 
BRANCH   8   9
ATOM      9  C   LIG d   1     -19.115  64.981 113.095  0.00  0.00     0.028 C 
ATOM     10  C   LIG d   1     -19.997  64.562 111.907  0.00  0.00     0.006 C 
ENDBRANCH   8   9
BRANCH   8  11
ATOM     11  C   LIG d   1     -19.247  62.586 113.563  0.00  0.00     0.028 C 
ATOM     12  C   LIG d   1     -18.510  61.252 113.759  0.00  0.00     0.006 C 
ENDBRANCH   8  11
ENDBRANCH   7   8
ENDBRANCH   1   7
BRANCH   6  13
ATOM     13  N   LIG d   1     -16.509  66.685 115.428  0.00  0.00    -0.311 N 
ATOM     14  C   LIG d   1     -15.612  66.965 114.483  0.00  0.00     0.210 C 
ATOM     15  C   LIG d   1     -15.874  68.260 113.707  0.00  0.00     0.109 C 
ATOM     16  O   LIG d   1     -14.644  66.247 114.192  0.00  0.00    -0.276 OA
ATOM     17  H   LIG d   1     -17.280  67.305 115.574  0.00  0.00     0.149 HD
ENDBRANCH   6  13
BRANCH   5  18
ATOM     18  N   LIG d   1     -14.906  66.526 118.024  0.00  0.00     0.381 N 
ATOM     19  H   LIG d   1     -15.740  67.077 118.065  0.00  0.00    -0.090 HD
ATOM     20  H   LIG d   1     -14.157  67.111 117.696  0.00  0.00    -0.090 HD
ATOM     21  H   LIG d   1     -14.688  66.172 118.929  0.00  0.00    -0.090 HD
ENDBRANCH   5  18
BRANCH   3  22
ATOM     22  C   LIG d   1     -14.766  61.771 117.475  0.00  0.00     0.382 C 
ATOM     23  O   LIG d   1     -15.458  60.724 117.494  0.00  0.00    -0.241 OA
ATOM     24  O   LIG d   1     -13.572  61.723 117.827  0.00  0.00    -0.241 OA
ENDBRANCH   3  22
TORSDOF 7
ENDMDL
