MODEL 1
REMARK VINA RESULT:      -4.6      0.000      0.000
REMARK  7 active torsions:
REMARK  status: ('A' for Active; 'I' for Inactive)
REMARK    1  A    between atoms: C_2  and  C_3 
REMARK    2  A    between atoms: C_3  and  O_6 
REMARK    3  A    between atoms: C_3  and  C_4 
REMARK    4  A    between atoms: C_7  and  O_6 
REMARK    5  A    between atoms: C_9  and  C_10 
REMARK    6  A    between atoms: N_15  and  C_14 
REMARK    7  A    between atoms: N_20  and  C_19 
REMARK       I    between atoms: C_22  and  N_20 
ROOT
ATOM      1  C   LIG d   1       2.347  87.083 115.416  0.00  0.00     0.161 C 
ATOM      2  C   LIG d   1       2.979  88.301 115.116  0.00  0.00     0.016 C 
ATOM      3  C   LIG d   1       4.361  88.530 115.311  0.00  0.00     0.038 C 
ATOM      4  C   LIG d   1       5.238  87.500 115.682  0.00  0.00     0.028 C 
ATOM      5  C   LIG d   1       4.564  86.389 116.480  0.00  0.00    -0.047 C 
ATOM      6  C   LIG d   1       3.307  85.913 115.716  0.00  0.00     0.091 C 
ENDROOT
BRANCH   1   7
ATOM      7  O   LIG d   1       1.441  86.728 114.353  0.00  0.00    -0.368 OA
BRANCH   7   8
ATOM      8  C   LIG d   1       1.939  85.774 113.383  0.00  0.00     0.119 C 
BRANCH   8   9
ATOM      9  C   LIG d   1       2.317  86.561 112.113  0.00  0.00     0.028 C 
ATOM     10  C   LIG d   1       3.836  86.594 111.873  0.00  0.00     0.006 C 
ENDBRANCH   8   9
BRANCH   8  11
ATOM     11  C   LIG d   1       0.842  84.800 112.945  0.00  0.00     0.028 C 
ATOM     12  C   LIG d   1       1.344  83.352 112.827  0.00  0.00     0.006 C 
ENDBRANCH   8  11
ENDBRANCH   7   8
ENDBRANCH   1   7
BRANCH   6  13
ATOM     13  N   LIG d   1       2.542  84.885 116.468  0.00  0.00    -0.311 N 
ATOM     14  C   LIG d   1       2.714  83.575 116.300  0.00  0.00     0.210 C 
ATOM     15  C   LIG d   1       1.809  82.688 117.162  0.00  0.00     0.109 C 
ATOM     16  O   LIG d   1       3.552  83.062 115.544  0.00  0.00    -0.276 OA
ATOM     17  H   LIG d   1       1.863  85.212 117.126  0.00  0.00     0.149 HD
ENDBRANCH   6  13
BRANCH   5  18
ATOM     18  N   LIG d   1       5.559  85.318 116.680  0.00  0.00     0.381 N 
ATOM     19  H   LIG d   1       6.465  85.641 116.403  0.00  0.00    -0.090 HD
ATOM     20  H   LIG d   1       5.313  84.534 116.102  0.00  0.00    -0.090 HD
ATOM     21  H   LIG d   1       5.575  85.042 117.637  0.00  0.00    -0.090 HD
ENDBRANCH   5  18
BRANCH   3  22
ATOM     22  C   LIG d   1       4.871  89.812 115.174  0.00  0.00     0.382 C 
ATOM     23  O   LIG d   1       5.557  90.109 114.167  0.00  0.00    -0.241 OA
ATOM     24  O   LIG d   1       4.691  90.662 116.067  0.00  0.00    -0.241 OA
ENDBRANCH   3  22
TORSDOF 7
ENDMDL
MODEL 2
REMARK VINA RESULT:      -4.5     10.657     12.720
REMARK  7 active torsions:
REMARK  status: ('A' for Active; 'I' for Inactive)
REMARK    1  A    between atoms: C_2  and  C_3 
REMARK    2  A    between atoms: C_3  and  O_6 
REMARK    3  A    between atoms: C_3  and  C_4 
REMARK    4  A    between atoms: C_7  and  O_6 
REMARK    5  A    between atoms: C_9  and  C_10 
REMARK    6  A    between atoms: N_15  and  C_14 
REMARK    7  A    between atoms: N_20  and  C_19 
REMARK       I    between atoms: C_22  and  N_20 
ROOT
ATOM      1  C   LIG d   1      10.706  78.079 115.024  0.00  0.00     0.161 C 
ATOM      2  C   LIG d   1       9.371  78.041 115.458  0.00  0.00     0.016 C 
ATOM      3  C   LIG d   1       8.656  76.840 115.670  0.00  0.00     0.038 C 
ATOM      4  C   LIG d   1       9.279  75.585 115.608  0.00  0.00     0.028 C 
ATOM      5  C   LIG d   1      10.491  75.556 114.682  0.00  0.00    -0.047 C 
ATOM      6  C   LIG d   1      11.436  76.720 115.058  0.00  0.00     0.091 C 
ENDROOT
BRANCH   1   7
ATOM      7  O   LIG d   1      11.439  79.061 115.784  0.00  0.00    -0.368 OA
BRANCH   7   8
ATOM      8  C   LIG d   1      11.813  80.267 115.075  0.00  0.00     0.119 C 
BRANCH   8   9
ATOM      9  C   LIG d   1      11.312  80.126 113.624  0.00  0.00     0.028 C 
ATOM     10  C   LIG d   1      12.462  80.121 112.603  0.00  0.00     0.006 C 
ENDBRANCH   8   9
BRANCH   8  11
ATOM     11  C   LIG d   1      13.335  80.400 114.966  0.00  0.00     0.028 C 
ATOM     12  C   LIG d   1      14.037  80.340 116.332  0.00  0.00     0.006 C 
ENDBRANCH   8  11
ENDBRANCH   7   8
ENDBRANCH   1   7
BRANCH   6  13
ATOM     13  N   LIG d   1      12.607  76.816 114.147  0.00  0.00    -0.311 N 
ATOM     14  C   LIG d   1      13.866  76.879 114.575  0.00  0.00     0.210 C 
ATOM     15  C   LIG d   1      14.921  76.994 113.470  0.00  0.00     0.109 C 
ATOM     16  O   LIG d   1      14.212  76.818 115.765  0.00  0.00    -0.276 OA
ATOM     17  H   LIG d   1      12.419  76.840 113.164  0.00  0.00     0.149 HD
ENDBRANCH   6  13
BRANCH   5  18
ATOM     18  N   LIG d   1      11.124  74.231 114.818  0.00  0.00     0.381 N 
ATOM     19  H   LIG d   1      11.204  73.991 115.786  0.00  0.00    -0.090 HD
ATOM     20  H   LIG d   1      12.049  74.270 114.426  0.00  0.00    -0.090 HD
ATOM     21  H   LIG d   1      10.583  73.544 114.341  0.00  0.00    -0.090 HD
ENDBRANCH   5  18
BRANCH   3  22
ATOM     22  C   LIG d   1       7.291  76.886 115.911  0.00  0.00     0.382 C 
ATOM     23  O   LIG d   1       6.808  76.289 116.903  0.00  0.00    -0.241 OA
ATOM     24  O   LIG d   1       6.530  77.480 115.123  0.00  0.00    -0.241 OA
ENDBRANCH   3  22
TORSDOF 7
ENDMDL
MODEL 3
REMARK VINA RESULT:      -4.3      2.028      2.645
REMARK  7 active torsions:
REMARK  status: ('A' for Active; 'I' for Inactive)
REMARK    1  A    between atoms: C_2  and  C_3 
REMARK    2  A    between atoms: C_3  and  O_6 
REMARK    3  A    between atoms: C_3  and  C_4 
REMARK    4  A    between atoms: C_7  and  O_6 
REMARK    5  A    between atoms: C_9  and  C_10 
REMARK    6  A    between atoms: N_15  and  C_14 
REMARK    7  A    between atoms: N_20  and  C_19 
REMARK       I    between atoms: C_22  and  N_20 
ROOT
ATOM      1  C   LIG d   1       1.644  85.031 114.568  0.00  0.00     0.161 C 
ATOM      2  C   LIG d   1       2.147  85.917 113.601  0.00  0.00     0.016 C 
ATOM      3  C   LIG d   1       3.393  86.575 113.721  0.00  0.00     0.038 C 
ATOM      4  C   LIG d   1       4.294  86.273 114.752  0.00  0.00     0.028 C 
ATOM      5  C   LIG d   1       3.617  85.761 116.019  0.00  0.00    -0.047 C 
ATOM      6  C   LIG d   1       2.663  84.603 115.645  0.00  0.00     0.091 C 
ENDROOT
BRANCH   1   7
ATOM      7  O   LIG d   1       1.082  83.871 113.922  0.00  0.00    -0.368 OA
BRANCH   7   8
ATOM      8  C   LIG d   1       0.703  84.036 112.534  0.00  0.00     0.119 C 
BRANCH   8   9
ATOM      9  C   LIG d   1      -0.745  84.562 112.509  0.00  0.00     0.028 C 
ATOM     10  C   LIG d   1      -0.859  85.934 111.822  0.00  0.00     0.006 C 
ENDBRANCH   8   9
BRANCH   8  11
ATOM     11  C   LIG d   1       0.658  82.690 111.805  0.00  0.00     0.028 C 
ATOM     12  C   LIG d   1       1.465  81.596 112.523  0.00  0.00     0.006 C 
ENDBRANCH   8  11
ENDBRANCH   7   8
ENDBRANCH   1   7
BRANCH   6  13
ATOM     13  N   LIG d   1       1.896  84.101 116.815  0.00  0.00    -0.311 N 
ATOM     14  C   LIG d   1       1.890  82.824 117.193  0.00  0.00     0.210 C 
ATOM     15  C   LIG d   1       1.017  82.515 118.414  0.00  0.00     0.109 C 
ATOM     16  O   LIG d   1       2.550  81.923 116.654  0.00  0.00    -0.276 OA
ATOM     17  H   LIG d   1       1.358  84.770 117.329  0.00  0.00     0.149 HD
ENDBRANCH   6  13
BRANCH   5  18
ATOM     18  N   LIG d   1       4.678  85.355 116.960  0.00  0.00     0.381 N 
ATOM     19  H   LIG d   1       4.278  85.152 117.854  0.00  0.00    -0.090 HD
ATOM     20  H   LIG d   1       5.324  86.117 117.069  0.00  0.00    -0.090 HD
ATOM     21  H   LIG d   1       5.155  84.553 116.610  0.00  0.00    -0.090 HD
ENDBRANCH   5  18
BRANCH   3  22
ATOM     22  C   LIG d   1       3.730  87.577 112.824  0.00  0.00     0.382 C 
ATOM     23  O   LIG d   1       4.934  87.780 112.534  0.00  0.00    -0.241 OA
ATOM     24  O   LIG d   1       2.849  88.311 112.336  0.00  0.00    -0.241 OA
ENDBRANCH   3  22
TORSDOF 7
ENDMDL
MODEL 4
REMARK VINA RESULT:      -4.1     12.067     14.357
REMARK  7 active torsions:
REMARK  status: ('A' for Active; 'I' for Inactive)
REMARK    1  A    between atoms: C_2  and  C_3 
REMARK    2  A    between atoms: C_3  and  O_6 
REMARK    3  A    between atoms: C_3  and  C_4 
REMARK    4  A    between atoms: C_7  and  O_6 
REMARK    5  A    between atoms: C_9  and  C_10 
REMARK    6  A    between atoms: N_15  and  C_14 
REMARK    7  A    between atoms: N_20  and  C_19 
REMARK       I    between atoms: C_22  and  N_20 
ROOT
ATOM      1  C   LIG d   1      11.002  75.124 115.430  0.00  0.00     0.161 C 
ATOM      2  C   LIG d   1       9.621  75.349 115.560  0.00  0.00     0.016 C 
ATOM      3  C   LIG d   1       9.024  76.623 115.420  0.00  0.00     0.038 C 
ATOM      4  C   LIG d   1       9.753  77.740 114.988  0.00  0.00     0.028 C 
ATOM      5  C   LIG d   1      11.237  77.667 115.335  0.00  0.00    -0.047 C 
ATOM      6  C   LIG d   1      11.799  76.311 114.849  0.00  0.00     0.091 C 
ENDROOT
BRANCH   1   7
ATOM      7  O   LIG d   1      11.231  73.936 114.646  0.00  0.00    -0.368 OA
BRANCH   7   8
ATOM      8  C   LIG d   1      11.281  72.688 115.381  0.00  0.00     0.119 C 
BRANCH   8   9
ATOM      9  C   LIG d   1      12.445  72.787 116.385  0.00  0.00     0.028 C 
ATOM     10  C   LIG d   1      13.816  72.604 115.713  0.00  0.00     0.006 C 
ENDBRANCH   8   9
BRANCH   8  11
ATOM     11  C   LIG d   1      11.636  71.515 114.463  0.00  0.00     0.028 C 
ATOM     12  C   LIG d   1      11.048  70.180 114.948  0.00  0.00     0.006 C 
ENDBRANCH   8  11
ENDBRANCH   7   8
ENDBRANCH   1   7
BRANCH   6  13
ATOM     13  N   LIG d   1      13.224  76.122 115.224  0.00  0.00    -0.311 N 
ATOM     14  C   LIG d   1      14.242  76.486 114.445  0.00  0.00     0.210 C 
ATOM     15  C   LIG d   1      15.632  76.182 115.013  0.00  0.00     0.109 C 
ATOM     16  O   LIG d   1      14.125  77.061 113.353  0.00  0.00    -0.276 OA
ATOM     17  H   LIG d   1      13.410  75.690 116.108  0.00  0.00     0.149 HD
ENDBRANCH   6  13
BRANCH   5  18
ATOM     18  N   LIG d   1      11.899  78.826 114.708  0.00  0.00     0.381 N 
ATOM     19  H   LIG d   1      12.874  78.635 114.590  0.00  0.00    -0.090 HD
ATOM     20  H   LIG d   1      11.804  79.622 115.314  0.00  0.00    -0.090 HD
ATOM     21  H   LIG d   1      11.482  79.020 113.824  0.00  0.00    -0.090 HD
ENDBRANCH   5  18
BRANCH   3  22
ATOM     22  C   LIG d   1       7.689  76.796 115.752  0.00  0.00     0.382 C 
ATOM     23  O   LIG d   1       7.230  76.275 116.798  0.00  0.00    -0.241 OA
ATOM     24  O   LIG d   1       6.927  77.429 114.997  0.00  0.00    -0.241 OA
ENDBRANCH   3  22
TORSDOF 7
ENDMDL
MODEL 5
REMARK VINA RESULT:      -4.0     27.783     30.615
REMARK  7 active torsions:
REMARK  status: ('A' for Active; 'I' for Inactive)
REMARK    1  A    between atoms: C_2  and  C_3 
REMARK    2  A    between atoms: C_3  and  O_6 
REMARK    3  A    between atoms: C_3  and  C_4 
REMARK    4  A    between atoms: C_7  and  O_6 
REMARK    5  A    between atoms: C_9  and  C_10 
REMARK    6  A    between atoms: N_15  and  C_14 
REMARK    7  A    between atoms: N_20  and  C_19 
REMARK       I    between atoms: C_22  and  N_20 
ROOT
ATOM      1  C   LIG d   1     -17.605  64.639 115.528  0.00  0.00     0.161 C 
ATOM      2  C   LIG d   1     -16.489  64.719 116.378  0.00  0.00     0.016 C 
ATOM      3  C   LIG d   1     -16.283  65.777 117.294  0.00  0.00     0.038 C 
ATOM      4  C   LIG d   1     -17.261  66.754 117.530  0.00  0.00     0.028 C 
ATOM      5  C   LIG d   1     -18.178  66.995 116.335  0.00  0.00    -0.047 C 
ATOM      6  C   LIG d   1     -18.736  65.637 115.850  0.00  0.00     0.091 C 
ENDROOT
BRANCH   1   7
ATOM      7  O   LIG d   1     -18.114  63.291 115.517  0.00  0.00    -0.368 OA
BRANCH   7   8
ATOM      8  C   LIG d   1     -17.693  62.460 114.407  0.00  0.00     0.119 C 
BRANCH   8   9
ATOM      9  C   LIG d   1     -18.929  62.208 113.522  0.00  0.00     0.028 C 
ATOM     10  C   LIG d   1     -20.238  62.203 114.330  0.00  0.00     0.006 C 
ENDBRANCH   8   9
BRANCH   8  11
ATOM     11  C   LIG d   1     -17.248  61.075 114.886  0.00  0.00     0.028 C 
ATOM     12  C   LIG d   1     -17.230  60.951 116.418  0.00  0.00     0.006 C 
ENDBRANCH   8  11
ENDBRANCH   7   8
ENDBRANCH   1   7
BRANCH   6  13
ATOM     13  N   LIG d   1     -19.577  65.773 114.632  0.00  0.00    -0.311 N 
ATOM     14  C   LIG d   1     -20.905  65.860 114.664  0.00  0.00     0.210 C 
ATOM     15  C   LIG d   1     -21.579  65.974 113.293  0.00  0.00     0.109 C 
ATOM     16  O   LIG d   1     -21.588  65.887 115.699  0.00  0.00    -0.276 OA
ATOM     17  H   LIG d   1     -19.102  65.791 113.750  0.00  0.00     0.149 HD
ENDBRANCH   6  13
BRANCH   5  18
ATOM     18  N   LIG d   1     -19.232  67.933 116.764  0.00  0.00     0.381 N 
ATOM     19  H   LIG d   1     -18.852  68.855 116.845  0.00  0.00    -0.090 HD
ATOM     20  H   LIG d   1     -19.570  67.652 117.667  0.00  0.00    -0.090 HD
ATOM     21  H   LIG d   1     -19.979  67.931 116.106  0.00  0.00    -0.090 HD
ENDBRANCH   5  18
BRANCH   3  22
ATOM     22  C   LIG d   1     -15.070  65.886 117.956  0.00  0.00     0.382 C 
ATOM     23  O   LIG d   1     -14.431  66.966 117.922  0.00  0.00    -0.241 OA
ATOM     24  O   LIG d   1     -14.584  64.905 118.550  0.00  0.00    -0.241 OA
ENDBRANCH   3  22
TORSDOF 7
ENDMDL
MODEL 6
REMARK VINA RESULT:      -4.0      2.555      4.050
REMARK  7 active torsions:
REMARK  status: ('A' for Active; 'I' for Inactive)
REMARK    1  A    between atoms: C_2  and  C_3 
REMARK    2  A    between atoms: C_3  and  O_6 
REMARK    3  A    between atoms: C_3  and  C_4 
REMARK    4  A    between atoms: C_7  and  O_6 
REMARK    5  A    between atoms: C_9  and  C_10 
REMARK    6  A    between atoms: N_15  and  C_14 
REMARK    7  A    between atoms: N_20  and  C_19 
REMARK       I    between atoms: C_22  and  N_20 
ROOT
ATOM      1  C   LIG d   1       3.715  88.323 117.156  0.00  0.00     0.161 C 
ATOM      2  C   LIG d   1       4.345  89.532 117.496  0.00  0.00     0.016 C 
ATOM      3  C   LIG d   1       5.021  90.347 116.559  0.00  0.00     0.038 C 
ATOM      4  C   LIG d   1       4.983  90.082 115.182  0.00  0.00     0.028 C 
ATOM      5  C   LIG d   1       4.788  88.605 114.855  0.00  0.00    -0.047 C 
ATOM      6  C   LIG d   1       3.568  88.074 115.641  0.00  0.00     0.091 C 
ENDROOT
BRANCH   1   7
ATOM      7  O   LIG d   1       2.430  88.243 117.804  0.00  0.00    -0.368 OA
BRANCH   7   8
ATOM      8  C   LIG d   1       1.287  88.629 117.002  0.00  0.00     0.119 C 
BRANCH   8   9
ATOM      9  C   LIG d   1       0.703  89.915 117.618  0.00  0.00     0.028 C 
ATOM     10  C   LIG d   1       1.131  91.179 116.853  0.00  0.00     0.006 C 
ENDBRANCH   8   9
BRANCH   8  11
ATOM     11  C   LIG d   1       0.165  87.590 117.095  0.00  0.00     0.028 C 
ATOM     12  C   LIG d   1       0.534  86.393 117.985  0.00  0.00     0.006 C 
ENDBRANCH   8  11
ENDBRANCH   7   8
ENDBRANCH   1   7
BRANCH   6  13
ATOM     13  N   LIG d   1       3.357  86.616 115.443  0.00  0.00    -0.311 N 
ATOM     14  C   LIG d   1       2.515  86.112 114.542  0.00  0.00     0.210 C 
ATOM     15  C   LIG d   1       2.434  84.583 114.517  0.00  0.00     0.109 C 
ATOM     16  O   LIG d   1       1.852  86.786 113.740  0.00  0.00    -0.276 OA
ATOM     17  H   LIG d   1       3.879  85.996 116.031  0.00  0.00     0.149 HD
ENDBRANCH   6  13
BRANCH   5  18
ATOM     18  N   LIG d   1       4.629  88.490 113.393  0.00  0.00     0.381 N 
ATOM     19  H   LIG d   1       5.315  87.861 113.026  0.00  0.00    -0.090 HD
ATOM     20  H   LIG d   1       4.775  89.393 112.978  0.00  0.00    -0.090 HD
ATOM     21  H   LIG d   1       3.715  88.160 113.174  0.00  0.00    -0.090 HD
ENDBRANCH   5  18
BRANCH   3  22
ATOM     22  C   LIG d   1       5.779  91.420 117.003  0.00  0.00     0.382 C 
ATOM     23  O   LIG d   1       6.999  91.264 117.254  0.00  0.00    -0.241 OA
ATOM     24  O   LIG d   1       5.249  92.530 117.197  0.00  0.00    -0.241 OA
ENDBRANCH   3  22
TORSDOF 7
ENDMDL
MODEL 7
REMARK VINA RESULT:      -4.0     28.130     30.820
REMARK  7 active torsions:
REMARK  status: ('A' for Active; 'I' for Inactive)
REMARK    1  A    between atoms: C_2  and  C_3 
REMARK    2  A    between atoms: C_3  and  O_6 
REMARK    3  A    between atoms: C_3  and  C_4 
REMARK    4  A    between atoms: C_7  and  O_6 
REMARK    5  A    between atoms: C_9  and  C_10 
REMARK    6  A    between atoms: N_15  and  C_14 
REMARK    7  A    between atoms: N_20  and  C_19 
REMARK       I    between atoms: C_22  and  N_20 
ROOT
ATOM      1  C   LIG d   1     -17.551  64.919 114.487  0.00  0.00     0.161 C 
ATOM      2  C   LIG d   1     -16.459  64.941 115.371  0.00  0.00     0.016 C 
ATOM      3  C   LIG d   1     -16.500  65.555 116.643  0.00  0.00     0.038 C 
ATOM      4  C   LIG d   1     -17.692  66.062 117.184  0.00  0.00     0.028 C 
ATOM      5  C   LIG d   1     -18.694  66.512 116.127  0.00  0.00    -0.047 C 
ATOM      6  C   LIG d   1     -18.892  65.369 115.105  0.00  0.00     0.091 C 
ENDROOT
BRANCH   1   7
ATOM      7  O   LIG d   1     -17.683  63.607 113.906  0.00  0.00    -0.368 OA
BRANCH   7   8
ATOM      8  C   LIG d   1     -18.319  62.603 114.735  0.00  0.00     0.119 C 
BRANCH   8   9
ATOM      9  C   LIG d   1     -17.297  61.471 114.957  0.00  0.00     0.028 C 
ATOM     10  C   LIG d   1     -16.868  61.348 116.429  0.00  0.00     0.006 C 
ENDBRANCH   8   9
BRANCH   8  11
ATOM     11  C   LIG d   1     -19.499  61.947 114.010  0.00  0.00     0.028 C 
ATOM     12  C   LIG d   1     -19.623  62.397 112.546  0.00  0.00     0.006 C 
ENDBRANCH   8  11
ENDBRANCH   7   8
ENDBRANCH   1   7
BRANCH   6  13
ATOM     13  N   LIG d   1     -19.794  65.756 113.989  0.00  0.00    -0.311 N 
ATOM     14  C   LIG d   1     -21.097  65.484 113.971  0.00  0.00     0.210 C 
ATOM     15  C   LIG d   1     -21.839  65.955 112.716  0.00  0.00     0.109 C 
ATOM     16  O   LIG d   1     -21.716  64.925 114.890  0.00  0.00    -0.276 OA
ATOM     17  H   LIG d   1     -19.381  66.241 113.216  0.00  0.00     0.149 HD
ENDBRANCH   6  13
BRANCH   5  18
ATOM     18  N   LIG d   1     -19.939  66.887 116.823  0.00  0.00     0.381 N 
ATOM     19  H   LIG d   1     -20.458  67.534 116.264  0.00  0.00    -0.090 HD
ATOM     20  H   LIG d   1     -19.703  67.337 117.690  0.00  0.00    -0.090 HD
ATOM     21  H   LIG d   1     -20.488  66.075 117.001  0.00  0.00    -0.090 HD
ENDBRANCH   5  18
BRANCH   3  22
ATOM     22  C   LIG d   1     -15.331  65.703 117.373  0.00  0.00     0.382 C 
ATOM     23  O   LIG d   1     -14.931  64.771 118.112  0.00  0.00    -0.241 OA
ATOM     24  O   LIG d   1     -14.694  66.773 117.336  0.00  0.00    -0.241 OA
ENDBRANCH   3  22
TORSDOF 7
ENDMDL
MODEL 8
REMARK VINA RESULT:      -4.0      2.620      5.539
REMARK  7 active torsions:
REMARK  status: ('A' for Active; 'I' for Inactive)
REMARK    1  A    between atoms: C_2  and  C_3 
REMARK    2  A    between atoms: C_3  and  O_6 
REMARK    3  A    between atoms: C_3  and  C_4 
REMARK    4  A    between atoms: C_7  and  O_6 
REMARK    5  A    between atoms: C_9  and  C_10 
REMARK    6  A    between atoms: N_15  and  C_14 
REMARK    7  A    between atoms: N_20  and  C_19 
REMARK       I    between atoms: C_22  and  N_20 
ROOT
ATOM      1  C   LIG d   1       3.465  86.881 115.703  0.00  0.00     0.161 C 
ATOM      2  C   LIG d   1       3.474  85.801 114.805  0.00  0.00     0.016 C 
ATOM      3  C   LIG d   1       3.984  85.888 113.489  0.00  0.00     0.038 C 
ATOM      4  C   LIG d   1       4.661  87.027 113.030  0.00  0.00     0.028 C 
ATOM      5  C   LIG d   1       4.228  88.312 113.729  0.00  0.00    -0.047 C 
ATOM      6  C   LIG d   1       4.300  88.099 115.258  0.00  0.00     0.091 C 
ENDROOT
BRANCH   1   7
ATOM      7  O   LIG d   1       3.886  86.435 117.008  0.00  0.00    -0.368 OA
BRANCH   7   8
ATOM      8  C   LIG d   1       2.864  86.414 118.035  0.00  0.00     0.119 C 
BRANCH   8   9
ATOM      9  C   LIG d   1       2.708  84.954 118.503  0.00  0.00     0.028 C 
ATOM     10  C   LIG d   1       1.504  84.254 117.849  0.00  0.00     0.006 C 
ENDBRANCH   8   9
BRANCH   8  11
ATOM     11  C   LIG d   1       1.496  86.807 117.468  0.00  0.00     0.028 C 
ATOM     12  C   LIG d   1       0.940  88.096 118.093  0.00  0.00     0.006 C 
ENDBRANCH   8  11
ENDBRANCH   7   8
ENDBRANCH   1   7
BRANCH   6  13
ATOM     13  N   LIG d   1       3.813  89.280 116.018  0.00  0.00    -0.311 N 
ATOM     14  C   LIG d   1       4.601  90.284 116.399  0.00  0.00     0.210 C 
ATOM     15  C   LIG d   1       3.901  91.393 117.189  0.00  0.00     0.109 C 
ATOM     16  O   LIG d   1       5.808  90.376 116.129  0.00  0.00    -0.276 OA
ATOM     17  H   LIG d   1       2.839  89.302 116.252  0.00  0.00     0.149 HD
ENDBRANCH   6  13
BRANCH   5  18
ATOM     18  N   LIG d   1       5.108  89.396 113.253  0.00  0.00     0.381 N 
ATOM     19  H   LIG d   1       4.832  89.677 112.333  0.00  0.00    -0.090 HD
ATOM     20  H   LIG d   1       6.051  89.053 113.209  0.00  0.00    -0.090 HD
ATOM     21  H   LIG d   1       5.058  90.173 113.875  0.00  0.00    -0.090 HD
ENDBRANCH   5  18
BRANCH   3  22
ATOM     22  C   LIG d   1       3.782  84.840 112.603  0.00  0.00     0.382 C 
ATOM     23  O   LIG d   1       2.813  84.869 111.808  0.00  0.00    -0.241 OA
ATOM     24  O   LIG d   1       4.532  83.845 112.620  0.00  0.00    -0.241 OA
ENDBRANCH   3  22
TORSDOF 7
ENDMDL
MODEL 9
REMARK VINA RESULT:      -3.9     26.353     28.523
REMARK  7 active torsions:
REMARK  status: ('A' for Active; 'I' for Inactive)
REMARK    1  A    between atoms: C_2  and  C_3 
REMARK    2  A    between atoms: C_3  and  O_6 
REMARK    3  A    between atoms: C_3  and  C_4 
REMARK    4  A    between atoms: C_7  and  O_6 
REMARK    5  A    between atoms: C_9  and  C_10 
REMARK    6  A    between atoms: N_15  and  C_14 
REMARK    7  A    between atoms: N_20  and  C_19 
REMARK       I    between atoms: C_22  and  N_20 
ROOT
ATOM      1  C   LIG d   1     -25.125  83.021 114.011  0.00  0.00     0.161 C 
ATOM      2  C   LIG d   1     -24.826  84.284 113.473  0.00  0.00     0.016 C 
ATOM      3  C   LIG d   1     -23.621  84.976 113.735  0.00  0.00     0.038 C 
ATOM      4  C   LIG d   1     -22.562  84.381 114.436  0.00  0.00     0.028 C 
ATOM      5  C   LIG d   1     -23.014  83.309 115.422  0.00  0.00    -0.047 C 
ATOM      6  C   LIG d   1     -23.935  82.309 114.688  0.00  0.00     0.091 C 
ENDROOT
BRANCH   1   7
ATOM      7  O   LIG d   1     -25.699  82.180 112.992  0.00  0.00    -0.368 OA
BRANCH   7   8
ATOM      8  C   LIG d   1     -27.141  82.034 113.023  0.00  0.00     0.119 C 
BRANCH   8   9
ATOM      9  C   LIG d   1     -27.457  80.531 112.892  0.00  0.00     0.028 C 
ATOM     10  C   LIG d   1     -28.094  79.952 114.166  0.00  0.00     0.006 C 
ENDBRANCH   8   9
BRANCH   8  11
ATOM     11  C   LIG d   1     -27.794  82.694 111.805  0.00  0.00     0.028 C 
ATOM     12  C   LIG d   1     -28.638  83.923 112.175  0.00  0.00     0.006 C 
ENDBRANCH   8  11
ENDBRANCH   7   8
ENDBRANCH   1   7
BRANCH   6  13
ATOM     13  N   LIG d   1     -24.490  81.275 115.600  0.00  0.00    -0.311 N 
ATOM     14  C   LIG d   1     -24.528  79.977 115.300  0.00  0.00     0.210 C 
ATOM     15  C   LIG d   1     -25.160  79.084 116.373  0.00  0.00     0.109 C 
ATOM     16  O   LIG d   1     -24.070  79.477 114.262  0.00  0.00    -0.276 OA
ATOM     17  H   LIG d   1     -24.856  81.589 116.477  0.00  0.00     0.149 HD
ENDBRANCH   6  13
BRANCH   5  18
ATOM     18  N   LIG d   1     -21.804  82.678 115.981  0.00  0.00     0.381 N 
ATOM     19  H   LIG d   1     -21.143  83.383 116.241  0.00  0.00    -0.090 HD
ATOM     20  H   LIG d   1     -21.384  82.098 115.275  0.00  0.00    -0.090 HD
ATOM     21  H   LIG d   1     -22.042  82.127 116.776  0.00  0.00    -0.090 HD
ENDBRANCH   5  18
BRANCH   3  22
ATOM     22  C   LIG d   1     -23.483  86.294 113.327  0.00  0.00     0.382 C 
ATOM     23  O   LIG d   1     -22.350  86.834 113.324  0.00  0.00    -0.241 OA
ATOM     24  O   LIG d   1     -24.482  86.963 113.004  0.00  0.00    -0.241 OA
ENDBRANCH   3  22
TORSDOF 7
ENDMDL
