MODEL 1
REMARK VINA RESULT:      -5.8      0.000      0.000
REMARK  7 active torsions:
REMARK  status: ('A' for Active; 'I' for Inactive)
REMARK    1  A    between atoms: C_2  and  C_3 
REMARK    2  A    between atoms: C_3  and  O_6 
REMARK    3  A    between atoms: C_3  and  C_4 
REMARK    4  A    between atoms: C_7  and  O_6 
REMARK    5  A    between atoms: C_9  and  C_10 
REMARK    6  A    between atoms: N_15  and  C_14 
REMARK    7  A    between atoms: N_20  and  C_19 
REMARK       I    between atoms: C_22  and  N_20 
ROOT
ATOM      1  C   LIG d   1      -3.057  77.359 116.056  0.00  0.00     0.161 C 
ATOM      2  C   LIG d   1      -3.286  78.327 115.064  0.00  0.00     0.016 C 
ATOM      3  C   LIG d   1      -2.402  78.559 113.986  0.00  0.00     0.038 C 
ATOM      4  C   LIG d   1      -1.297  77.730 113.740  0.00  0.00     0.028 C 
ATOM      5  C   LIG d   1      -0.751  77.062 114.997  0.00  0.00    -0.047 C 
ATOM      6  C   LIG d   1      -1.914  76.370 115.744  0.00  0.00     0.091 C 
ENDROOT
BRANCH   1   7
ATOM      7  O   LIG d   1      -4.277  76.643 116.331  0.00  0.00    -0.368 OA
BRANCH   7   8
ATOM      8  C   LIG d   1      -5.118  76.354 115.187  0.00  0.00     0.119 C 
BRANCH   8   9
ATOM      9  C   LIG d   1      -6.571  76.675 115.587  0.00  0.00     0.028 C 
ATOM     10  C   LIG d   1      -6.654  77.514 116.874  0.00  0.00     0.006 C 
ENDBRANCH   8   9
BRANCH   8  11
ATOM     11  C   LIG d   1      -5.111  74.859 114.853  0.00  0.00     0.028 C 
ATOM     12  C   LIG d   1      -5.926  74.022 115.850  0.00  0.00     0.006 C 
ENDBRANCH   8  11
ENDBRANCH   7   8
ENDBRANCH   1   7
BRANCH   6  13
ATOM     13  N   LIG d   1      -1.481  75.763 117.029  0.00  0.00    -0.311 N 
ATOM     14  C   LIG d   1      -1.026  74.515 117.134  0.00  0.00     0.210 C 
ATOM     15  C   LIG d   1      -0.652  74.080 118.555  0.00  0.00     0.109 C 
ATOM     16  O   LIG d   1      -0.866  73.738 116.181  0.00  0.00    -0.276 OA
ATOM     17  H   LIG d   1      -1.548  76.333 117.849  0.00  0.00     0.149 HD
ENDBRANCH   6  13
BRANCH   5  18
ATOM     18  N   LIG d   1       0.307  76.123 114.578  0.00  0.00     0.381 N 
ATOM     19  H   LIG d   1       0.541  75.515 115.338  0.00  0.00    -0.090 HD
ATOM     20  H   LIG d   1       1.127  76.647 114.329  0.00  0.00    -0.090 HD
ATOM     21  H   LIG d   1      -0.003  75.586 113.798  0.00  0.00    -0.090 HD
ENDBRANCH   5  18
BRANCH   3  22
ATOM     22  C   LIG d   1      -2.598  79.657 113.161  0.00  0.00     0.382 C 
ATOM     23  O   LIG d   1      -3.365  80.582 113.520  0.00  0.00    -0.241 OA
ATOM     24  O   LIG d   1      -2.052  79.712 112.043  0.00  0.00    -0.241 OA
ENDBRANCH   3  22
TORSDOF 7
ENDMDL
MODEL 2
REMARK VINA RESULT:      -5.5      2.548      4.657
REMARK  7 active torsions:
REMARK  status: ('A' for Active; 'I' for Inactive)
REMARK    1  A    between atoms: C_2  and  C_3 
REMARK    2  A    between atoms: C_3  and  O_6 
REMARK    3  A    between atoms: C_3  and  C_4 
REMARK    4  A    between atoms: C_7  and  O_6 
REMARK    5  A    between atoms: C_9  and  C_10 
REMARK    6  A    between atoms: N_15  and  C_14 
REMARK    7  A    between atoms: N_20  and  C_19 
REMARK       I    between atoms: C_22  and  N_20 
ROOT
ATOM      1  C   LIG d   1      -2.984  74.837 115.679  0.00  0.00     0.161 C 
ATOM      2  C   LIG d   1      -2.083  75.616 114.933  0.00  0.00     0.016 C 
ATOM      3  C   LIG d   1      -2.488  76.554 113.956  0.00  0.00     0.038 C 
ATOM      4  C   LIG d   1      -3.837  76.889 113.765  0.00  0.00     0.028 C 
ATOM      5  C   LIG d   1      -4.799  75.766 114.138  0.00  0.00    -0.047 C 
ATOM      6  C   LIG d   1      -4.461  75.269 115.562  0.00  0.00     0.091 C 
ENDROOT
BRANCH   1   7
ATOM      7  O   LIG d   1      -2.578  74.809 117.061  0.00  0.00    -0.368 OA
BRANCH   7   8
ATOM      8  C   LIG d   1      -1.656  75.848 117.476  0.00  0.00     0.119 C 
BRANCH   8   9
ATOM      9  C   LIG d   1      -0.553  75.178 118.318  0.00  0.00     0.028 C 
ATOM     10  C   LIG d   1      -0.822  73.683 118.555  0.00  0.00     0.006 C 
ENDBRANCH   8   9
BRANCH   8  11
ATOM     11  C   LIG d   1      -2.333  76.850 118.416  0.00  0.00     0.028 C 
ATOM     12  C   LIG d   1      -2.941  78.049 117.671  0.00  0.00     0.006 C 
ENDBRANCH   8  11
ENDBRANCH   7   8
ENDBRANCH   1   7
BRANCH   6  13
ATOM     13  N   LIG d   1      -5.301  74.113 115.973  0.00  0.00    -0.311 N 
ATOM     14  C   LIG d   1      -6.464  74.242 116.610  0.00  0.00     0.210 C 
ATOM     15  C   LIG d   1      -7.159  72.922 116.959  0.00  0.00     0.109 C 
ATOM     16  O   LIG d   1      -7.001  75.324 116.890  0.00  0.00    -0.276 OA
ATOM     17  H   LIG d   1      -4.955  73.199 115.757  0.00  0.00     0.149 HD
ENDBRANCH   6  13
BRANCH   5  18
ATOM     18  N   LIG d   1      -6.170  76.297 114.021  0.00  0.00     0.381 N 
ATOM     19  H   LIG d   1      -6.139  77.276 113.819  0.00  0.00    -0.090 HD
ATOM     20  H   LIG d   1      -6.643  76.172 114.899  0.00  0.00    -0.090 HD
ATOM     21  H   LIG d   1      -6.662  75.817 113.300  0.00  0.00    -0.090 HD
ENDBRANCH   5  18
BRANCH   3  22
ATOM     22  C   LIG d   1      -1.541  77.140 113.131  0.00  0.00     0.382 C 
ATOM     23  O   LIG d   1      -1.063  78.263 113.423  0.00  0.00    -0.241 OA
ATOM     24  O   LIG d   1      -1.190  76.580 112.075  0.00  0.00    -0.241 OA
ENDBRANCH   3  22
TORSDOF 7
ENDMDL
MODEL 3
REMARK VINA RESULT:      -5.4      1.826      4.734
REMARK  7 active torsions:
REMARK  status: ('A' for Active; 'I' for Inactive)
REMARK    1  A    between atoms: C_2  and  C_3 
REMARK    2  A    between atoms: C_3  and  O_6 
REMARK    3  A    between atoms: C_3  and  C_4 
REMARK    4  A    between atoms: C_7  and  O_6 
REMARK    5  A    between atoms: C_9  and  C_10 
REMARK    6  A    between atoms: N_15  and  C_14 
REMARK    7  A    between atoms: N_20  and  C_19 
REMARK       I    between atoms: C_22  and  N_20 
ROOT
ATOM      1  C   LIG d   1      -3.265  75.120 115.822  0.00  0.00     0.161 C 
ATOM      2  C   LIG d   1      -2.452  74.609 116.847  0.00  0.00     0.016 C 
ATOM      3  C   LIG d   1      -1.085  74.938 116.993  0.00  0.00     0.038 C 
ATOM      4  C   LIG d   1      -0.472  75.924 116.206  0.00  0.00     0.028 C 
ATOM      5  C   LIG d   1      -1.119  76.095 114.836  0.00  0.00    -0.047 C 
ATOM      6  C   LIG d   1      -2.642  76.282 115.021  0.00  0.00     0.091 C 
ENDROOT
BRANCH   1   7
ATOM      7  O   LIG d   1      -4.544  75.511 116.360  0.00  0.00    -0.368 OA
BRANCH   7   8
ATOM      8  C   LIG d   1      -5.707  74.903 115.747  0.00  0.00     0.119 C 
BRANCH   8   9
ATOM      9  C   LIG d   1      -6.605  76.042 115.228  0.00  0.00     0.028 C 
ATOM     10  C   LIG d   1      -7.809  76.305 116.147  0.00  0.00     0.006 C 
ENDBRANCH   8   9
BRANCH   8  11
ATOM     11  C   LIG d   1      -6.556  74.156 116.780  0.00  0.00     0.028 C 
ATOM     12  C   LIG d   1      -6.712  72.662 116.454  0.00  0.00     0.006 C 
ENDBRANCH   8  11
ENDBRANCH   7   8
ENDBRANCH   1   7
BRANCH   6  13
ATOM     13  N   LIG d   1      -3.364  76.373 113.725  0.00  0.00    -0.311 N 
ATOM     14  C   LIG d   1      -3.652  77.526 113.125  0.00  0.00     0.210 C 
ATOM     15  C   LIG d   1      -4.419  77.395 111.805  0.00  0.00     0.109 C 
ATOM     16  O   LIG d   1      -3.317  78.645 113.544  0.00  0.00    -0.276 OA
ATOM     17  H   LIG d   1      -3.646  75.512 113.298  0.00  0.00     0.149 HD
ENDBRANCH   6  13
BRANCH   5  18
ATOM     18  N   LIG d   1      -0.471  77.245 114.177  0.00  0.00     0.381 N 
ATOM     19  H   LIG d   1       0.143  77.703 114.821  0.00  0.00    -0.090 HD
ATOM     20  H   LIG d   1      -1.180  77.901 113.897  0.00  0.00    -0.090 HD
ATOM     21  H   LIG d   1       0.041  76.937 113.380  0.00  0.00    -0.090 HD
ENDBRANCH   5  18
BRANCH   3  22
ATOM     22  C   LIG d   1      -0.306  74.248 117.909  0.00  0.00     0.382 C 
ATOM     23  O   LIG d   1      -0.641  73.095 118.275  0.00  0.00    -0.241 OA
ATOM     24  O   LIG d   1       0.705  74.780 118.407  0.00  0.00    -0.241 OA
ENDBRANCH   3  22
TORSDOF 7
ENDMDL
MODEL 4
REMARK VINA RESULT:      -5.0      2.422      5.448
REMARK  7 active torsions:
REMARK  status: ('A' for Active; 'I' for Inactive)
REMARK    1  A    between atoms: C_2  and  C_3 
REMARK    2  A    between atoms: C_3  and  O_6 
REMARK    3  A    between atoms: C_3  and  C_4 
REMARK    4  A    between atoms: C_7  and  O_6 
REMARK    5  A    between atoms: C_9  and  C_10 
REMARK    6  A    between atoms: N_15  and  C_14 
REMARK    7  A    between atoms: N_20  and  C_19 
REMARK       I    between atoms: C_22  and  N_20 
ROOT
ATOM      1  C   LIG d   1      -2.133  77.635 115.949  0.00  0.00     0.161 C 
ATOM      2  C   LIG d   1      -1.304  76.597 115.494  0.00  0.00     0.016 C 
ATOM      3  C   LIG d   1      -1.725  75.251 115.396  0.00  0.00     0.038 C 
ATOM      4  C   LIG d   1      -3.060  74.874 115.606  0.00  0.00     0.028 C 
ATOM      5  C   LIG d   1      -3.810  75.804 116.554  0.00  0.00    -0.047 C 
ATOM      6  C   LIG d   1      -3.625  77.263 116.076  0.00  0.00     0.091 C 
ENDROOT
BRANCH   1   7
ATOM      7  O   LIG d   1      -1.976  78.792 115.104  0.00  0.00    -0.368 OA
BRANCH   7   8
ATOM      8  C   LIG d   1      -1.601  78.531 113.729  0.00  0.00     0.119 C 
BRANCH   8   9
ATOM      9  C   LIG d   1      -0.479  79.520 113.359  0.00  0.00     0.028 C 
ATOM     10  C   LIG d   1      -0.493  79.893 111.867  0.00  0.00     0.006 C 
ENDBRANCH   8   9
BRANCH   8  11
ATOM     11  C   LIG d   1      -2.752  78.846 112.768  0.00  0.00     0.028 C 
ATOM     12  C   LIG d   1      -3.520  77.590 112.326  0.00  0.00     0.006 C 
ENDBRANCH   8  11
ENDBRANCH   7   8
ENDBRANCH   1   7
BRANCH   6  13
ATOM     13  N   LIG d   1      -4.257  78.244 116.996  0.00  0.00    -0.311 N 
ATOM     14  C   LIG d   1      -5.548  78.571 116.945  0.00  0.00     0.210 C 
ATOM     15  C   LIG d   1      -5.990  79.619 117.971  0.00  0.00     0.109 C 
ATOM     16  O   LIG d   1      -6.374  78.069 116.169  0.00  0.00    -0.276 OA
ATOM     17  H   LIG d   1      -3.666  78.677 117.678  0.00  0.00     0.149 HD
ENDBRANCH   6  13
BRANCH   5  18
ATOM     18  N   LIG d   1      -5.221  75.376 116.574  0.00  0.00     0.381 N 
ATOM     19  H   LIG d   1      -5.273  74.377 116.560  0.00  0.00    -0.090 HD
ATOM     20  H   LIG d   1      -5.679  75.727 115.751  0.00  0.00    -0.090 HD
ATOM     21  H   LIG d   1      -5.673  75.728 117.389  0.00  0.00    -0.090 HD
ENDBRANCH   5  18
BRANCH   3  22
ATOM     22  C   LIG d   1      -0.796  74.258 115.124  0.00  0.00     0.382 C 
ATOM     23  O   LIG d   1      -0.253  73.632 116.067  0.00  0.00    -0.241 OA
ATOM     24  O   LIG d   1      -0.460  74.011 113.950  0.00  0.00    -0.241 OA
ENDBRANCH   3  22
TORSDOF 7
ENDMDL
MODEL 5
REMARK VINA RESULT:      -4.9      2.471      3.438
REMARK  7 active torsions:
REMARK  status: ('A' for Active; 'I' for Inactive)
REMARK    1  A    between atoms: C_2  and  C_3 
REMARK    2  A    between atoms: C_3  and  O_6 
REMARK    3  A    between atoms: C_3  and  C_4 
REMARK    4  A    between atoms: C_7  and  O_6 
REMARK    5  A    between atoms: C_9  and  C_10 
REMARK    6  A    between atoms: N_15  and  C_14 
REMARK    7  A    between atoms: N_20  and  C_19 
REMARK       I    between atoms: C_22  and  N_20 
ROOT
ATOM      1  C   LIG d   1      -3.761  76.094 117.051  0.00  0.00     0.161 C 
ATOM      2  C   LIG d   1      -4.890  76.891 117.298  0.00  0.00     0.016 C 
ATOM      3  C   LIG d   1      -4.952  78.270 116.990  0.00  0.00     0.038 C 
ATOM      4  C   LIG d   1      -3.935  78.915 116.270  0.00  0.00     0.028 C 
ATOM      5  C   LIG d   1      -2.564  78.269 116.447  0.00  0.00    -0.047 C 
ATOM      6  C   LIG d   1      -2.683  76.754 116.165  0.00  0.00     0.091 C 
ENDROOT
BRANCH   1   7
ATOM      7  O   LIG d   1      -4.168  74.831 116.487  0.00  0.00    -0.368 OA
BRANCH   7   8
ATOM      8  C   LIG d   1      -5.381  74.849 115.695  0.00  0.00     0.119 C 
BRANCH   8   9
ATOM      9  C   LIG d   1      -6.076  73.486 115.881  0.00  0.00     0.028 C 
ATOM     10  C   LIG d   1      -7.001  73.462 117.109  0.00  0.00     0.006 C 
ENDBRANCH   8   9
BRANCH   8  11
ATOM     11  C   LIG d   1      -5.069  74.943 114.198  0.00  0.00     0.028 C 
ATOM     12  C   LIG d   1      -5.322  76.346 113.624  0.00  0.00     0.006 C 
ENDBRANCH   8  11
ENDBRANCH   7   8
ENDBRANCH   1   7
BRANCH   6  13
ATOM     13  N   LIG d   1      -1.405  76.032 116.398  0.00  0.00    -0.311 N 
ATOM     14  C   LIG d   1      -0.933  75.094 115.579  0.00  0.00     0.210 C 
ATOM     15  C   LIG d   1       0.392  74.461 116.015  0.00  0.00     0.109 C 
ATOM     16  O   LIG d   1      -1.470  74.749 114.515  0.00  0.00    -0.276 OA
ATOM     17  H   LIG d   1      -0.889  76.272 117.222  0.00  0.00     0.149 HD
ENDBRANCH   6  13
BRANCH   5  18
ATOM     18  N   LIG d   1      -1.628  78.955 115.537  0.00  0.00     0.381 N 
ATOM     19  H   LIG d   1      -1.883  79.918 115.451  0.00  0.00    -0.090 HD
ATOM     20  H   LIG d   1      -1.687  78.530 114.629  0.00  0.00    -0.090 HD
ATOM     21  H   LIG d   1      -0.697  78.881 115.886  0.00  0.00    -0.090 HD
ENDBRANCH   5  18
BRANCH   3  22
ATOM     22  C   LIG d   1      -6.023  79.027 117.438  0.00  0.00     0.382 C 
ATOM     23  O   LIG d   1      -6.121  80.233 117.106  0.00  0.00    -0.241 OA
ATOM     24  O   LIG d   1      -6.869  78.532 118.206  0.00  0.00    -0.241 OA
ENDBRANCH   3  22
TORSDOF 7
ENDMDL
MODEL 6
REMARK VINA RESULT:      -4.7      8.719     11.488
REMARK  7 active torsions:
REMARK  status: ('A' for Active; 'I' for Inactive)
REMARK    1  A    between atoms: C_2  and  C_3 
REMARK    2  A    between atoms: C_3  and  O_6 
REMARK    3  A    between atoms: C_3  and  C_4 
REMARK    4  A    between atoms: C_7  and  O_6 
REMARK    5  A    between atoms: C_9  and  C_10 
REMARK    6  A    between atoms: N_15  and  C_14 
REMARK    7  A    between atoms: N_20  and  C_19 
REMARK       I    between atoms: C_22  and  N_20 
ROOT
ATOM      1  C   LIG d   1       3.255  84.959 113.976  0.00  0.00     0.161 C 
ATOM      2  C   LIG d   1       2.108  84.223 113.638  0.00  0.00     0.016 C 
ATOM      3  C   LIG d   1       1.087  84.716 112.794  0.00  0.00     0.038 C 
ATOM      4  C   LIG d   1       1.217  85.931 112.105  0.00  0.00     0.028 C 
ATOM      5  C   LIG d   1       2.126  86.933 112.810  0.00  0.00    -0.047 C 
ATOM      6  C   LIG d   1       3.468  86.242 113.145  0.00  0.00     0.091 C 
ENDROOT
BRANCH   1   7
ATOM      7  O   LIG d   1       4.420  84.113 113.898  0.00  0.00    -0.368 OA
BRANCH   7   8
ATOM      8  C   LIG d   1       4.181  82.689 114.008  0.00  0.00     0.119 C 
BRANCH   8   9
ATOM      9  C   LIG d   1       4.754  82.226 115.362  0.00  0.00     0.028 C 
ATOM     10  C   LIG d   1       4.366  80.777 115.700  0.00  0.00     0.006 C 
ENDBRANCH   8   9
BRANCH   8  11
ATOM     11  C   LIG d   1       4.965  81.909 112.949  0.00  0.00     0.028 C 
ATOM     12  C   LIG d   1       5.697  82.824 111.955  0.00  0.00     0.006 C 
ENDBRANCH   8  11
ENDBRANCH   7   8
ENDBRANCH   1   7
BRANCH   6  13
ATOM     13  N   LIG d   1       4.385  87.127 113.911  0.00  0.00    -0.311 N 
ATOM     14  C   LIG d   1       5.355  87.842 113.345  0.00  0.00     0.210 C 
ATOM     15  C   LIG d   1       6.198  88.672 114.318  0.00  0.00     0.109 C 
ATOM     16  O   LIG d   1       5.578  87.893 112.126  0.00  0.00    -0.276 OA
ATOM     17  H   LIG d   1       4.255  87.170 114.903  0.00  0.00     0.149 HD
ENDBRANCH   6  13
BRANCH   5  18
ATOM     18  N   LIG d   1       2.283  88.097 111.918  0.00  0.00     0.381 N 
ATOM     19  H   LIG d   1       1.447  88.229 111.383  0.00  0.00    -0.090 HD
ATOM     20  H   LIG d   1       3.039  87.919 111.281  0.00  0.00    -0.090 HD
ATOM     21  H   LIG d   1       2.475  88.914 112.454  0.00  0.00    -0.090 HD
ENDBRANCH   5  18
BRANCH   3  22
ATOM     22  C   LIG d   1      -0.099  84.010 112.664  0.00  0.00     0.382 C 
ATOM     23  O   LIG d   1      -0.300  82.988 113.364  0.00  0.00    -0.241 OA
ATOM     24  O   LIG d   1      -0.952  84.355 111.825  0.00  0.00    -0.241 OA
ENDBRANCH   3  22
TORSDOF 7
ENDMDL
MODEL 7
REMARK VINA RESULT:      -4.7      9.628     11.755
REMARK  7 active torsions:
REMARK  status: ('A' for Active; 'I' for Inactive)
REMARK    1  A    between atoms: C_2  and  C_3 
REMARK    2  A    between atoms: C_3  and  O_6 
REMARK    3  A    between atoms: C_3  and  C_4 
REMARK    4  A    between atoms: C_7  and  O_6 
REMARK    5  A    between atoms: C_9  and  C_10 
REMARK    6  A    between atoms: N_15  and  C_14 
REMARK    7  A    between atoms: N_20  and  C_19 
REMARK       I    between atoms: C_22  and  N_20 
ROOT
ATOM      1  C   LIG d   1       4.350  85.605 113.410  0.00  0.00     0.161 C 
ATOM      2  C   LIG d   1       4.725  86.864 112.911  0.00  0.00     0.016 C 
ATOM      3  C   LIG d   1       5.278  87.886 113.716  0.00  0.00     0.038 C 
ATOM      4  C   LIG d   1       5.636  87.665 115.054  0.00  0.00     0.028 C 
ATOM      5  C   LIG d   1       4.811  86.574 115.729  0.00  0.00    -0.047 C 
ATOM      6  C   LIG d   1       4.835  85.307 114.844  0.00  0.00     0.091 C 
ENDROOT
BRANCH   1   7
ATOM      7  O   LIG d   1       4.789  84.571 112.507  0.00  0.00    -0.368 OA
BRANCH   7   8
ATOM      8  C   LIG d   1       3.746  83.852 111.805  0.00  0.00     0.119 C 
BRANCH   8   9
ATOM      9  C   LIG d   1       2.397  84.287 112.410  0.00  0.00     0.028 C 
ATOM     10  C   LIG d   1       1.571  83.095 112.922  0.00  0.00     0.006 C 
ENDBRANCH   8   9
BRANCH   8  11
ATOM     11  C   LIG d   1       3.837  82.345 112.062  0.00  0.00     0.028 C 
ATOM     12  C   LIG d   1       5.276  81.871 112.323  0.00  0.00     0.006 C 
ENDBRANCH   8  11
ENDBRANCH   7   8
ENDBRANCH   1   7
BRANCH   6  13
ATOM     13  N   LIG d   1       3.984  84.218 115.390  0.00  0.00    -0.311 N 
ATOM     14  C   LIG d   1       4.461  83.033 115.766  0.00  0.00     0.210 C 
ATOM     15  C   LIG d   1       3.409  82.046 116.282  0.00  0.00     0.109 C 
ATOM     16  O   LIG d   1       5.660  82.717 115.753  0.00  0.00    -0.276 OA
ATOM     17  H   LIG d   1       3.002  84.401 115.465  0.00  0.00     0.149 HD
ENDBRANCH   6  13
BRANCH   5  18
ATOM     18  N   LIG d   1       5.380  86.352 117.072  0.00  0.00     0.381 N 
ATOM     19  H   LIG d   1       4.663  86.452 117.763  0.00  0.00    -0.090 HD
ATOM     20  H   LIG d   1       6.084  87.047 117.245  0.00  0.00    -0.090 HD
ATOM     21  H   LIG d   1       5.780  85.442 117.127  0.00  0.00    -0.090 HD
ENDBRANCH   5  18
BRANCH   3  22
ATOM     22  C   LIG d   1       5.441  89.160 113.192  0.00  0.00     0.382 C 
ATOM     23  O   LIG d   1       6.568  89.529 112.783  0.00  0.00    -0.241 OA
ATOM     24  O   LIG d   1       4.486  89.959 113.165  0.00  0.00    -0.241 OA
ENDBRANCH   3  22
TORSDOF 7
ENDMDL
MODEL 8
REMARK VINA RESULT:      -4.6      9.573     12.038
REMARK  7 active torsions:
REMARK  status: ('A' for Active; 'I' for Inactive)
REMARK    1  A    between atoms: C_2  and  C_3 
REMARK    2  A    between atoms: C_3  and  O_6 
REMARK    3  A    between atoms: C_3  and  C_4 
REMARK    4  A    between atoms: C_7  and  O_6 
REMARK    5  A    between atoms: C_9  and  C_10 
REMARK    6  A    between atoms: N_15  and  C_14 
REMARK    7  A    between atoms: N_20  and  C_19 
REMARK       I    between atoms: C_22  and  N_20 
ROOT
ATOM      1  C   LIG d   1       4.020  85.857 114.162  0.00  0.00     0.161 C 
ATOM      2  C   LIG d   1       5.137  86.693 114.326  0.00  0.00     0.016 C 
ATOM      3  C   LIG d   1       5.240  87.977 113.744  0.00  0.00     0.038 C 
ATOM      4  C   LIG d   1       4.160  88.578 113.079  0.00  0.00     0.028 C 
ATOM      5  C   LIG d   1       3.196  87.573 112.458  0.00  0.00    -0.047 C 
ATOM      6  C   LIG d   1       2.788  86.539 113.533  0.00  0.00     0.091 C 
ENDROOT
BRANCH   1   7
ATOM      7  O   LIG d   1       3.670  85.257 115.425  0.00  0.00    -0.368 OA
BRANCH   7   8
ATOM      8  C   LIG d   1       3.920  83.835 115.547  0.00  0.00     0.119 C 
BRANCH   8   9
ATOM      9  C   LIG d   1       4.462  83.343 114.191  0.00  0.00     0.028 C 
ATOM     10  C   LIG d   1       3.587  82.239 113.574  0.00  0.00     0.006 C 
ENDBRANCH   8   9
BRANCH   8  11
ATOM     11  C   LIG d   1       2.619  83.058 115.769  0.00  0.00     0.028 C 
ATOM     12  C   LIG d   1       1.693  83.728 116.796  0.00  0.00     0.006 C 
ENDBRANCH   8  11
ENDBRANCH   7   8
ENDBRANCH   1   7
BRANCH   6  13
ATOM     13  N   LIG d   1       1.911  85.471 112.988  0.00  0.00    -0.311 N 
ATOM     14  C   LIG d   1       0.703  85.194 113.475  0.00  0.00     0.210 C 
ATOM     15  C   LIG d   1      -0.026  84.040 112.779  0.00  0.00     0.109 C 
ATOM     16  O   LIG d   1       0.152  85.815 114.396  0.00  0.00    -0.276 OA
ATOM     17  H   LIG d   1       2.267  84.937 112.219  0.00  0.00     0.149 HD
ENDBRANCH   6  13
BRANCH   5  18
ATOM     18  N   LIG d   1       2.050  88.329 111.919  0.00  0.00     0.381 N 
ATOM     19  H   LIG d   1       2.142  89.297 112.155  0.00  0.00    -0.090 HD
ATOM     20  H   LIG d   1       1.205  87.981 112.337  0.00  0.00    -0.090 HD
ATOM     21  H   LIG d   1       2.007  88.223 110.929  0.00  0.00    -0.090 HD
ENDBRANCH   5  18
BRANCH   3  22
ATOM     22  C   LIG d   1       6.446  88.659 113.790  0.00  0.00     0.382 C 
ATOM     23  O   LIG d   1       6.810  89.356 112.813  0.00  0.00    -0.241 OA
ATOM     24  O   LIG d   1       7.196  88.550 114.779  0.00  0.00    -0.241 OA
ENDBRANCH   3  22
TORSDOF 7
ENDMDL
MODEL 9
REMARK VINA RESULT:      -4.6      2.495      4.807
REMARK  7 active torsions:
REMARK  status: ('A' for Active; 'I' for Inactive)
REMARK    1  A    between atoms: C_2  and  C_3 
REMARK    2  A    between atoms: C_3  and  O_6 
REMARK    3  A    between atoms: C_3  and  C_4 
REMARK    4  A    between atoms: C_7  and  O_6 
REMARK    5  A    between atoms: C_9  and  C_10 
REMARK    6  A    between atoms: N_15  and  C_14 
REMARK    7  A    between atoms: N_20  and  C_19 
REMARK       I    between atoms: C_22  and  N_20 
ROOT
ATOM      1  C   LIG d   1      -4.073  75.752 116.287  0.00  0.00     0.161 C 
ATOM      2  C   LIG d   1      -3.100  74.983 116.947  0.00  0.00     0.016 C 
ATOM      3  C   LIG d   1      -1.731  74.988 116.592  0.00  0.00     0.038 C 
ATOM      4  C   LIG d   1      -1.215  75.882 115.644  0.00  0.00     0.028 C 
ATOM      5  C   LIG d   1      -2.238  76.317 114.600  0.00  0.00    -0.047 C 
ATOM      6  C   LIG d   1      -3.510  76.817 115.323  0.00  0.00     0.091 C 
ENDROOT
BRANCH   1   7
ATOM      7  O   LIG d   1      -4.951  76.363 117.252  0.00  0.00    -0.368 OA
BRANCH   7   8
ATOM      8  C   LIG d   1      -6.283  75.803 117.347  0.00  0.00     0.119 C 
BRANCH   8   9
ATOM      9  C   LIG d   1      -6.382  74.666 116.312  0.00  0.00     0.028 C 
ATOM     10  C   LIG d   1      -6.733  73.314 116.956  0.00  0.00     0.006 C 
ENDBRANCH   8   9
BRANCH   8  11
ATOM     11  C   LIG d   1      -7.348  76.822 116.933  0.00  0.00     0.028 C 
ATOM     12  C   LIG d   1      -8.729  76.186 116.713  0.00  0.00     0.006 C 
ENDBRANCH   8  11
ENDBRANCH   7   8
ENDBRANCH   1   7
BRANCH   6  13
ATOM     13  N   LIG d   1      -4.594  77.183 114.374  0.00  0.00    -0.311 N 
ATOM     14  C   LIG d   1      -5.101  76.337 113.479  0.00  0.00     0.210 C 
ATOM     15  C   LIG d   1      -6.198  76.923 112.584  0.00  0.00     0.109 C 
ATOM     16  O   LIG d   1      -4.769  75.147 113.362  0.00  0.00    -0.276 OA
ATOM     17  H   LIG d   1      -4.944  78.119 114.421  0.00  0.00     0.149 HD
ENDBRANCH   6  13
BRANCH   5  18
ATOM     18  N   LIG d   1      -1.606  77.351 113.760  0.00  0.00     0.381 N 
ATOM     19  H   LIG d   1      -0.966  76.924 113.121  0.00  0.00    -0.090 HD
ATOM     20  H   LIG d   1      -1.091  77.980 114.350  0.00  0.00    -0.090 HD
ATOM     21  H   LIG d   1      -2.303  77.854 113.256  0.00  0.00    -0.090 HD
ENDBRANCH   5  18
BRANCH   3  22
ATOM     22  C   LIG d   1      -0.871  74.061 117.162  0.00  0.00     0.382 C 
ATOM     23  O   LIG d   1       0.089  73.605 116.495  0.00  0.00    -0.241 OA
ATOM     24  O   LIG d   1      -1.068  73.643 118.318  0.00  0.00    -0.241 OA
ENDBRANCH   3  22
TORSDOF 7
ENDMDL
