MODEL 1
REMARK VINA RESULT:      -5.5      0.000      0.000
REMARK  7 active torsions:
REMARK  status: ('A' for Active; 'I' for Inactive)
REMARK    1  A    between atoms: C_2  and  C_3 
REMARK    2  A    between atoms: C_3  and  O_6 
REMARK    3  A    between atoms: C_3  and  C_4 
REMARK    4  A    between atoms: C_7  and  O_6 
REMARK    5  A    between atoms: C_9  and  C_10 
REMARK    6  A    between atoms: N_15  and  C_14 
REMARK    7  A    between atoms: N_20  and  C_19 
REMARK       I    between atoms: C_22  and  N_20 
ROOT
ATOM      1  C   LIG d   1      -6.599  76.115 118.486  0.00  0.00     0.161 C 
ATOM      2  C   LIG d   1      -7.505  77.188 118.453  0.00  0.00     0.016 C 
ATOM      3  C   LIG d   1      -7.271  78.381 117.730  0.00  0.00     0.038 C 
ATOM      4  C   LIG d   1      -6.177  78.521 116.864  0.00  0.00     0.028 C 
ATOM      5  C   LIG d   1      -4.979  77.663 117.257  0.00  0.00    -0.047 C 
ATOM      6  C   LIG d   1      -5.451  76.205 117.458  0.00  0.00     0.091 C 
ENDROOT
BRANCH   1   7
ATOM      7  O   LIG d   1      -7.310  74.870 118.334  0.00  0.00    -0.368 OA
BRANCH   7   8
ATOM      8  C   LIG d   1      -7.837  74.594 117.013  0.00  0.00     0.119 C 
BRANCH   8   9
ATOM      9  C   LIG d   1      -9.346  74.321 117.164  0.00  0.00     0.028 C 
ATOM     10  C   LIG d   1     -10.184  75.610 117.101  0.00  0.00     0.006 C 
ENDBRANCH   8   9
BRANCH   8  11
ATOM     11  C   LIG d   1      -7.247  73.303 116.438  0.00  0.00     0.028 C 
ATOM     12  C   LIG d   1      -8.286  72.176 116.315  0.00  0.00     0.006 C 
ENDBRANCH   8  11
ENDBRANCH   7   8
ENDBRANCH   1   7
BRANCH   6  13
ATOM     13  N   LIG d   1      -4.358  75.314 117.926  0.00  0.00    -0.311 N 
ATOM     14  C   LIG d   1      -3.571  74.624 117.102  0.00  0.00     0.210 C 
ATOM     15  C   LIG d   1      -2.519  73.751 117.793  0.00  0.00     0.109 C 
ATOM     16  O   LIG d   1      -3.624  74.676 115.864  0.00  0.00    -0.276 OA
ATOM     17  H   LIG d   1      -4.224  75.237 118.915  0.00  0.00     0.149 HD
ENDBRANCH   6  13
BRANCH   5  18
ATOM     18  N   LIG d   1      -3.964  77.801 116.196  0.00  0.00     0.381 N 
ATOM     19  H   LIG d   1      -3.233  77.134 116.338  0.00  0.00    -0.090 HD
ATOM     20  H   LIG d   1      -3.565  78.722 116.246  0.00  0.00    -0.090 HD
ATOM     21  H   LIG d   1      -4.384  77.661 115.303  0.00  0.00    -0.090 HD
ENDBRANCH   5  18
BRANCH   3  22
ATOM     22  C   LIG d   1      -8.119  79.465 117.903  0.00  0.00     0.382 C 
ATOM     23  O   LIG d   1      -9.203  79.322 118.517  0.00  0.00    -0.241 OA
ATOM     24  O   LIG d   1      -7.833  80.574 117.413  0.00  0.00    -0.241 OA
ENDBRANCH   3  22
TORSDOF 7
ENDMDL
MODEL 2
REMARK VINA RESULT:      -5.5      1.679      2.269
REMARK  7 active torsions:
REMARK  status: ('A' for Active; 'I' for Inactive)
REMARK    1  A    between atoms: C_2  and  C_3 
REMARK    2  A    between atoms: C_3  and  O_6 
REMARK    3  A    between atoms: C_3  and  C_4 
REMARK    4  A    between atoms: C_7  and  O_6 
REMARK    5  A    between atoms: C_9  and  C_10 
REMARK    6  A    between atoms: N_15  and  C_14 
REMARK    7  A    between atoms: N_20  and  C_19 
REMARK       I    between atoms: C_22  and  N_20 
ROOT
ATOM      1  C   LIG d   1      -6.344  75.525 118.169  0.00  0.00     0.161 C 
ATOM      2  C   LIG d   1      -7.712  75.832 118.073  0.00  0.00     0.016 C 
ATOM      3  C   LIG d   1      -8.201  77.132 117.809  0.00  0.00     0.038 C 
ATOM      4  C   LIG d   1      -7.346  78.191 117.471  0.00  0.00     0.028 C 
ATOM      5  C   LIG d   1      -5.942  78.045 118.050  0.00  0.00    -0.047 C 
ATOM      6  C   LIG d   1      -5.395  76.644 117.693  0.00  0.00     0.091 C 
ENDROOT
BRANCH   1   7
ATOM      7  O   LIG d   1      -6.068  74.299 117.461  0.00  0.00    -0.368 OA
BRANCH   7   8
ATOM      8  C   LIG d   1      -6.786  74.105 116.218  0.00  0.00     0.119 C 
BRANCH   8   9
ATOM      9  C   LIG d   1      -7.221  72.628 116.161  0.00  0.00     0.028 C 
ATOM     10  C   LIG d   1      -8.710  72.440 116.500  0.00  0.00     0.006 C 
ENDBRANCH   8   9
BRANCH   8  11
ATOM     11  C   LIG d   1      -5.870  74.305 115.008  0.00  0.00     0.028 C 
ATOM     12  C   LIG d   1      -5.999  75.705 114.388  0.00  0.00     0.006 C 
ENDBRANCH   8  11
ENDBRANCH   7   8
ENDBRANCH   1   7
BRANCH   6  13
ATOM     13  N   LIG d   1      -4.060  76.388 118.292  0.00  0.00    -0.311 N 
ATOM     14  C   LIG d   1      -2.987  76.053 117.578  0.00  0.00     0.210 C 
ATOM     15  C   LIG d   1      -1.714  75.814 118.395  0.00  0.00     0.109 C 
ATOM     16  O   LIG d   1      -2.961  75.964 116.341  0.00  0.00    -0.276 OA
ATOM     17  H   LIG d   1      -3.984  76.469 119.287  0.00  0.00     0.149 HD
ENDBRANCH   6  13
BRANCH   5  18
ATOM     18  N   LIG d   1      -5.120  79.143 117.507  0.00  0.00     0.381 N 
ATOM     19  H   LIG d   1      -4.174  79.042 117.815  0.00  0.00    -0.090 HD
ATOM     20  H   LIG d   1      -5.474  80.017 117.854  0.00  0.00    -0.090 HD
ATOM     21  H   LIG d   1      -5.155  79.135 116.511  0.00  0.00    -0.090 HD
ENDBRANCH   5  18
BRANCH   3  22
ATOM     22  C   LIG d   1      -9.558  77.391 117.921  0.00  0.00     0.382 C 
ATOM     23  O   LIG d   1     -10.391  76.477 117.711  0.00  0.00    -0.241 OA
ATOM     24  O   LIG d   1      -9.962  78.539 118.188  0.00  0.00    -0.241 OA
ENDBRANCH   3  22
TORSDOF 7
ENDMDL
MODEL 3
REMARK VINA RESULT:      -5.3      0.899      1.495
REMARK  7 active torsions:
REMARK  status: ('A' for Active; 'I' for Inactive)
REMARK    1  A    between atoms: C_2  and  C_3 
REMARK    2  A    between atoms: C_3  and  O_6 
REMARK    3  A    between atoms: C_3  and  C_4 
REMARK    4  A    between atoms: C_7  and  O_6 
REMARK    5  A    between atoms: C_9  and  C_10 
REMARK    6  A    between atoms: N_15  and  C_14 
REMARK    7  A    between atoms: N_20  and  C_19 
REMARK       I    between atoms: C_22  and  N_20 
ROOT
ATOM      1  C   LIG d   1      -6.575  75.585 118.441  0.00  0.00     0.161 C 
ATOM      2  C   LIG d   1      -7.611  76.521 118.285  0.00  0.00     0.016 C 
ATOM      3  C   LIG d   1      -7.431  77.787 117.681  0.00  0.00     0.038 C 
ATOM      4  C   LIG d   1      -6.229  78.144 117.052  0.00  0.00     0.028 C 
ATOM      5  C   LIG d   1      -5.009  77.433 117.628  0.00  0.00    -0.047 C 
ATOM      6  C   LIG d   1      -5.284  75.912 117.662  0.00  0.00     0.091 C 
ENDROOT
BRANCH   1   7
ATOM      7  O   LIG d   1      -7.050  74.269 118.094  0.00  0.00    -0.368 OA
BRANCH   7   8
ATOM      8  C   LIG d   1      -7.655  74.134 116.784  0.00  0.00     0.119 C 
BRANCH   8   9
ATOM      9  C   LIG d   1      -8.955  73.325 116.956  0.00  0.00     0.028 C 
ATOM     10  C   LIG d   1      -8.907  71.975 116.221  0.00  0.00     0.006 C 
ENDBRANCH   8   9
BRANCH   8  11
ATOM     11  C   LIG d   1      -6.777  73.298 115.849  0.00  0.00     0.028 C 
ATOM     12  C   LIG d   1      -5.992  74.156 114.844  0.00  0.00     0.006 C 
ENDBRANCH   8  11
ENDBRANCH   7   8
ENDBRANCH   1   7
BRANCH   6  13
ATOM     13  N   LIG d   1      -4.174  75.149 118.289  0.00  0.00    -0.311 N 
ATOM     14  C   LIG d   1      -3.164  74.623 117.599  0.00  0.00     0.210 C 
ATOM     15  C   LIG d   1      -2.137  73.857 118.439  0.00  0.00     0.109 C 
ATOM     16  O   LIG d   1      -3.005  74.744 116.375  0.00  0.00    -0.276 OA
ATOM     17  H   LIG d   1      -4.208  75.029 119.283  0.00  0.00     0.149 HD
ENDBRANCH   6  13
BRANCH   5  18
ATOM     18  N   LIG d   1      -3.848  77.792 116.792  0.00  0.00     0.381 N 
ATOM     19  H   LIG d   1      -3.284  78.467 117.268  0.00  0.00    -0.090 HD
ATOM     20  H   LIG d   1      -4.178  78.202 115.936  0.00  0.00    -0.090 HD
ATOM     21  H   LIG d   1      -3.307  76.979 116.592  0.00  0.00    -0.090 HD
ENDBRANCH   5  18
BRANCH   3  22
ATOM     22  C   LIG d   1      -8.449  78.727 117.737  0.00  0.00     0.382 C 
ATOM     23  O   LIG d   1      -8.191  79.942 117.562  0.00  0.00    -0.241 OA
ATOM     24  O   LIG d   1      -9.615  78.380 118.006  0.00  0.00    -0.241 OA
ENDBRANCH   3  22
TORSDOF 7
ENDMDL
MODEL 4
REMARK VINA RESULT:      -5.1      2.397      5.484
REMARK  7 active torsions:
REMARK  status: ('A' for Active; 'I' for Inactive)
REMARK    1  A    between atoms: C_2  and  C_3 
REMARK    2  A    between atoms: C_3  and  O_6 
REMARK    3  A    between atoms: C_3  and  C_4 
REMARK    4  A    between atoms: C_7  and  O_6 
REMARK    5  A    between atoms: C_9  and  C_10 
REMARK    6  A    between atoms: N_15  and  C_14 
REMARK    7  A    between atoms: N_20  and  C_19 
REMARK       I    between atoms: C_22  and  N_20 
ROOT
ATOM      1  C   LIG d   1      -4.258  75.148 116.677  0.00  0.00     0.161 C 
ATOM      2  C   LIG d   1      -5.246  74.172 116.464  0.00  0.00     0.016 C 
ATOM      3  C   LIG d   1      -6.628  74.463 116.406  0.00  0.00     0.038 C 
ATOM      4  C   LIG d   1      -7.109  75.781 116.407  0.00  0.00     0.028 C 
ATOM      5  C   LIG d   1      -6.189  76.761 117.127  0.00  0.00    -0.047 C 
ATOM      6  C   LIG d   1      -4.755  76.605 116.569  0.00  0.00     0.091 C 
ENDROOT
BRANCH   1   7
ATOM      7  O   LIG d   1      -3.152  74.928 115.780  0.00  0.00    -0.368 OA
BRANCH   7   8
ATOM      8  C   LIG d   1      -2.087  74.080 116.277  0.00  0.00     0.119 C 
BRANCH   8   9
ATOM      9  C   LIG d   1      -1.828  74.475 117.744  0.00  0.00     0.028 C 
ATOM     10  C   LIG d   1      -1.190  73.334 118.554  0.00  0.00     0.006 C 
ENDBRANCH   8   9
BRANCH   8  11
ATOM     11  C   LIG d   1      -0.770  74.354 115.544  0.00  0.00     0.028 C 
ATOM     12  C   LIG d   1      -0.221  73.113 114.823  0.00  0.00     0.006 C 
ENDBRANCH   8  11
ENDBRANCH   7   8
ENDBRANCH   1   7
BRANCH   6  13
ATOM     13  N   LIG d   1      -3.775  77.468 117.278  0.00  0.00    -0.311 N 
ATOM     14  C   LIG d   1      -3.438  78.688 116.863  0.00  0.00     0.210 C 
ATOM     15  C   LIG d   1      -2.393  79.400 117.728  0.00  0.00     0.109 C 
ATOM     16  O   LIG d   1      -3.929  79.261 115.878  0.00  0.00    -0.276 OA
ATOM     17  H   LIG d   1      -3.351  77.094 118.104  0.00  0.00     0.149 HD
ENDBRANCH   6  13
BRANCH   5  18
ATOM     18  N   LIG d   1      -6.740  78.115 116.932  0.00  0.00     0.381 N 
ATOM     19  H   LIG d   1      -6.011  78.742 116.656  0.00  0.00    -0.090 HD
ATOM     20  H   LIG d   1      -7.122  78.439 117.804  0.00  0.00    -0.090 HD
ATOM     21  H   LIG d   1      -7.453  78.096 116.236  0.00  0.00    -0.090 HD
ENDBRANCH   5  18
BRANCH   3  22
ATOM     22  C   LIG d   1      -7.548  73.426 116.387  0.00  0.00     0.382 C 
ATOM     23  O   LIG d   1      -8.674  73.576 116.921  0.00  0.00    -0.241 OA
ATOM     24  O   LIG d   1      -7.251  72.327 115.881  0.00  0.00    -0.241 OA
ENDBRANCH   3  22
TORSDOF 7
ENDMDL
MODEL 5
REMARK VINA RESULT:      -5.1      2.027      4.296
REMARK  7 active torsions:
REMARK  status: ('A' for Active; 'I' for Inactive)
REMARK    1  A    between atoms: C_2  and  C_3 
REMARK    2  A    between atoms: C_3  and  O_6 
REMARK    3  A    between atoms: C_3  and  C_4 
REMARK    4  A    between atoms: C_7  and  O_6 
REMARK    5  A    between atoms: C_9  and  C_10 
REMARK    6  A    between atoms: N_15  and  C_14 
REMARK    7  A    between atoms: N_20  and  C_19 
REMARK       I    between atoms: C_22  and  N_20 
ROOT
ATOM      1  C   LIG d   1      -6.424  76.352 117.082  0.00  0.00     0.161 C 
ATOM      2  C   LIG d   1      -6.493  77.728 117.360  0.00  0.00     0.016 C 
ATOM      3  C   LIG d   1      -7.701  78.403 117.651  0.00  0.00     0.038 C 
ATOM      4  C   LIG d   1      -8.909  77.714 117.834  0.00  0.00     0.028 C 
ATOM      5  C   LIG d   1      -8.979  76.398 117.068  0.00  0.00    -0.047 C 
ATOM      6  C   LIG d   1      -7.715  75.565 117.386  0.00  0.00     0.091 C 
ENDROOT
BRANCH   1   7
ATOM      7  O   LIG d   1      -5.305  75.769 117.779  0.00  0.00    -0.368 OA
BRANCH   7   8
ATOM      8  C   LIG d   1      -4.235  75.254 116.949  0.00  0.00     0.119 C 
BRANCH   8   9
ATOM      9  C   LIG d   1      -3.739  73.945 117.592  0.00  0.00     0.028 C 
ATOM     10  C   LIG d   1      -2.247  74.002 117.963  0.00  0.00     0.006 C 
ENDBRANCH   8   9
BRANCH   8  11
ATOM     11  C   LIG d   1      -3.025  76.193 116.955  0.00  0.00     0.028 C 
ATOM     12  C   LIG d   1      -2.865  76.968 115.637  0.00  0.00     0.006 C 
ENDBRANCH   8  11
ENDBRANCH   7   8
ENDBRANCH   1   7
BRANCH   6  13
ATOM     13  N   LIG d   1      -7.662  74.298 116.611  0.00  0.00    -0.311 N 
ATOM     14  C   LIG d   1      -7.341  73.123 117.150  0.00  0.00     0.210 C 
ATOM     15  C   LIG d   1      -7.327  71.945 116.170  0.00  0.00     0.109 C 
ATOM     16  O   LIG d   1      -7.098  72.938 118.352  0.00  0.00    -0.276 OA
ATOM     17  H   LIG d   1      -7.876  74.350 115.635  0.00  0.00     0.149 HD
ENDBRANCH   6  13
BRANCH   5  18
ATOM     18  N   LIG d   1     -10.230  75.721 117.457  0.00  0.00     0.381 N 
ATOM     19  H   LIG d   1     -10.253  75.594 118.449  0.00  0.00    -0.090 HD
ATOM     20  H   LIG d   1     -10.258  74.815 117.023  0.00  0.00    -0.090 HD
ATOM     21  H   LIG d   1     -11.015  76.261 117.165  0.00  0.00    -0.090 HD
ENDBRANCH   5  18
BRANCH   3  22
ATOM     22  C   LIG d   1      -7.714  79.787 117.724  0.00  0.00     0.382 C 
ATOM     23  O   LIG d   1      -6.757  80.449 117.254  0.00  0.00    -0.241 OA
ATOM     24  O   LIG d   1      -8.650  80.381 118.292  0.00  0.00    -0.241 OA
ENDBRANCH   3  22
TORSDOF 7
ENDMDL
MODEL 6
REMARK VINA RESULT:      -4.9      2.169      5.627
REMARK  7 active torsions:
REMARK  status: ('A' for Active; 'I' for Inactive)
REMARK    1  A    between atoms: C_2  and  C_3 
REMARK    2  A    between atoms: C_3  and  O_6 
REMARK    3  A    between atoms: C_3  and  C_4 
REMARK    4  A    between atoms: C_7  and  O_6 
REMARK    5  A    between atoms: C_9  and  C_10 
REMARK    6  A    between atoms: N_15  and  C_14 
REMARK    7  A    between atoms: N_20  and  C_19 
REMARK       I    between atoms: C_22  and  N_20 
ROOT
ATOM      1  C   LIG d   1      -5.529  74.867 116.871  0.00  0.00     0.161 C 
ATOM      2  C   LIG d   1      -6.237  73.690 116.579  0.00  0.00     0.016 C 
ATOM      3  C   LIG d   1      -7.639  73.572 116.710  0.00  0.00     0.038 C 
ATOM      4  C   LIG d   1      -8.452  74.678 117.001  0.00  0.00     0.028 C 
ATOM      5  C   LIG d   1      -7.735  75.764 117.796  0.00  0.00    -0.047 C 
ATOM      6  C   LIG d   1      -6.410  76.116 117.083  0.00  0.00     0.091 C 
ENDROOT
BRANCH   1   7
ATOM      7  O   LIG d   1      -4.547  75.115 115.846  0.00  0.00    -0.368 OA
BRANCH   7   8
ATOM      8  C   LIG d   1      -3.160  75.032 116.258  0.00  0.00     0.119 C 
BRANCH   8   9
ATOM      9  C   LIG d   1      -3.141  74.592 117.734  0.00  0.00     0.028 C 
ATOM     10  C   LIG d   1      -1.956  73.665 118.055  0.00  0.00     0.006 C 
ENDBRANCH   8   9
BRANCH   8  11
ATOM     11  C   LIG d   1      -2.490  76.409 116.237  0.00  0.00     0.028 C 
ATOM     12  C   LIG d   1      -1.194  76.429 115.411  0.00  0.00     0.006 C 
ENDBRANCH   8  11
ENDBRANCH   7   8
ENDBRANCH   1   7
BRANCH   6  13
ATOM     13  N   LIG d   1      -5.606  77.111 117.840  0.00  0.00    -0.311 N 
ATOM     14  C   LIG d   1      -5.602  78.413 117.563  0.00  0.00     0.210 C 
ATOM     15  C   LIG d   1      -4.687  79.261 118.453  0.00  0.00     0.109 C 
ATOM     16  O   LIG d   1      -6.293  78.952 116.686  0.00  0.00    -0.276 OA
ATOM     17  H   LIG d   1      -5.039  76.764 118.589  0.00  0.00     0.149 HD
ENDBRANCH   6  13
BRANCH   5  18
ATOM     18  N   LIG d   1      -8.654  76.913 117.909  0.00  0.00     0.381 N 
ATOM     19  H   LIG d   1      -9.428  76.790 117.289  0.00  0.00    -0.090 HD
ATOM     20  H   LIG d   1      -8.164  77.748 117.641  0.00  0.00    -0.090 HD
ATOM     21  H   LIG d   1      -8.980  76.997 118.847  0.00  0.00    -0.090 HD
ENDBRANCH   5  18
BRANCH   3  22
ATOM     22  C   LIG d   1      -8.239  72.328 116.589  0.00  0.00     0.382 C 
ATOM     23  O   LIG d   1      -9.490  72.231 116.605  0.00  0.00    -0.241 OA
ATOM     24  O   LIG d   1      -7.545  71.297 116.507  0.00  0.00    -0.241 OA
ENDBRANCH   3  22
TORSDOF 7
ENDMDL
MODEL 7
REMARK VINA RESULT:      -4.9      2.192      5.175
REMARK  7 active torsions:
REMARK  status: ('A' for Active; 'I' for Inactive)
REMARK    1  A    between atoms: C_2  and  C_3 
REMARK    2  A    between atoms: C_3  and  O_6 
REMARK    3  A    between atoms: C_3  and  C_4 
REMARK    4  A    between atoms: C_7  and  O_6 
REMARK    5  A    between atoms: C_9  and  C_10 
REMARK    6  A    between atoms: N_15  and  C_14 
REMARK    7  A    between atoms: N_20  and  C_19 
REMARK       I    between atoms: C_22  and  N_20 
ROOT
ATOM      1  C   LIG d   1      -4.291  75.201 116.710  0.00  0.00     0.161 C 
ATOM      2  C   LIG d   1      -3.285  74.419 116.118  0.00  0.00     0.016 C 
ATOM      3  C   LIG d   1      -1.904  74.653 116.310  0.00  0.00     0.038 C 
ATOM      4  C   LIG d   1      -1.433  75.598 117.233  0.00  0.00     0.028 C 
ATOM      5  C   LIG d   1      -2.406  76.748 117.473  0.00  0.00    -0.047 C 
ATOM      6  C   LIG d   1      -3.798  76.166 117.809  0.00  0.00     0.091 C 
ENDROOT
BRANCH   1   7
ATOM      7  O   LIG d   1      -5.333  74.348 117.224  0.00  0.00    -0.368 OA
BRANCH   7   8
ATOM      8  C   LIG d   1      -6.598  74.390 116.517  0.00  0.00     0.119 C 
BRANCH   8   9
ATOM      9  C   LIG d   1      -7.667  74.884 117.511  0.00  0.00     0.028 C 
ATOM     10  C   LIG d   1      -8.335  76.192 117.053  0.00  0.00     0.006 C 
ENDBRANCH   8   9
BRANCH   8  11
ATOM     11  C   LIG d   1      -7.049  72.988 116.099  0.00  0.00     0.028 C 
ATOM     12  C   LIG d   1      -8.441  72.624 116.640  0.00  0.00     0.006 C 
ENDBRANCH   8  11
ENDBRANCH   7   8
ENDBRANCH   1   7
BRANCH   6  13
ATOM     13  N   LIG d   1      -4.829  77.223 117.975  0.00  0.00    -0.311 N 
ATOM     14  C   LIG d   1      -5.090  78.145 117.049  0.00  0.00     0.210 C 
ATOM     15  C   LIG d   1      -6.177  79.154 117.431  0.00  0.00     0.109 C 
ATOM     16  O   LIG d   1      -4.546  78.203 115.936  0.00  0.00    -0.276 OA
ATOM     17  H   LIG d   1      -5.340  77.231 118.836  0.00  0.00     0.149 HD
ENDBRANCH   6  13
BRANCH   5  18
ATOM     18  N   LIG d   1      -1.851  77.582 118.555  0.00  0.00     0.381 N 
ATOM     19  H   LIG d   1      -2.103  77.197 119.443  0.00  0.00    -0.090 HD
ATOM     20  H   LIG d   1      -2.244  78.505 118.488  0.00  0.00    -0.090 HD
ATOM     21  H   LIG d   1      -0.859  77.630 118.475  0.00  0.00    -0.090 HD
ENDBRANCH   5  18
BRANCH   3  22
ATOM     22  C   LIG d   1      -0.977  73.964 115.542  0.00  0.00     0.382 C 
ATOM     23  O   LIG d   1      -0.525  72.864 115.943  0.00  0.00    -0.241 OA
ATOM     24  O   LIG d   1      -0.555  74.449 114.475  0.00  0.00    -0.241 OA
ENDBRANCH   3  22
TORSDOF 7
ENDMDL
MODEL 8
REMARK VINA RESULT:      -4.8      2.019      4.250
REMARK  7 active torsions:
REMARK  status: ('A' for Active; 'I' for Inactive)
REMARK    1  A    between atoms: C_2  and  C_3 
REMARK    2  A    between atoms: C_3  and  O_6 
REMARK    3  A    between atoms: C_3  and  C_4 
REMARK    4  A    between atoms: C_7  and  O_6 
REMARK    5  A    between atoms: C_9  and  C_10 
REMARK    6  A    between atoms: N_15  and  C_14 
REMARK    7  A    between atoms: N_20  and  C_19 
REMARK       I    between atoms: C_22  and  N_20 
ROOT
ATOM      1  C   LIG d   1      -5.884  76.583 117.333  0.00  0.00     0.161 C 
ATOM      2  C   LIG d   1      -7.198  77.011 117.589  0.00  0.00     0.016 C 
ATOM      3  C   LIG d   1      -8.323  76.158 117.514  0.00  0.00     0.038 C 
ATOM      4  C   LIG d   1      -8.193  74.775 117.324  0.00  0.00     0.028 C 
ATOM      5  C   LIG d   1      -6.932  74.384 116.560  0.00  0.00    -0.047 C 
ATOM      6  C   LIG d   1      -5.711  75.053 117.232  0.00  0.00     0.091 C 
ENDROOT
BRANCH   1   7
ATOM      7  O   LIG d   1      -4.991  77.125 118.326  0.00  0.00    -0.368 OA
BRANCH   7   8
ATOM      8  C   LIG d   1      -3.975  78.036 117.840  0.00  0.00     0.119 C 
BRANCH   8   9
ATOM      9  C   LIG d   1      -4.201  79.393 118.533  0.00  0.00     0.028 C 
ATOM     10  C   LIG d   1      -5.256  80.251 117.814  0.00  0.00     0.006 C 
ENDBRANCH   8   9
BRANCH   8  11
ATOM     11  C   LIG d   1      -4.143  78.311 116.343  0.00  0.00     0.028 C 
ATOM     12  C   LIG d   1      -2.864  78.031 115.538  0.00  0.00     0.006 C 
ENDBRANCH   8  11
ENDBRANCH   7   8
ENDBRANCH   1   7
BRANCH   6  13
ATOM     13  N   LIG d   1      -4.446  74.791 116.498  0.00  0.00    -0.311 N 
ATOM     14  C   LIG d   1      -3.306  74.452 117.099  0.00  0.00     0.210 C 
ATOM     15  C   LIG d   1      -2.115  74.247 116.158  0.00  0.00     0.109 C 
ATOM     16  O   LIG d   1      -3.177  74.269 118.319  0.00  0.00    -0.276 OA
ATOM     17  H   LIG d   1      -4.468  74.886 115.502  0.00  0.00     0.149 HD
ENDBRANCH   6  13
BRANCH   5  18
ATOM     18  N   LIG d   1      -6.853  72.911 116.554  0.00  0.00     0.381 N 
ATOM     19  H   LIG d   1      -6.340  72.596 117.353  0.00  0.00    -0.090 HD
ATOM     20  H   LIG d   1      -6.363  72.615 115.728  0.00  0.00    -0.090 HD
ATOM     21  H   LIG d   1      -7.769  72.521 116.563  0.00  0.00    -0.090 HD
ENDBRANCH   5  18
BRANCH   3  22
ATOM     22  C   LIG d   1      -9.599  76.696 117.591  0.00  0.00     0.382 C 
ATOM     23  O   LIG d   1     -10.591  76.006 117.252  0.00  0.00    -0.241 OA
ATOM     24  O   LIG d   1      -9.767  77.876 117.953  0.00  0.00    -0.241 OA
ENDBRANCH   3  22
TORSDOF 7
ENDMDL
MODEL 9
REMARK VINA RESULT:      -4.7      3.288      6.389
REMARK  7 active torsions:
REMARK  status: ('A' for Active; 'I' for Inactive)
REMARK    1  A    between atoms: C_2  and  C_3 
REMARK    2  A    between atoms: C_3  and  O_6 
REMARK    3  A    between atoms: C_3  and  C_4 
REMARK    4  A    between atoms: C_7  and  O_6 
REMARK    5  A    between atoms: C_9  and  C_10 
REMARK    6  A    between atoms: N_15  and  C_14 
REMARK    7  A    between atoms: N_20  and  C_19 
REMARK       I    between atoms: C_22  and  N_20 
ROOT
ATOM      1  C   LIG d   1      -2.760  75.107 116.033  0.00  0.00     0.161 C 
ATOM      2  C   LIG d   1      -1.932  74.065 115.584  0.00  0.00     0.016 C 
ATOM      3  C   LIG d   1      -0.571  74.244 115.244  0.00  0.00     0.038 C 
ATOM      4  C   LIG d   1       0.097  75.455 115.474  0.00  0.00     0.028 C 
ATOM      5  C   LIG d   1      -0.824  76.670 115.451  0.00  0.00    -0.047 C 
ATOM      6  C   LIG d   1      -2.020  76.411 116.396  0.00  0.00     0.091 C 
ENDROOT
BRANCH   1   7
ATOM      7  O   LIG d   1      -3.555  74.655 117.147  0.00  0.00    -0.368 OA
BRANCH   7   8
ATOM      8  C   LIG d   1      -4.990  74.778 116.998  0.00  0.00     0.119 C 
BRANCH   8   9
ATOM      9  C   LIG d   1      -5.637  73.610 117.767  0.00  0.00     0.028 C 
ATOM     10  C   LIG d   1      -6.750  72.920 116.960  0.00  0.00     0.006 C 
ENDBRANCH   8   9
BRANCH   8  11
ATOM     11  C   LIG d   1      -5.417  74.589 115.539  0.00  0.00     0.028 C 
ATOM     12  C   LIG d   1      -6.027  75.860 114.927  0.00  0.00     0.006 C 
ENDBRANCH   8  11
ENDBRANCH   7   8
ENDBRANCH   1   7
BRANCH   6  13
ATOM     13  N   LIG d   1      -3.014  77.515 116.368  0.00  0.00    -0.311 N 
ATOM     14  C   LIG d   1      -3.032  78.508 117.256  0.00  0.00     0.210 C 
ATOM     15  C   LIG d   1      -4.153  79.533 117.058  0.00  0.00     0.109 C 
ATOM     16  O   LIG d   1      -2.206  78.655 118.170  0.00  0.00    -0.276 OA
ATOM     17  H   LIG d   1      -3.702  77.492 115.641  0.00  0.00     0.149 HD
ENDBRANCH   6  13
BRANCH   5  18
ATOM     18  N   LIG d   1      -0.023  77.845 115.841  0.00  0.00     0.381 N 
ATOM     19  H   LIG d   1       0.165  78.409 115.036  0.00  0.00    -0.090 HD
ATOM     20  H   LIG d   1       0.854  77.530 116.217  0.00  0.00    -0.090 HD
ATOM     21  H   LIG d   1      -0.512  78.380 116.524  0.00  0.00    -0.090 HD
ENDBRANCH   5  18
BRANCH   3  22
ATOM     22  C   LIG d   1       0.124  73.214 114.628  0.00  0.00     0.382 C 
ATOM     23  O   LIG d   1       0.005  72.038 115.049  0.00  0.00    -0.241 OA
ATOM     24  O   LIG d   1       0.904  73.453 113.687  0.00  0.00    -0.241 OA
ENDBRANCH   3  22
TORSDOF 7
ENDMDL
