MODEL 1
REMARK VINA RESULT:      -6.0      0.000      0.000
REMARK  7 active torsions:
REMARK  status: ('A' for Active; 'I' for Inactive)
REMARK    1  A    between atoms: C_2  and  C_3 
REMARK    2  A    between atoms: C_3  and  O_6 
REMARK    3  A    between atoms: C_3  and  C_4 
REMARK    4  A    between atoms: C_7  and  O_6 
REMARK    5  A    between atoms: C_9  and  C_10 
REMARK    6  A    between atoms: N_15  and  C_14 
REMARK    7  A    between atoms: N_20  and  C_19 
REMARK       I    between atoms: C_22  and  N_20 
ROOT
ATOM      1  C   LIG d   1      -2.877  77.351 115.955  0.00  0.00     0.161 C 
ATOM      2  C   LIG d   1      -3.134  78.313 114.964  0.00  0.00     0.016 C 
ATOM      3  C   LIG d   1      -2.368  78.437 113.782  0.00  0.00     0.038 C 
ATOM      4  C   LIG d   1      -1.379  77.503 113.438  0.00  0.00     0.028 C 
ATOM      5  C   LIG d   1      -0.749  76.817 114.645  0.00  0.00    -0.047 C 
ATOM      6  C   LIG d   1      -1.872  76.253 115.546  0.00  0.00     0.091 C 
ENDROOT
BRANCH   1   7
ATOM      7  O   LIG d   1      -4.115  76.758 116.394  0.00  0.00    -0.368 OA
BRANCH   7   8
ATOM      8  C   LIG d   1      -4.997  76.277 115.350  0.00  0.00     0.119 C 
BRANCH   8   9
ATOM      9  C   LIG d   1      -6.444  76.526 115.816  0.00  0.00     0.028 C 
ATOM     10  C   LIG d   1      -6.509  77.325 117.128  0.00  0.00     0.006 C 
ENDBRANCH   8   9
BRANCH   8  11
ATOM     11  C   LIG d   1      -4.881  74.760 115.178  0.00  0.00     0.028 C 
ATOM     12  C   LIG d   1      -6.230  74.039 115.329  0.00  0.00     0.006 C 
ENDBRANCH   8  11
ENDBRANCH   7   8
ENDBRANCH   1   7
BRANCH   6  13
ATOM     13  N   LIG d   1      -1.345  75.638 116.792  0.00  0.00    -0.311 N 
ATOM     14  C   LIG d   1      -1.009  74.353 116.890  0.00  0.00     0.210 C 
ATOM     15  C   LIG d   1      -0.506  73.920 118.270  0.00  0.00     0.109 C 
ATOM     16  O   LIG d   1      -1.050  73.539 115.956  0.00  0.00    -0.276 OA
ATOM     17  H   LIG d   1      -1.250  76.235 117.590  0.00  0.00     0.149 HD
ENDBRANCH   6  13
BRANCH   5  18
ATOM     18  N   LIG d   1       0.163  75.774 114.138  0.00  0.00     0.381 N 
ATOM     19  H   LIG d   1       1.025  76.190 113.847  0.00  0.00    -0.090 HD
ATOM     20  H   LIG d   1      -0.259  75.332 113.341  0.00  0.00    -0.090 HD
ATOM     21  H   LIG d   1       0.337  75.098 114.849  0.00  0.00    -0.090 HD
ENDBRANCH   5  18
BRANCH   3  22
ATOM     22  C   LIG d   1      -2.562  79.528 112.949  0.00  0.00     0.382 C 
ATOM     23  O   LIG d   1      -2.001  79.568 111.828  0.00  0.00    -0.241 OA
ATOM     24  O   LIG d   1      -3.257  80.492 113.323  0.00  0.00    -0.241 OA
ENDBRANCH   3  22
TORSDOF 7
ENDMDL
MODEL 2
REMARK VINA RESULT:      -4.8      8.697     10.783
REMARK  7 active torsions:
REMARK  status: ('A' for Active; 'I' for Inactive)
REMARK    1  A    between atoms: C_2  and  C_3 
REMARK    2  A    between atoms: C_3  and  O_6 
REMARK    3  A    between atoms: C_3  and  C_4 
REMARK    4  A    between atoms: C_7  and  O_6 
REMARK    5  A    between atoms: C_9  and  C_10 
REMARK    6  A    between atoms: N_15  and  C_14 
REMARK    7  A    between atoms: N_20  and  C_19 
REMARK       I    between atoms: C_22  and  N_20 
ROOT
ATOM      1  C   LIG d   1       2.834  85.473 114.078  0.00  0.00     0.161 C 
ATOM      2  C   LIG d   1       3.310  86.785 113.920  0.00  0.00     0.016 C 
ATOM      3  C   LIG d   1       4.041  87.472 114.916  0.00  0.00     0.038 C 
ATOM      4  C   LIG d   1       4.479  86.836 116.087  0.00  0.00     0.028 C 
ATOM      5  C   LIG d   1       3.591  85.670 116.510  0.00  0.00    -0.047 C 
ATOM      6  C   LIG d   1       3.397  84.723 115.304  0.00  0.00     0.091 C 
ENDROOT
BRANCH   1   7
ATOM      7  O   LIG d   1       3.076  84.717 112.875  0.00  0.00    -0.368 OA
BRANCH   7   8
ATOM      8  C   LIG d   1       1.910  84.400 112.076  0.00  0.00     0.119 C 
BRANCH   8   9
ATOM      9  C   LIG d   1       0.665  84.744 112.917  0.00  0.00     0.028 C 
ATOM     10  C   LIG d   1      -0.400  85.502 112.106  0.00  0.00     0.006 C 
ENDBRANCH   8   9
BRANCH   8  11
ATOM     11  C   LIG d   1       1.813  82.895 111.805  0.00  0.00     0.028 C 
ATOM     12  C   LIG d   1       3.179  82.192 111.850  0.00  0.00     0.006 C 
ENDBRANCH   8  11
ENDBRANCH   7   8
ENDBRANCH   1   7
BRANCH   6  13
ATOM     13  N   LIG d   1       2.473  83.600 115.608  0.00  0.00    -0.311 N 
ATOM     14  C   LIG d   1       2.834  82.319 115.555  0.00  0.00     0.210 C 
ATOM     15  C   LIG d   1       1.721  81.320 115.886  0.00  0.00     0.109 C 
ATOM     16  O   LIG d   1       3.978  81.917 115.296  0.00  0.00    -0.276 OA
ATOM     17  H   LIG d   1       1.533  83.838 115.857  0.00  0.00     0.149 HD
ENDBRANCH   6  13
BRANCH   5  18
ATOM     18  N   LIG d   1       4.238  85.013 117.662  0.00  0.00     0.381 N 
ATOM     19  H   LIG d   1       4.389  84.045 117.459  0.00  0.00    -0.090 HD
ATOM     20  H   LIG d   1       3.627  85.077 118.458  0.00  0.00    -0.090 HD
ATOM     21  H   LIG d   1       5.106  85.457 117.865  0.00  0.00    -0.090 HD
ENDBRANCH   5  18
BRANCH   3  22
ATOM     22  C   LIG d   1       4.308  88.825 114.763  0.00  0.00     0.382 C 
ATOM     23  O   LIG d   1       4.439  89.311 113.614  0.00  0.00    -0.241 OA
ATOM     24  O   LIG d   1       4.462  89.555 115.760  0.00  0.00    -0.241 OA
ENDBRANCH   3  22
TORSDOF 7
ENDMDL
MODEL 3
REMARK VINA RESULT:      -4.7     21.256     23.237
REMARK  7 active torsions:
REMARK  status: ('A' for Active; 'I' for Inactive)
REMARK    1  A    between atoms: C_2  and  C_3 
REMARK    2  A    between atoms: C_3  and  O_6 
REMARK    3  A    between atoms: C_3  and  C_4 
REMARK    4  A    between atoms: C_7  and  O_6 
REMARK    5  A    between atoms: C_9  and  C_10 
REMARK    6  A    between atoms: N_15  and  C_14 
REMARK    7  A    between atoms: N_20  and  C_19 
REMARK       I    between atoms: C_22  and  N_20 
ROOT
ATOM      1  C   LIG d   1     -23.859  83.790 113.951  0.00  0.00     0.161 C 
ATOM      2  C   LIG d   1     -22.971  84.873 114.066  0.00  0.00     0.016 C 
ATOM      3  C   LIG d   1     -23.394  86.213 114.220  0.00  0.00     0.038 C 
ATOM      4  C   LIG d   1     -24.741  86.547 114.422  0.00  0.00     0.028 C 
ATOM      5  C   LIG d   1     -25.712  85.543 113.810  0.00  0.00    -0.047 C 
ATOM      6  C   LIG d   1     -25.329  84.122 114.281  0.00  0.00     0.091 C 
ENDROOT
BRANCH   1   7
ATOM      7  O   LIG d   1     -23.399  82.692 114.764  0.00  0.00    -0.368 OA
BRANCH   7   8
ATOM      8  C   LIG d   1     -23.669  82.793 116.184  0.00  0.00     0.119 C 
BRANCH   8   9
ATOM      9  C   LIG d   1     -22.312  82.786 116.915  0.00  0.00     0.028 C 
ATOM     10  C   LIG d   1     -22.326  83.652 118.186  0.00  0.00     0.006 C 
ENDBRANCH   8   9
BRANCH   8  11
ATOM     11  C   LIG d   1     -24.413  81.557 116.699  0.00  0.00     0.028 C 
ATOM     12  C   LIG d   1     -24.383  80.387 115.704  0.00  0.00     0.006 C 
ENDBRANCH   8  11
ENDBRANCH   7   8
ENDBRANCH   1   7
BRANCH   6  13
ATOM     13  N   LIG d   1     -26.177  83.071 113.661  0.00  0.00    -0.311 N 
ATOM     14  C   LIG d   1     -27.223  82.518 114.272  0.00  0.00     0.210 C 
ATOM     15  C   LIG d   1     -27.949  81.439 113.463  0.00  0.00     0.109 C 
ATOM     16  O   LIG d   1     -27.638  82.841 115.396  0.00  0.00    -0.276 OA
ATOM     17  H   LIG d   1     -25.931  82.771 112.738  0.00  0.00     0.149 HD
ENDBRANCH   6  13
BRANCH   5  18
ATOM     18  N   LIG d   1     -27.075  85.939 114.213  0.00  0.00     0.381 N 
ATOM     19  H   LIG d   1     -27.661  86.007 113.405  0.00  0.00    -0.090 HD
ATOM     20  H   LIG d   1     -27.035  86.842 114.651  0.00  0.00    -0.090 HD
ATOM     21  H   LIG d   1     -27.450  85.269 114.848  0.00  0.00    -0.090 HD
ENDBRANCH   5  18
BRANCH   3  22
ATOM     22  C   LIG d   1     -22.467  87.240 114.132  0.00  0.00     0.382 C 
ATOM     23  O   LIG d   1     -21.508  87.153 113.327  0.00  0.00    -0.241 OA
ATOM     24  O   LIG d   1     -22.551  88.233 114.879  0.00  0.00    -0.241 OA
ENDBRANCH   3  22
TORSDOF 7
ENDMDL
MODEL 4
REMARK VINA RESULT:      -4.6      8.648     10.710
REMARK  7 active torsions:
REMARK  status: ('A' for Active; 'I' for Inactive)
REMARK    1  A    between atoms: C_2  and  C_3 
REMARK    2  A    between atoms: C_3  and  O_6 
REMARK    3  A    between atoms: C_3  and  C_4 
REMARK    4  A    between atoms: C_7  and  O_6 
REMARK    5  A    between atoms: C_9  and  C_10 
REMARK    6  A    between atoms: N_15  and  C_14 
REMARK    7  A    between atoms: N_20  and  C_19 
REMARK       I    between atoms: C_22  and  N_20 
ROOT
ATOM      1  C   LIG d   1       3.499  85.037 115.136  0.00  0.00     0.161 C 
ATOM      2  C   LIG d   1       3.954  86.351 115.338  0.00  0.00     0.016 C 
ATOM      3  C   LIG d   1       3.677  87.416 114.450  0.00  0.00     0.038 C 
ATOM      4  C   LIG d   1       2.794  87.270 113.370  0.00  0.00     0.028 C 
ATOM      5  C   LIG d   1       2.714  85.842 112.841  0.00  0.00    -0.047 C 
ATOM      6  C   LIG d   1       2.441  84.883 114.023  0.00  0.00     0.091 C 
ENDROOT
BRANCH   1   7
ATOM      7  O   LIG d   1       3.003  84.496 116.377  0.00  0.00    -0.368 OA
BRANCH   7   8
ATOM      8  C   LIG d   1       1.566  84.536 116.560  0.00  0.00     0.119 C 
BRANCH   8   9
ATOM      9  C   LIG d   1       1.273  85.533 117.699  0.00  0.00     0.028 C 
ATOM     10  C   LIG d   1       0.773  86.890 117.177  0.00  0.00     0.006 C 
ENDBRANCH   8   9
BRANCH   8  11
ATOM     11  C   LIG d   1       1.029  83.189 117.052  0.00  0.00     0.028 C 
ATOM     12  C   LIG d   1       2.071  82.063 116.961  0.00  0.00     0.006 C 
ENDBRANCH   8  11
ENDBRANCH   7   8
ENDBRANCH   1   7
BRANCH   6  13
ATOM     13  N   LIG d   1       2.432  83.457 113.606  0.00  0.00    -0.311 N 
ATOM     14  C   LIG d   1       1.346  82.832 113.154  0.00  0.00     0.210 C 
ATOM     15  C   LIG d   1       1.550  81.356 112.797  0.00  0.00     0.109 C 
ATOM     16  O   LIG d   1       0.241  83.368 112.985  0.00  0.00    -0.276 OA
ATOM     17  H   LIG d   1       3.295  82.954 113.680  0.00  0.00     0.149 HD
ENDBRANCH   6  13
BRANCH   5  18
ATOM     18  N   LIG d   1       1.659  85.806 111.812  0.00  0.00     0.381 N 
ATOM     19  H   LIG d   1       0.766  85.960 112.237  0.00  0.00    -0.090 HD
ATOM     20  H   LIG d   1       1.652  84.896 111.385  0.00  0.00    -0.090 HD
ATOM     21  H   LIG d   1       1.831  86.503 111.122  0.00  0.00    -0.090 HD
ENDBRANCH   5  18
BRANCH   3  22
ATOM     22  C   LIG d   1       4.320  88.633 114.616  0.00  0.00     0.382 C 
ATOM     23  O   LIG d   1       4.509  89.382 113.627  0.00  0.00    -0.241 OA
ATOM     24  O   LIG d   1       4.751  88.973 115.734  0.00  0.00    -0.241 OA
ENDBRANCH   3  22
TORSDOF 7
ENDMDL
MODEL 5
REMARK VINA RESULT:      -4.5     21.082     23.274
REMARK  7 active torsions:
REMARK  status: ('A' for Active; 'I' for Inactive)
REMARK    1  A    between atoms: C_2  and  C_3 
REMARK    2  A    between atoms: C_3  and  O_6 
REMARK    3  A    between atoms: C_3  and  C_4 
REMARK    4  A    between atoms: C_7  and  O_6 
REMARK    5  A    between atoms: C_9  and  C_10 
REMARK    6  A    between atoms: N_15  and  C_14 
REMARK    7  A    between atoms: N_20  and  C_19 
REMARK       I    between atoms: C_22  and  N_20 
ROOT
ATOM      1  C   LIG d   1     -24.096  84.029 115.057  0.00  0.00     0.161 C 
ATOM      2  C   LIG d   1     -23.262  85.159 115.081  0.00  0.00     0.016 C 
ATOM      3  C   LIG d   1     -23.467  86.295 114.263  0.00  0.00     0.038 C 
ATOM      4  C   LIG d   1     -24.614  86.439 113.469  0.00  0.00     0.028 C 
ATOM      5  C   LIG d   1     -25.220  85.110 113.033  0.00  0.00    -0.047 C 
ATOM      6  C   LIG d   1     -25.415  84.214 114.278  0.00  0.00     0.091 C 
ENDROOT
BRANCH   1   7
ATOM      7  O   LIG d   1     -24.366  83.592 116.403  0.00  0.00    -0.368 OA
BRANCH   7   8
ATOM      8  C   LIG d   1     -23.644  82.418 116.850  0.00  0.00     0.119 C 
BRANCH   8   9
ATOM      9  C   LIG d   1     -24.636  81.239 116.855  0.00  0.00     0.028 C 
ATOM     10  C   LIG d   1     -24.338  80.217 115.745  0.00  0.00     0.006 C 
ENDBRANCH   8   9
BRANCH   8  11
ATOM     11  C   LIG d   1     -23.184  82.567 118.303  0.00  0.00     0.028 C 
ATOM     12  C   LIG d   1     -21.743  83.089 118.421  0.00  0.00     0.006 C 
ENDBRANCH   8  11
ENDBRANCH   7   8
ENDBRANCH   1   7
BRANCH   6  13
ATOM     13  N   LIG d   1     -25.925  82.863 113.930  0.00  0.00    -0.311 N 
ATOM     14  C   LIG d   1     -27.216  82.534 113.969  0.00  0.00     0.210 C 
ATOM     15  C   LIG d   1     -27.525  81.082 113.591  0.00  0.00     0.109 C 
ATOM     16  O   LIG d   1     -28.137  83.316 114.249  0.00  0.00    -0.276 OA
ATOM     17  H   LIG d   1     -25.249  82.175 113.660  0.00  0.00     0.149 HD
ENDBRANCH   6  13
BRANCH   5  18
ATOM     18  N   LIG d   1     -26.483  85.405 112.330  0.00  0.00     0.381 N 
ATOM     19  H   LIG d   1     -27.030  84.571 112.251  0.00  0.00    -0.090 HD
ATOM     20  H   LIG d   1     -26.271  85.732 111.404  0.00  0.00    -0.090 HD
ATOM     21  H   LIG d   1     -26.995  86.100 112.827  0.00  0.00    -0.090 HD
ENDBRANCH   5  18
BRANCH   3  22
ATOM     22  C   LIG d   1     -22.497  87.283 114.205  0.00  0.00     0.382 C 
ATOM     23  O   LIG d   1     -21.507  87.147 113.446  0.00  0.00    -0.241 OA
ATOM     24  O   LIG d   1     -22.576  88.290 114.935  0.00  0.00    -0.241 OA
ENDBRANCH   3  22
TORSDOF 7
ENDMDL
MODEL 6
REMARK VINA RESULT:      -4.5     14.190     16.465
REMARK  7 active torsions:
REMARK  status: ('A' for Active; 'I' for Inactive)
REMARK    1  A    between atoms: C_2  and  C_3 
REMARK    2  A    between atoms: C_3  and  O_6 
REMARK    3  A    between atoms: C_3  and  C_4 
REMARK    4  A    between atoms: C_7  and  O_6 
REMARK    5  A    between atoms: C_9  and  C_10 
REMARK    6  A    between atoms: N_15  and  C_14 
REMARK    7  A    between atoms: N_20  and  C_19 
REMARK       I    between atoms: C_22  and  N_20 
ROOT
ATOM      1  C   LIG d   1      12.870  76.468 114.303  0.00  0.00     0.161 C 
ATOM      2  C   LIG d   1      11.479  76.630 114.415  0.00  0.00     0.016 C 
ATOM      3  C   LIG d   1      10.810  77.840 114.119  0.00  0.00     0.038 C 
ATOM      4  C   LIG d   1      11.475  78.932 113.541  0.00  0.00     0.028 C 
ATOM      5  C   LIG d   1      12.960  78.987 113.881  0.00  0.00    -0.047 C 
ATOM      6  C   LIG d   1      13.597  77.614 113.569  0.00  0.00     0.091 C 
ENDROOT
BRANCH   1   7
ATOM      7  O   LIG d   1      13.166  75.204 113.677  0.00  0.00    -0.368 OA
BRANCH   7   8
ATOM      8  C   LIG d   1      13.283  74.065 114.565  0.00  0.00     0.119 C 
BRANCH   8   9
ATOM      9  C   LIG d   1      14.705  73.494 114.399  0.00  0.00     0.028 C 
ATOM     10  C   LIG d   1      15.385  73.978 113.107  0.00  0.00     0.006 C 
ENDBRANCH   8   9
BRANCH   8  11
ATOM     11  C   LIG d   1      12.340  72.933 114.148  0.00  0.00     0.028 C 
ATOM     12  C   LIG d   1      12.234  71.825 115.207  0.00  0.00     0.006 C 
ENDBRANCH   8  11
ENDBRANCH   7   8
ENDBRANCH   1   7
BRANCH   6  13
ATOM     13  N   LIG d   1      15.032  77.554 113.952  0.00  0.00    -0.311 N 
ATOM     14  C   LIG d   1      16.027  77.835 113.112  0.00  0.00     0.210 C 
ATOM     15  C   LIG d   1      17.433  77.692 113.705  0.00  0.00     0.109 C 
ATOM     16  O   LIG d   1      15.879  78.219 111.943  0.00  0.00    -0.276 OA
ATOM     17  H   LIG d   1      15.242  77.281 114.892  0.00  0.00     0.149 HD
ENDBRANCH   6  13
BRANCH   5  18
ATOM     18  N   LIG d   1      13.555  80.091 113.105  0.00  0.00     0.381 N 
ATOM     19  H   LIG d   1      13.400  80.959 113.577  0.00  0.00    -0.090 HD
ATOM     20  H   LIG d   1      13.107  80.135 112.207  0.00  0.00    -0.090 HD
ATOM     21  H   LIG d   1      14.533  79.938 112.989  0.00  0.00    -0.090 HD
ENDBRANCH   5  18
BRANCH   3  22
ATOM     22  C   LIG d   1       9.468  77.980 114.437  0.00  0.00     0.382 C 
ATOM     23  O   LIG d   1       9.079  78.980 115.088  0.00  0.00    -0.241 OA
ATOM     24  O   LIG d   1       8.649  77.096 114.122  0.00  0.00    -0.241 OA
ENDBRANCH   3  22
TORSDOF 7
ENDMDL
MODEL 7
REMARK VINA RESULT:      -4.4      2.846      4.519
REMARK  7 active torsions:
REMARK  status: ('A' for Active; 'I' for Inactive)
REMARK    1  A    between atoms: C_2  and  C_3 
REMARK    2  A    between atoms: C_3  and  O_6 
REMARK    3  A    between atoms: C_3  and  C_4 
REMARK    4  A    between atoms: C_7  and  O_6 
REMARK    5  A    between atoms: C_9  and  C_10 
REMARK    6  A    between atoms: N_15  and  C_14 
REMARK    7  A    between atoms: N_20  and  C_19 
REMARK       I    between atoms: C_22  and  N_20 
ROOT
ATOM      1  C   LIG d   1      -1.198  77.712 115.242  0.00  0.00     0.161 C 
ATOM      2  C   LIG d   1      -2.519  77.399 114.878  0.00  0.00     0.016 C 
ATOM      3  C   LIG d   1      -3.090  76.118 115.050  0.00  0.00     0.038 C 
ATOM      4  C   LIG d   1      -2.423  75.095 115.741  0.00  0.00     0.028 C 
ATOM      5  C   LIG d   1      -0.904  75.211 115.677  0.00  0.00    -0.047 C 
ATOM      6  C   LIG d   1      -0.492  76.640 116.099  0.00  0.00     0.091 C 
ENDROOT
BRANCH   1   7
ATOM      7  O   LIG d   1      -1.165  78.989 115.909  0.00  0.00    -0.368 OA
BRANCH   7   8
ATOM      8  C   LIG d   1      -1.289  78.958 117.352  0.00  0.00     0.119 C 
BRANCH   8   9
ATOM      9  C   LIG d   1      -2.628  79.628 117.716  0.00  0.00     0.028 C 
ATOM     10  C   LIG d   1      -3.676  78.616 118.210  0.00  0.00     0.006 C 
ENDBRANCH   8   9
BRANCH   8  11
ATOM     11  C   LIG d   1      -0.211  79.814 118.024  0.00  0.00     0.028 C 
ATOM     12  C   LIG d   1       0.750  80.461 117.014  0.00  0.00     0.006 C 
ENDBRANCH   8  11
ENDBRANCH   7   8
ENDBRANCH   1   7
BRANCH   6  13
ATOM     13  N   LIG d   1       0.972  76.865 115.983  0.00  0.00    -0.311 N 
ATOM     14  C   LIG d   1       1.812  76.769 117.012  0.00  0.00     0.210 C 
ATOM     15  C   LIG d   1       3.279  77.060 116.679  0.00  0.00     0.109 C 
ATOM     16  O   LIG d   1       1.486  76.440 118.163  0.00  0.00    -0.276 OA
ATOM     17  H   LIG d   1       1.327  77.107 115.078  0.00  0.00     0.149 HD
ENDBRANCH   6  13
BRANCH   5  18
ATOM     18  N   LIG d   1      -0.340  74.165 116.551  0.00  0.00     0.381 N 
ATOM     19  H   LIG d   1      -0.443  73.270 116.118  0.00  0.00    -0.090 HD
ATOM     20  H   LIG d   1      -0.848  74.157 117.418  0.00  0.00    -0.090 HD
ATOM     21  H   LIG d   1       0.624  74.349 116.724  0.00  0.00    -0.090 HD
ENDBRANCH   5  18
BRANCH   3  22
ATOM     22  C   LIG d   1      -4.328  75.837 114.493  0.00  0.00     0.382 C 
ATOM     23  O   LIG d   1      -4.759  76.532 113.541  0.00  0.00    -0.241 OA
ATOM     24  O   LIG d   1      -5.039  74.925 114.958  0.00  0.00    -0.241 OA
ENDBRANCH   3  22
TORSDOF 7
ENDMDL
MODEL 8
REMARK VINA RESULT:      -4.2      2.457      5.210
REMARK  7 active torsions:
REMARK  status: ('A' for Active; 'I' for Inactive)
REMARK    1  A    between atoms: C_2  and  C_3 
REMARK    2  A    between atoms: C_3  and  O_6 
REMARK    3  A    between atoms: C_3  and  C_4 
REMARK    4  A    between atoms: C_7  and  O_6 
REMARK    5  A    between atoms: C_9  and  C_10 
REMARK    6  A    between atoms: N_15  and  C_14 
REMARK    7  A    between atoms: N_20  and  C_19 
REMARK       I    between atoms: C_22  and  N_20 
ROOT
ATOM      1  C   LIG d   1      -2.926  76.283 115.105  0.00  0.00     0.161 C 
ATOM      2  C   LIG d   1      -4.174  75.707 114.813  0.00  0.00     0.016 C 
ATOM      3  C   LIG d   1      -5.365  76.043 115.496  0.00  0.00     0.038 C 
ATOM      4  C   LIG d   1      -5.417  77.095 116.423  0.00  0.00     0.028 C 
ATOM      5  C   LIG d   1      -4.083  77.362 117.112  0.00  0.00    -0.047 C 
ATOM      6  C   LIG d   1      -2.983  77.513 116.035  0.00  0.00     0.091 C 
ENDROOT
BRANCH   1   7
ATOM      7  O   LIG d   1      -2.242  76.614 113.880  0.00  0.00    -0.368 OA
BRANCH   7   8
ATOM      8  C   LIG d   1      -2.524  77.923 113.325  0.00  0.00     0.119 C 
BRANCH   8   9
ATOM      9  C   LIG d   1      -3.036  77.715 111.887  0.00  0.00     0.028 C 
ATOM     10  C   LIG d   1      -4.571  77.697 111.807  0.00  0.00     0.006 C 
ENDBRANCH   8   9
BRANCH   8  11
ATOM     11  C   LIG d   1      -1.247  78.756 113.186  0.00  0.00     0.028 C 
ATOM     12  C   LIG d   1      -1.456  80.033 112.357  0.00  0.00     0.006 C 
ENDBRANCH   8  11
ENDBRANCH   7   8
ENDBRANCH   1   7
BRANCH   6  13
ATOM     13  N   LIG d   1      -1.632  77.692 116.627  0.00  0.00    -0.311 N 
ATOM     14  C   LIG d   1      -1.076  78.884 116.837  0.00  0.00     0.210 C 
ATOM     15  C   LIG d   1       0.332  78.844 117.438  0.00  0.00     0.109 C 
ATOM     16  O   LIG d   1      -1.629  79.972 116.613  0.00  0.00    -0.276 OA
ATOM     17  H   LIG d   1      -1.125  76.863 116.868  0.00  0.00     0.149 HD
ENDBRANCH   6  13
BRANCH   5  18
ATOM     18  N   LIG d   1      -4.245  78.567 117.946  0.00  0.00     0.381 N 
ATOM     19  H   LIG d   1      -3.463  79.177 117.815  0.00  0.00    -0.090 HD
ATOM     20  H   LIG d   1      -4.273  78.293 118.912  0.00  0.00    -0.090 HD
ATOM     21  H   LIG d   1      -5.088  79.040 117.702  0.00  0.00    -0.090 HD
ENDBRANCH   5  18
BRANCH   3  22
ATOM     22  C   LIG d   1      -6.513  75.295 115.284  0.00  0.00     0.382 C 
ATOM     23  O   LIG d   1      -7.624  75.868 115.175  0.00  0.00    -0.241 OA
ATOM     24  O   LIG d   1      -6.458  74.051 115.244  0.00  0.00    -0.241 OA
ENDBRANCH   3  22
TORSDOF 7
ENDMDL
MODEL 9
REMARK VINA RESULT:      -4.2     21.236     23.399
REMARK  7 active torsions:
REMARK  status: ('A' for Active; 'I' for Inactive)
REMARK    1  A    between atoms: C_2  and  C_3 
REMARK    2  A    between atoms: C_3  and  O_6 
REMARK    3  A    between atoms: C_3  and  C_4 
REMARK    4  A    between atoms: C_7  and  O_6 
REMARK    5  A    between atoms: C_9  and  C_10 
REMARK    6  A    between atoms: N_15  and  C_14 
REMARK    7  A    between atoms: N_20  and  C_19 
REMARK       I    between atoms: C_22  and  N_20 
ROOT
ATOM      1  C   LIG d   1     -25.078  84.627 114.533  0.00  0.00     0.161 C 
ATOM      2  C   LIG d   1     -24.334  85.745 114.121  0.00  0.00     0.016 C 
ATOM      3  C   LIG d   1     -22.975  85.943 114.456  0.00  0.00     0.038 C 
ATOM      4  C   LIG d   1     -22.219  84.953 115.103  0.00  0.00     0.028 C 
ATOM      5  C   LIG d   1     -23.057  84.028 115.978  0.00  0.00    -0.047 C 
ATOM      6  C   LIG d   1     -24.240  83.484 115.146  0.00  0.00     0.091 C 
ENDROOT
BRANCH   1   7
ATOM      7  O   LIG d   1     -25.869  84.134 113.434  0.00  0.00    -0.368 OA
BRANCH   7   8
ATOM      8  C   LIG d   1     -27.295  84.383 113.514  0.00  0.00     0.119 C 
BRANCH   8   9
ATOM      9  C   LIG d   1     -28.009  83.205 112.823  0.00  0.00     0.028 C 
ATOM     10  C   LIG d   1     -27.572  81.842 113.385  0.00  0.00     0.006 C 
ENDBRANCH   8   9
BRANCH   8  11
ATOM     11  C   LIG d   1     -27.689  85.625 112.710  0.00  0.00     0.028 C 
ATOM     12  C   LIG d   1     -28.217  86.765 113.595  0.00  0.00     0.006 C 
ENDBRANCH   8  11
ENDBRANCH   7   8
ENDBRANCH   1   7
BRANCH   6  13
ATOM     13  N   LIG d   1     -25.158  82.636 115.951  0.00  0.00    -0.311 N 
ATOM     14  C   LIG d   1     -25.034  81.314 116.052  0.00  0.00     0.210 C 
ATOM     15  C   LIG d   1     -26.098  80.629 116.916  0.00  0.00     0.109 C 
ATOM     16  O   LIG d   1     -24.125  80.647 115.535  0.00  0.00    -0.276 OA
ATOM     17  H   LIG d   1     -25.905  83.099 116.429  0.00  0.00     0.149 HD
ENDBRANCH   6  13
BRANCH   5  18
ATOM     18  N   LIG d   1     -22.167  82.964 116.481  0.00  0.00     0.381 N 
ATOM     19  H   LIG d   1     -21.430  83.368 117.024  0.00  0.00    -0.090 HD
ATOM     20  H   LIG d   1     -21.757  82.486 115.698  0.00  0.00    -0.090 HD
ATOM     21  H   LIG d   1     -22.685  82.321 117.038  0.00  0.00    -0.090 HD
ENDBRANCH   5  18
BRANCH   3  22
ATOM     22  C   LIG d   1     -22.368  87.158 114.177  0.00  0.00     0.382 C 
ATOM     23  O   LIG d   1     -22.751  88.199 114.763  0.00  0.00    -0.241 OA
ATOM     24  O   LIG d   1     -21.472  87.233 113.315  0.00  0.00    -0.241 OA
ENDBRANCH   3  22
TORSDOF 7
ENDMDL
