MODEL 1
REMARK VINA RESULT:      -5.7      0.000      0.000
REMARK  7 active torsions:
REMARK  status: ('A' for Active; 'I' for Inactive)
REMARK    1  A    between atoms: C_2  and  C_3 
REMARK    2  A    between atoms: C_3  and  O_6 
REMARK    3  A    between atoms: C_3  and  C_4 
REMARK    4  A    between atoms: C_7  and  O_6 
REMARK    5  A    between atoms: C_9  and  C_10 
REMARK    6  A    between atoms: N_15  and  C_14 
REMARK    7  A    between atoms: N_20  and  C_19 
REMARK       I    between atoms: C_22  and  N_20 
ROOT
ATOM      1  C   LIG d   1      -2.466  78.230 114.921  0.00  0.00     0.161 C 
ATOM      2  C   LIG d   1      -2.782  79.327 114.102  0.00  0.00     0.016 C 
ATOM      3  C   LIG d   1      -1.820  80.252 113.636  0.00  0.00     0.038 C 
ATOM      4  C   LIG d   1      -0.445  80.055 113.835  0.00  0.00     0.028 C 
ATOM      5  C   LIG d   1      -0.124  79.238 115.081  0.00  0.00    -0.047 C 
ATOM      6  C   LIG d   1      -0.958  77.936 115.056  0.00  0.00     0.091 C 
ENDROOT
BRANCH   1   7
ATOM      7  O   LIG d   1      -3.165  77.057 114.458  0.00  0.00    -0.368 OA
BRANCH   7   8
ATOM      8  C   LIG d   1      -4.092  76.456 115.395  0.00  0.00     0.119 C 
BRANCH   8   9
ATOM      9  C   LIG d   1      -4.142  74.946 115.093  0.00  0.00     0.028 C 
ATOM     10  C   LIG d   1      -5.437  74.288 115.598  0.00  0.00     0.006 C 
ENDBRANCH   8   9
BRANCH   8  11
ATOM     11  C   LIG d   1      -5.520  76.962 115.169  0.00  0.00     0.028 C 
ATOM     12  C   LIG d   1      -5.998  77.912 116.279  0.00  0.00     0.006 C 
ENDBRANCH   8  11
ENDBRANCH   7   8
ENDBRANCH   1   7
BRANCH   6  13
ATOM     13  N   LIG d   1      -0.767  77.117 116.282  0.00  0.00    -0.311 N 
ATOM     14  C   LIG d   1      -0.556  75.802 116.259  0.00  0.00     0.210 C 
ATOM     15  C   LIG d   1      -0.405  75.148 117.636  0.00  0.00     0.109 C 
ATOM     16  O   LIG d   1      -0.449  75.121 115.228  0.00  0.00    -0.276 OA
ATOM     17  H   LIG d   1      -0.808  77.595 117.161  0.00  0.00     0.149 HD
ENDBRANCH   6  13
BRANCH   5  18
ATOM     18  N   LIG d   1       1.331  78.993 115.091  0.00  0.00     0.381 N 
ATOM     19  H   LIG d   1       1.519  78.089 115.478  0.00  0.00    -0.090 HD
ATOM     20  H   LIG d   1       1.773  79.683 115.672  0.00  0.00    -0.090 HD
ATOM     21  H   LIG d   1       1.692  79.047 114.164  0.00  0.00    -0.090 HD
ENDBRANCH   5  18
BRANCH   3  22
ATOM     22  C   LIG d   1      -2.234  81.410 112.997  0.00  0.00     0.382 C 
ATOM     23  O   LIG d   1      -3.405  81.498 112.554  0.00  0.00    -0.241 OA
ATOM     24  O   LIG d   1      -1.438  82.352 112.817  0.00  0.00    -0.241 OA
ENDBRANCH   3  22
TORSDOF 7
ENDMDL
MODEL 2
REMARK VINA RESULT:      -5.0      2.742      3.477
REMARK  7 active torsions:
REMARK  status: ('A' for Active; 'I' for Inactive)
REMARK    1  A    between atoms: C_2  and  C_3 
REMARK    2  A    between atoms: C_3  and  O_6 
REMARK    3  A    between atoms: C_3  and  C_4 
REMARK    4  A    between atoms: C_7  and  O_6 
REMARK    5  A    between atoms: C_9  and  C_10 
REMARK    6  A    between atoms: N_15  and  C_14 
REMARK    7  A    between atoms: N_20  and  C_19 
REMARK       I    between atoms: C_22  and  N_20 
ROOT
ATOM      1  C   LIG d   1      -4.459  77.228 117.107  0.00  0.00     0.161 C 
ATOM      2  C   LIG d   1      -5.167  78.434 117.236  0.00  0.00     0.016 C 
ATOM      3  C   LIG d   1      -4.627  79.694 116.892  0.00  0.00     0.038 C 
ATOM      4  C   LIG d   1      -3.387  79.818 116.248  0.00  0.00     0.028 C 
ATOM      5  C   LIG d   1      -2.426  78.675 116.559  0.00  0.00    -0.047 C 
ATOM      6  C   LIG d   1      -3.146  77.332 116.304  0.00  0.00     0.091 C 
ENDROOT
BRANCH   1   7
ATOM      7  O   LIG d   1      -5.315  76.216 116.540  0.00  0.00    -0.368 OA
BRANCH   7   8
ATOM      8  C   LIG d   1      -5.184  75.997 115.114  0.00  0.00     0.119 C 
BRANCH   8   9
ATOM      9  C   LIG d   1      -6.490  76.475 114.450  0.00  0.00     0.028 C 
ATOM     10  C   LIG d   1      -6.308  76.791 112.956  0.00  0.00     0.006 C 
ENDBRANCH   8   9
BRANCH   8  11
ATOM     11  C   LIG d   1      -5.085  74.505 114.786  0.00  0.00     0.028 C 
ATOM     12  C   LIG d   1      -5.862  73.624 115.777  0.00  0.00     0.006 C 
ENDBRANCH   8  11
ENDBRANCH   7   8
ENDBRANCH   1   7
BRANCH   6  13
ATOM     13  N   LIG d   1      -2.304  76.161 116.663  0.00  0.00    -0.311 N 
ATOM     14  C   LIG d   1      -1.620  75.447 115.770  0.00  0.00     0.210 C 
ATOM     15  C   LIG d   1      -0.833  74.268 116.351  0.00  0.00     0.109 C 
ATOM     16  O   LIG d   1      -1.566  75.698 114.557  0.00  0.00    -0.276 OA
ATOM     17  H   LIG d   1      -2.267  75.906 117.631  0.00  0.00     0.149 HD
ENDBRANCH   6  13
BRANCH   5  18
ATOM     18  N   LIG d   1      -1.228  78.859 115.718  0.00  0.00     0.381 N 
ATOM     19  H   LIG d   1      -1.101  78.059 115.131  0.00  0.00    -0.090 HD
ATOM     20  H   LIG d   1      -0.423  78.945 116.313  0.00  0.00    -0.090 HD
ATOM     21  H   LIG d   1      -1.326  79.678 115.159  0.00  0.00    -0.090 HD
ENDBRANCH   5  18
BRANCH   3  22
ATOM     22  C   LIG d   1      -5.314  80.851 117.228  0.00  0.00     0.382 C 
ATOM     23  O   LIG d   1      -6.464  81.053 116.768  0.00  0.00    -0.241 OA
ATOM     24  O   LIG d   1      -4.780  81.716 117.948  0.00  0.00    -0.241 OA
ENDBRANCH   3  22
TORSDOF 7
ENDMDL
MODEL 3
REMARK VINA RESULT:      -4.8     12.213     14.481
REMARK  7 active torsions:
REMARK  status: ('A' for Active; 'I' for Inactive)
REMARK    1  A    between atoms: C_2  and  C_3 
REMARK    2  A    between atoms: C_3  and  O_6 
REMARK    3  A    between atoms: C_3  and  C_4 
REMARK    4  A    between atoms: C_7  and  O_6 
REMARK    5  A    between atoms: C_9  and  C_10 
REMARK    6  A    between atoms: N_15  and  C_14 
REMARK    7  A    between atoms: N_20  and  C_19 
REMARK       I    between atoms: C_22  and  N_20 
ROOT
ATOM      1  C   LIG d   1      11.370  75.599 115.356  0.00  0.00     0.161 C 
ATOM      2  C   LIG d   1      10.038  76.002 115.547  0.00  0.00     0.016 C 
ATOM      3  C   LIG d   1       9.540  77.262 115.142  0.00  0.00     0.038 C 
ATOM      4  C   LIG d   1      10.309  78.152 114.378  0.00  0.00     0.028 C 
ATOM      5  C   LIG d   1      11.810  78.000 114.599  0.00  0.00    -0.047 C 
ATOM      6  C   LIG d   1      12.195  76.513 114.425  0.00  0.00     0.091 C 
ENDROOT
BRANCH   1   7
ATOM      7  O   LIG d   1      11.406  74.238 114.882  0.00  0.00    -0.368 OA
BRANCH   7   8
ATOM      8  C   LIG d   1      11.893  73.249 115.823  0.00  0.00     0.119 C 
BRANCH   8   9
ATOM      9  C   LIG d   1      12.786  72.267 115.040  0.00  0.00     0.028 C 
ATOM     10  C   LIG d   1      14.275  72.645 115.108  0.00  0.00     0.006 C 
ENDBRANCH   8   9
BRANCH   8  11
ATOM     11  C   LIG d   1      10.747  72.400 116.381  0.00  0.00     0.028 C 
ATOM     12  C   LIG d   1      10.129  71.467 115.327  0.00  0.00     0.006 C 
ENDBRANCH   8  11
ENDBRANCH   7   8
ENDBRANCH   1   7
BRANCH   6  13
ATOM     13  N   LIG d   1      13.632  76.262 114.707  0.00  0.00    -0.311 N 
ATOM     14  C   LIG d   1      14.577  76.278 113.768  0.00  0.00     0.210 C 
ATOM     15  C   LIG d   1      15.992  75.975 114.270  0.00  0.00     0.109 C 
ATOM     16  O   LIG d   1      14.382  76.546 112.573  0.00  0.00    -0.276 OA
ATOM     17  H   LIG d   1      13.884  76.067 115.656  0.00  0.00     0.149 HD
ENDBRANCH   6  13
BRANCH   5  18
ATOM     18  N   LIG d   1      12.494  78.890 113.642  0.00  0.00     0.381 N 
ATOM     19  H   LIG d   1      11.915  79.681 113.441  0.00  0.00    -0.090 HD
ATOM     20  H   LIG d   1      12.650  78.388 112.786  0.00  0.00    -0.090 HD
ATOM     21  H   LIG d   1      13.364  79.194 114.020  0.00  0.00    -0.090 HD
ENDBRANCH   5  18
BRANCH   3  22
ATOM     22  C   LIG d   1       8.272  77.658 115.537  0.00  0.00     0.382 C 
ATOM     23  O   LIG d   1       8.092  78.131 116.686  0.00  0.00    -0.241 OA
ATOM     24  O   LIG d   1       7.297  77.509 114.776  0.00  0.00    -0.241 OA
ENDBRANCH   3  22
TORSDOF 7
ENDMDL
MODEL 4
REMARK VINA RESULT:      -4.7      3.779      5.586
REMARK  7 active torsions:
REMARK  status: ('A' for Active; 'I' for Inactive)
REMARK    1  A    between atoms: C_2  and  C_3 
REMARK    2  A    between atoms: C_3  and  O_6 
REMARK    3  A    between atoms: C_3  and  C_4 
REMARK    4  A    between atoms: C_7  and  O_6 
REMARK    5  A    between atoms: C_9  and  C_10 
REMARK    6  A    between atoms: N_15  and  C_14 
REMARK    7  A    between atoms: N_20  and  C_19 
REMARK       I    between atoms: C_22  and  N_20 
ROOT
ATOM      1  C   LIG d   1      -5.692  78.578 117.140  0.00  0.00     0.161 C 
ATOM      2  C   LIG d   1      -7.050  78.894 117.314  0.00  0.00     0.016 C 
ATOM      3  C   LIG d   1      -7.501  80.130 117.832  0.00  0.00     0.038 C 
ATOM      4  C   LIG d   1      -6.624  81.198 118.072  0.00  0.00     0.028 C 
ATOM      5  C   LIG d   1      -5.200  80.753 118.388  0.00  0.00    -0.047 C 
ATOM      6  C   LIG d   1      -4.726  79.771 117.292  0.00  0.00     0.091 C 
ENDROOT
BRANCH   1   7
ATOM      7  O   LIG d   1      -5.500  77.936 115.865  0.00  0.00    -0.368 OA
BRANCH   7   8
ATOM      8  C   LIG d   1      -5.105  76.542 115.905  0.00  0.00     0.119 C 
BRANCH   8   9
ATOM      9  C   LIG d   1      -3.684  76.446 115.316  0.00  0.00     0.028 C 
ATOM     10  C   LIG d   1      -3.525  77.276 114.031  0.00  0.00     0.006 C 
ENDBRANCH   8   9
BRANCH   8  11
ATOM     11  C   LIG d   1      -5.984  75.687 114.988  0.00  0.00     0.028 C 
ATOM     12  C   LIG d   1      -5.888  74.185 115.301  0.00  0.00     0.006 C 
ENDBRANCH   8  11
ENDBRANCH   7   8
ENDBRANCH   1   7
BRANCH   6  13
ATOM     13  N   LIG d   1      -3.373  79.222 117.569  0.00  0.00    -0.311 N 
ATOM     14  C   LIG d   1      -2.304  79.496 116.824  0.00  0.00     0.210 C 
ATOM     15  C   LIG d   1      -1.010  78.810 117.273  0.00  0.00     0.109 C 
ATOM     16  O   LIG d   1      -2.297  80.267 115.852  0.00  0.00    -0.276 OA
ATOM     17  H   LIG d   1      -3.281  78.612 118.357  0.00  0.00     0.149 HD
ENDBRANCH   6  13
BRANCH   5  18
ATOM     18  N   LIG d   1      -4.364  81.965 118.479  0.00  0.00     0.381 N 
ATOM     19  H   LIG d   1      -4.213  82.342 117.564  0.00  0.00    -0.090 HD
ATOM     20  H   LIG d   1      -3.472  81.716 118.868  0.00  0.00    -0.090 HD
ATOM     21  H   LIG d   1      -4.810  82.644 119.056  0.00  0.00    -0.090 HD
ENDBRANCH   5  18
BRANCH   3  22
ATOM     22  C   LIG d   1      -8.840  80.292 118.154  0.00  0.00     0.382 C 
ATOM     23  O   LIG d   1      -9.564  79.287 118.353  0.00  0.00    -0.241 OA
ATOM     24  O   LIG d   1      -9.344  81.430 118.204  0.00  0.00    -0.241 OA
ENDBRANCH   3  22
TORSDOF 7
ENDMDL
MODEL 5
REMARK VINA RESULT:      -4.6      2.966      4.223
REMARK  7 active torsions:
REMARK  status: ('A' for Active; 'I' for Inactive)
REMARK    1  A    between atoms: C_2  and  C_3 
REMARK    2  A    between atoms: C_3  and  O_6 
REMARK    3  A    between atoms: C_3  and  C_4 
REMARK    4  A    between atoms: C_7  and  O_6 
REMARK    5  A    between atoms: C_9  and  C_10 
REMARK    6  A    between atoms: N_15  and  C_14 
REMARK    7  A    between atoms: N_20  and  C_19 
REMARK       I    between atoms: C_22  and  N_20 
ROOT
ATOM      1  C   LIG d   1      -4.557  77.419 117.523  0.00  0.00     0.161 C 
ATOM      2  C   LIG d   1      -5.803  78.065 117.471  0.00  0.00     0.016 C 
ATOM      3  C   LIG d   1      -5.948  79.465 117.334  0.00  0.00     0.038 C 
ATOM      4  C   LIG d   1      -4.851  80.304 117.087  0.00  0.00     0.028 C 
ATOM      5  C   LIG d   1      -3.537  79.759 117.635  0.00  0.00    -0.047 C 
ATOM      6  C   LIG d   1      -3.352  78.305 117.144  0.00  0.00     0.091 C 
ENDROOT
BRANCH   1   7
ATOM      7  O   LIG d   1      -4.586  76.234 116.703  0.00  0.00    -0.368 OA
BRANCH   7   8
ATOM      8  C   LIG d   1      -4.853  76.442 115.294  0.00  0.00     0.119 C 
BRANCH   8   9
ATOM      9  C   LIG d   1      -5.877  75.377 114.855  0.00  0.00     0.028 C 
ATOM     10  C   LIG d   1      -5.707  74.051 115.616  0.00  0.00     0.006 C 
ENDBRANCH   8   9
BRANCH   8  11
ATOM     11  C   LIG d   1      -3.606  76.178 114.445  0.00  0.00     0.028 C 
ATOM     12  C   LIG d   1      -3.270  77.343 113.501  0.00  0.00     0.006 C 
ENDBRANCH   8  11
ENDBRANCH   7   8
ENDBRANCH   1   7
BRANCH   6  13
ATOM     13  N   LIG d   1      -2.131  77.669 117.703  0.00  0.00    -0.311 N 
ATOM     14  C   LIG d   1      -0.973  77.603 117.049  0.00  0.00     0.210 C 
ATOM     15  C   LIG d   1       0.154  76.886 117.799  0.00  0.00     0.109 C 
ATOM     16  O   LIG d   1      -0.763  78.098 115.932  0.00  0.00    -0.276 OA
ATOM     17  H   LIG d   1      -2.204  77.268 118.618  0.00  0.00     0.149 HD
ENDBRANCH   6  13
BRANCH   5  18
ATOM     18  N   LIG d   1      -2.459  80.662 117.188  0.00  0.00     0.381 N 
ATOM     19  H   LIG d   1      -2.430  81.471 117.776  0.00  0.00    -0.090 HD
ATOM     20  H   LIG d   1      -2.655  80.962 116.249  0.00  0.00    -0.090 HD
ATOM     21  H   LIG d   1      -1.583  80.188 117.218  0.00  0.00    -0.090 HD
ENDBRANCH   5  18
BRANCH   3  22
ATOM     22  C   LIG d   1      -7.199  80.044 117.484  0.00  0.00     0.382 C 
ATOM     23  O   LIG d   1      -8.151  79.369 117.945  0.00  0.00    -0.241 OA
ATOM     24  O   LIG d   1      -7.399  81.219 117.123  0.00  0.00    -0.241 OA
ENDBRANCH   3  22
TORSDOF 7
ENDMDL
MODEL 6
REMARK VINA RESULT:      -4.6      5.974      8.726
REMARK  7 active torsions:
REMARK  status: ('A' for Active; 'I' for Inactive)
REMARK    1  A    between atoms: C_2  and  C_3 
REMARK    2  A    between atoms: C_3  and  O_6 
REMARK    3  A    between atoms: C_3  and  C_4 
REMARK    4  A    between atoms: C_7  and  O_6 
REMARK    5  A    between atoms: C_9  and  C_10 
REMARK    6  A    between atoms: N_15  and  C_14 
REMARK    7  A    between atoms: N_20  and  C_19 
REMARK       I    between atoms: C_22  and  N_20 
ROOT
ATOM      1  C   LIG d   1       3.384  84.303 113.178  0.00  0.00     0.161 C 
ATOM      2  C   LIG d   1       3.567  85.691 113.302  0.00  0.00     0.016 C 
ATOM      3  C   LIG d   1       2.574  86.640 112.967  0.00  0.00     0.038 C 
ATOM      4  C   LIG d   1       1.269  86.257 112.625  0.00  0.00     0.028 C 
ATOM      5  C   LIG d   1       1.188  84.869 112.001  0.00  0.00    -0.047 C 
ATOM      6  C   LIG d   1       1.929  83.864 112.913  0.00  0.00     0.091 C 
ENDROOT
BRANCH   1   7
ATOM      7  O   LIG d   1       3.905  83.636 114.344  0.00  0.00    -0.368 OA
BRANCH   7   8
ATOM      8  C   LIG d   1       2.969  83.431 115.432  0.00  0.00     0.119 C 
BRANCH   8   9
ATOM      9  C   LIG d   1       3.309  84.454 116.533  0.00  0.00     0.028 C 
ATOM     10  C   LIG d   1       2.152  85.431 116.804  0.00  0.00     0.006 C 
ENDBRANCH   8   9
BRANCH   8  11
ATOM     11  C   LIG d   1       3.161  82.058 116.081  0.00  0.00     0.028 C 
ATOM     12  C   LIG d   1       1.850  81.264 116.196  0.00  0.00     0.006 C 
ENDBRANCH   8  11
ENDBRANCH   7   8
ENDBRANCH   1   7
BRANCH   6  13
ATOM     13  N   LIG d   1       1.971  82.496 112.333  0.00  0.00    -0.311 N 
ATOM     14  C   LIG d   1       1.035  81.576 112.560  0.00  0.00     0.210 C 
ATOM     15  C   LIG d   1       1.281  80.224 111.882  0.00  0.00     0.109 C 
ATOM     16  O   LIG d   1       0.009  81.760 113.231  0.00  0.00    -0.276 OA
ATOM     17  H   LIG d   1       2.753  82.271 111.750  0.00  0.00     0.149 HD
ENDBRANCH   6  13
BRANCH   5  18
ATOM     18  N   LIG d   1      -0.239  84.543 111.822  0.00  0.00     0.381 N 
ATOM     19  H   LIG d   1      -0.794  85.363 111.963  0.00  0.00    -0.090 HD
ATOM     20  H   LIG d   1      -0.505  83.859 112.509  0.00  0.00    -0.090 HD
ATOM     21  H   LIG d   1      -0.395  84.182 110.906  0.00  0.00    -0.090 HD
ENDBRANCH   5  18
BRANCH   3  22
ATOM     22  C   LIG d   1       2.896  87.988 112.933  0.00  0.00     0.382 C 
ATOM     23  O   LIG d   1       1.998  88.842 112.737  0.00  0.00    -0.241 OA
ATOM     24  O   LIG d   1       4.079  88.359 113.052  0.00  0.00    -0.241 OA
ENDBRANCH   3  22
TORSDOF 7
ENDMDL
MODEL 7
REMARK VINA RESULT:      -4.5      9.408     11.752
REMARK  7 active torsions:
REMARK  status: ('A' for Active; 'I' for Inactive)
REMARK    1  A    between atoms: C_2  and  C_3 
REMARK    2  A    between atoms: C_3  and  O_6 
REMARK    3  A    between atoms: C_3  and  C_4 
REMARK    4  A    between atoms: C_7  and  O_6 
REMARK    5  A    between atoms: C_9  and  C_10 
REMARK    6  A    between atoms: N_15  and  C_14 
REMARK    7  A    between atoms: N_20  and  C_19 
REMARK       I    between atoms: C_22  and  N_20 
ROOT
ATOM      1  C   LIG d   1       3.759  87.926 115.822  0.00  0.00     0.161 C 
ATOM      2  C   LIG d   1       2.827  87.399 114.912  0.00  0.00     0.016 C 
ATOM      3  C   LIG d   1       3.018  87.405 113.512  0.00  0.00     0.038 C 
ATOM      4  C   LIG d   1       4.230  87.805 112.930  0.00  0.00     0.028 C 
ATOM      5  C   LIG d   1       5.002  88.814 113.773  0.00  0.00    -0.047 C 
ATOM      6  C   LIG d   1       5.136  88.266 115.213  0.00  0.00     0.091 C 
ENDROOT
BRANCH   1   7
ATOM      7  O   LIG d   1       3.914  87.029 116.939  0.00  0.00    -0.368 OA
BRANCH   7   8
ATOM      8  C   LIG d   1       3.395  85.688 116.756  0.00  0.00     0.119 C 
BRANCH   8   9
ATOM      9  C   LIG d   1       2.883  85.200 118.125  0.00  0.00     0.028 C 
ATOM     10  C   LIG d   1       1.447  84.652 118.053  0.00  0.00     0.006 C 
ENDBRANCH   8   9
BRANCH   8  11
ATOM     11  C   LIG d   1       4.507  84.709 116.366  0.00  0.00     0.028 C 
ATOM     12  C   LIG d   1       4.104  83.782 115.209  0.00  0.00     0.006 C 
ENDBRANCH   8  11
ENDBRANCH   7   8
ENDBRANCH   1   7
BRANCH   6  13
ATOM     13  N   LIG d   1       5.806  89.229 116.125  0.00  0.00    -0.311 N 
ATOM     14  C   LIG d   1       6.817  88.898 116.926  0.00  0.00     0.210 C 
ATOM     15  C   LIG d   1       7.350  90.037 117.801  0.00  0.00     0.109 C 
ATOM     16  O   LIG d   1       7.345  87.776 116.972  0.00  0.00    -0.276 OA
ATOM     17  H   LIG d   1       5.461  90.169 116.129  0.00  0.00     0.149 HD
ENDBRANCH   6  13
BRANCH   5  18
ATOM     18  N   LIG d   1       6.304  89.038 113.117  0.00  0.00     0.381 N 
ATOM     19  H   LIG d   1       6.919  88.274 113.314  0.00  0.00    -0.090 HD
ATOM     20  H   LIG d   1       6.715  89.877 113.488  0.00  0.00    -0.090 HD
ATOM     21  H   LIG d   1       6.179  89.128 112.133  0.00  0.00    -0.090 HD
ENDBRANCH   5  18
BRANCH   3  22
ATOM     22  C   LIG d   1       1.973  87.043 112.674  0.00  0.00     0.382 C 
ATOM     23  O   LIG d   1       1.559  87.848 111.806  0.00  0.00    -0.241 OA
ATOM     24  O   LIG d   1       1.411  85.940 112.806  0.00  0.00    -0.241 OA
ENDBRANCH   3  22
TORSDOF 7
ENDMDL
MODEL 8
REMARK VINA RESULT:      -4.5     21.904     23.733
REMARK  7 active torsions:
REMARK  status: ('A' for Active; 'I' for Inactive)
REMARK    1  A    between atoms: C_2  and  C_3 
REMARK    2  A    between atoms: C_3  and  O_6 
REMARK    3  A    between atoms: C_3  and  C_4 
REMARK    4  A    between atoms: C_7  and  O_6 
REMARK    5  A    between atoms: C_9  and  C_10 
REMARK    6  A    between atoms: N_15  and  C_14 
REMARK    7  A    between atoms: N_20  and  C_19 
REMARK       I    between atoms: C_22  and  N_20 
ROOT
ATOM      1  C   LIG d   1     -24.301  83.269 113.345  0.00  0.00     0.161 C 
ATOM      2  C   LIG d   1     -23.431  84.365 113.471  0.00  0.00     0.016 C 
ATOM      3  C   LIG d   1     -23.868  85.709 113.469  0.00  0.00     0.038 C 
ATOM      4  C   LIG d   1     -25.230  86.046 113.494  0.00  0.00     0.028 C 
ATOM      5  C   LIG d   1     -26.127  84.989 112.860  0.00  0.00    -0.047 C 
ATOM      6  C   LIG d   1     -25.798  83.613 113.483  0.00  0.00     0.091 C 
ENDROOT
BRANCH   1   7
ATOM      7  O   LIG d   1     -23.933  82.243 114.289  0.00  0.00    -0.368 OA
BRANCH   7   8
ATOM      8  C   LIG d   1     -24.251  82.510 115.677  0.00  0.00     0.119 C 
BRANCH   8   9
ATOM      9  C   LIG d   1     -22.921  82.728 116.423  0.00  0.00     0.028 C 
ATOM     10  C   LIG d   1     -23.121  82.912 117.937  0.00  0.00     0.006 C 
ENDBRANCH   8   9
BRANCH   8  11
ATOM     11  C   LIG d   1     -24.896  81.292 116.345  0.00  0.00     0.028 C 
ATOM     12  C   LIG d   1     -24.888  80.045 115.446  0.00  0.00     0.006 C 
ENDBRANCH   8  11
ENDBRANCH   7   8
ENDBRANCH   1   7
BRANCH   6  13
ATOM     13  N   LIG d   1     -26.573  82.508 112.859  0.00  0.00    -0.311 N 
ATOM     14  C   LIG d   1     -27.521  81.826 113.498  0.00  0.00     0.210 C 
ATOM     15  C   LIG d   1     -28.183  80.714 112.677  0.00  0.00     0.109 C 
ATOM     16  O   LIG d   1     -27.901  82.057 114.656  0.00  0.00    -0.276 OA
ATOM     17  H   LIG d   1     -26.351  82.275 111.911  0.00  0.00     0.149 HD
ENDBRANCH   6  13
BRANCH   5  18
ATOM     18  N   LIG d   1     -27.526  85.402 113.078  0.00  0.00     0.381 N 
ATOM     19  H   LIG d   1     -27.549  86.269 113.578  0.00  0.00    -0.090 HD
ATOM     20  H   LIG d   1     -27.989  84.705 113.633  0.00  0.00    -0.090 HD
ATOM     21  H   LIG d   1     -27.992  85.503 112.203  0.00  0.00    -0.090 HD
ENDBRANCH   5  18
BRANCH   3  22
ATOM     22  C   LIG d   1     -22.937  86.735 113.403  0.00  0.00     0.382 C 
ATOM     23  O   LIG d   1     -23.279  87.911 113.676  0.00  0.00    -0.241 OA
ATOM     24  O   LIG d   1     -21.771  86.506 113.030  0.00  0.00    -0.241 OA
ENDBRANCH   3  22
TORSDOF 7
ENDMDL
MODEL 9
REMARK VINA RESULT:      -4.3      9.165     12.537
REMARK  7 active torsions:
REMARK  status: ('A' for Active; 'I' for Inactive)
REMARK    1  A    between atoms: C_2  and  C_3 
REMARK    2  A    between atoms: C_3  and  O_6 
REMARK    3  A    between atoms: C_3  and  C_4 
REMARK    4  A    between atoms: C_7  and  O_6 
REMARK    5  A    between atoms: C_9  and  C_10 
REMARK    6  A    between atoms: N_15  and  C_14 
REMARK    7  A    between atoms: N_20  and  C_19 
REMARK       I    between atoms: C_22  and  N_20 
ROOT
ATOM      1  C   LIG d   1       3.815  86.993 116.788  0.00  0.00     0.161 C 
ATOM      2  C   LIG d   1       4.429  85.736 116.655  0.00  0.00     0.016 C 
ATOM      3  C   LIG d   1       3.995  84.751 115.738  0.00  0.00     0.038 C 
ATOM      4  C   LIG d   1       3.004  85.015 114.780  0.00  0.00     0.028 C 
ATOM      5  C   LIG d   1       2.016  86.093 115.212  0.00  0.00    -0.047 C 
ATOM      6  C   LIG d   1       2.803  87.340 115.675  0.00  0.00     0.091 C 
ENDROOT
BRANCH   1   7
ATOM      7  O   LIG d   1       4.820  88.020 116.889  0.00  0.00    -0.368 OA
BRANCH   7   8
ATOM      8  C   LIG d   1       5.937  87.911 115.972  0.00  0.00     0.119 C 
BRANCH   8   9
ATOM      9  C   LIG d   1       7.229  88.080 116.795  0.00  0.00     0.028 C 
ATOM     10  C   LIG d   1       8.279  87.006 116.465  0.00  0.00     0.006 C 
ENDBRANCH   8   9
BRANCH   8  11
ATOM     11  C   LIG d   1       5.944  89.064 114.964  0.00  0.00     0.028 C 
ATOM     12  C   LIG d   1       5.690  88.596 113.522  0.00  0.00     0.006 C 
ENDBRANCH   8  11
ENDBRANCH   7   8
ENDBRANCH   1   7
BRANCH   6  13
ATOM     13  N   LIG d   1       1.914  88.411 116.194  0.00  0.00    -0.311 N 
ATOM     14  C   LIG d   1       2.006  89.686 115.818  0.00  0.00     0.210 C 
ATOM     15  C   LIG d   1       1.005  90.632 116.490  0.00  0.00     0.109 C 
ATOM     16  O   LIG d   1       2.799  90.117 114.968  0.00  0.00    -0.276 OA
ATOM     17  H   LIG d   1       1.221  88.144 116.865  0.00  0.00     0.149 HD
ENDBRANCH   6  13
BRANCH   5  18
ATOM     18  N   LIG d   1       1.124  86.364 114.069  0.00  0.00     0.381 N 
ATOM     19  H   LIG d   1       0.923  87.343 114.021  0.00  0.00    -0.090 HD
ATOM     20  H   LIG d   1       0.260  85.870 114.206  0.00  0.00    -0.090 HD
ATOM     21  H   LIG d   1       1.555  86.065 113.222  0.00  0.00    -0.090 HD
ENDBRANCH   5  18
BRANCH   3  22
ATOM     22  C   LIG d   1       4.527  83.473 115.800  0.00  0.00     0.382 C 
ATOM     23  O   LIG d   1       5.662  83.289 116.304  0.00  0.00    -0.241 OA
ATOM     24  O   LIG d   1       3.906  82.506 115.319  0.00  0.00    -0.241 OA
ENDBRANCH   3  22
TORSDOF 7
ENDMDL
