MODEL 1
REMARK VINA RESULT:      -4.9      0.000      0.000
REMARK  7 active torsions:
REMARK  status: ('A' for Active; 'I' for Inactive)
REMARK    1  A    between atoms: C_2  and  C_3 
REMARK    2  A    between atoms: C_3  and  O_6 
REMARK    3  A    between atoms: C_3  and  C_4 
REMARK    4  A    between atoms: C_7  and  O_6 
REMARK    5  A    between atoms: C_9  and  C_10 
REMARK    6  A    between atoms: N_15  and  C_14 
REMARK    7  A    between atoms: N_20  and  C_19 
REMARK       I    between atoms: C_22  and  N_20 
ROOT
ATOM      1  C   LIG d   1      -3.001  78.833 115.920  0.00  0.00     0.161 C 
ATOM      2  C   LIG d   1      -3.042  79.892 114.998  0.00  0.00     0.016 C 
ATOM      3  C   LIG d   1      -2.493  79.814 113.698  0.00  0.00     0.038 C 
ATOM      4  C   LIG d   1      -1.995  78.611 113.174  0.00  0.00     0.028 C 
ATOM      5  C   LIG d   1      -1.475  77.655 114.242  0.00  0.00    -0.047 C 
ATOM      6  C   LIG d   1      -2.561  77.477 115.328  0.00  0.00     0.091 C 
ENDROOT
BRANCH   1   7
ATOM      7  O   LIG d   1      -4.279  78.703 116.573  0.00  0.00    -0.368 OA
BRANCH   7   8
ATOM      8  C   LIG d   1      -4.267  78.787 118.020  0.00  0.00     0.119 C 
BRANCH   8   9
ATOM      9  C   LIG d   1      -5.203  77.686 118.555  0.00  0.00     0.028 C 
ATOM     10  C   LIG d   1      -5.693  76.741 117.444  0.00  0.00     0.006 C 
ENDBRANCH   8   9
BRANCH   8  11
ATOM     11  C   LIG d   1      -4.873  80.106 118.507  0.00  0.00     0.028 C 
ATOM     12  C   LIG d   1      -5.896  80.692 117.521  0.00  0.00     0.006 C 
ENDBRANCH   8  11
ENDBRANCH   7   8
ENDBRANCH   1   7
BRANCH   6  13
ATOM     13  N   LIG d   1      -2.102  76.623 116.454  0.00  0.00    -0.311 N 
ATOM     14  C   LIG d   1      -2.338  75.314 116.525  0.00  0.00     0.210 C 
ATOM     15  C   LIG d   1      -1.794  74.625 117.780  0.00  0.00     0.109 C 
ATOM     16  O   LIG d   1      -2.919  74.652 115.651  0.00  0.00    -0.276 OA
ATOM     17  H   LIG d   1      -1.596  77.073 117.192  0.00  0.00     0.149 HD
ENDBRANCH   6  13
BRANCH   5  18
ATOM     18  N   LIG d   1      -1.116  76.391 113.572  0.00  0.00     0.381 N 
ATOM     19  H   LIG d   1      -1.934  75.828 113.449  0.00  0.00    -0.090 HD
ATOM     20  H   LIG d   1      -0.471  75.886 114.154  0.00  0.00    -0.090 HD
ATOM     21  H   LIG d   1      -0.699  76.581 112.687  0.00  0.00    -0.090 HD
ENDBRANCH   5  18
BRANCH   3  22
ATOM     22  C   LIG d   1      -2.402  80.958 112.920  0.00  0.00     0.382 C 
ATOM     23  O   LIG d   1      -3.197  81.910 113.110  0.00  0.00    -0.241 OA
ATOM     24  O   LIG d   1      -1.563  81.033 112.002  0.00  0.00    -0.241 OA
ENDBRANCH   3  22
TORSDOF 7
ENDMDL
MODEL 2
REMARK VINA RESULT:      -4.6      8.326     10.436
REMARK  7 active torsions:
REMARK  status: ('A' for Active; 'I' for Inactive)
REMARK    1  A    between atoms: C_2  and  C_3 
REMARK    2  A    between atoms: C_3  and  O_6 
REMARK    3  A    between atoms: C_3  and  C_4 
REMARK    4  A    between atoms: C_7  and  O_6 
REMARK    5  A    between atoms: C_9  and  C_10 
REMARK    6  A    between atoms: N_15  and  C_14 
REMARK    7  A    between atoms: N_20  and  C_19 
REMARK       I    between atoms: C_22  and  N_20 
ROOT
ATOM      1  C   LIG d   1       3.451  85.432 113.838  0.00  0.00     0.161 C 
ATOM      2  C   LIG d   1       3.705  86.753 113.432  0.00  0.00     0.016 C 
ATOM      3  C   LIG d   1       4.613  87.610 114.096  0.00  0.00     0.038 C 
ATOM      4  C   LIG d   1       5.447  87.152 115.126  0.00  0.00     0.028 C 
ATOM      5  C   LIG d   1       4.865  85.971 115.897  0.00  0.00    -0.047 C 
ATOM      6  C   LIG d   1       4.434  84.879 114.892  0.00  0.00     0.091 C 
ENDROOT
BRANCH   1   7
ATOM      7  O   LIG d   1       3.413  84.566 112.686  0.00  0.00    -0.368 OA
BRANCH   7   8
ATOM      8  C   LIG d   1       2.097  84.254 112.167  0.00  0.00     0.119 C 
BRANCH   8   9
ATOM      9  C   LIG d   1       1.084  84.480 113.307  0.00  0.00     0.028 C 
ATOM     10  C   LIG d   1      -0.210  85.153 112.818  0.00  0.00     0.006 C 
ENDBRANCH   8   9
BRANCH   8  11
ATOM     11  C   LIG d   1       1.977  82.770 111.806  0.00  0.00     0.028 C 
ATOM     12  C   LIG d   1       2.233  81.843 113.005  0.00  0.00     0.006 C 
ENDBRANCH   8  11
ENDBRANCH   7   8
ENDBRANCH   1   7
BRANCH   6  13
ATOM     13  N   LIG d   1       3.777  83.724 115.557  0.00  0.00    -0.311 N 
ATOM     14  C   LIG d   1       4.436  82.641 115.966  0.00  0.00     0.210 C 
ATOM     15  C   LIG d   1       3.565  81.558 116.610  0.00  0.00     0.109 C 
ATOM     16  O   LIG d   1       5.664  82.489 115.886  0.00  0.00    -0.276 OA
ATOM     17  H   LIG d   1       2.786  83.777 115.690  0.00  0.00     0.149 HD
ENDBRANCH   6  13
BRANCH   5  18
ATOM     18  N   LIG d   1       5.894  85.509 116.847  0.00  0.00     0.381 N 
ATOM     19  H   LIG d   1       6.287  86.292 117.329  0.00  0.00    -0.090 HD
ATOM     20  H   LIG d   1       6.628  85.053 116.335  0.00  0.00    -0.090 HD
ATOM     21  H   LIG d   1       5.493  84.874 117.502  0.00  0.00    -0.090 HD
ENDBRANCH   5  18
BRANCH   3  22
ATOM     22  C   LIG d   1       4.664  88.953 113.755  0.00  0.00     0.382 C 
ATOM     23  O   LIG d   1       5.016  89.294 112.600  0.00  0.00    -0.241 OA
ATOM     24  O   LIG d   1       4.405  89.830 114.601  0.00  0.00    -0.241 OA
ENDBRANCH   3  22
TORSDOF 7
ENDMDL
MODEL 3
REMARK VINA RESULT:      -4.6      1.906      4.835
REMARK  7 active torsions:
REMARK  status: ('A' for Active; 'I' for Inactive)
REMARK    1  A    between atoms: C_2  and  C_3 
REMARK    2  A    between atoms: C_3  and  O_6 
REMARK    3  A    between atoms: C_3  and  C_4 
REMARK    4  A    between atoms: C_7  and  O_6 
REMARK    5  A    between atoms: C_9  and  C_10 
REMARK    6  A    between atoms: N_15  and  C_14 
REMARK    7  A    between atoms: N_20  and  C_19 
REMARK       I    between atoms: C_22  and  N_20 
ROOT
ATOM      1  C   LIG d   1      -3.397  77.828 115.123  0.00  0.00     0.161 C 
ATOM      2  C   LIG d   1      -3.974  76.806 115.894  0.00  0.00     0.016 C 
ATOM      3  C   LIG d   1      -3.299  75.611 116.235  0.00  0.00     0.038 C 
ATOM      4  C   LIG d   1      -1.938  75.423 115.951  0.00  0.00     0.028 C 
ATOM      5  C   LIG d   1      -1.458  76.210 114.736  0.00  0.00    -0.047 C 
ATOM      6  C   LIG d   1      -1.877  77.689 114.899  0.00  0.00     0.091 C 
ENDROOT
BRANCH   1   7
ATOM      7  O   LIG d   1      -3.703  79.111 115.704  0.00  0.00    -0.368 OA
BRANCH   7   8
ATOM      8  C   LIG d   1      -3.976  79.117 117.127  0.00  0.00     0.119 C 
BRANCH   8   9
ATOM      9  C   LIG d   1      -5.198  80.027 117.359  0.00  0.00     0.028 C 
ATOM     10  C   LIG d   1      -6.501  79.228 117.525  0.00  0.00     0.006 C 
ENDBRANCH   8   9
BRANCH   8  11
ATOM     11  C   LIG d   1      -2.832  79.766 117.911  0.00  0.00     0.028 C 
ATOM     12  C   LIG d   1      -1.814  78.742 118.438  0.00  0.00     0.006 C 
ENDBRANCH   8  11
ENDBRANCH   7   8
ENDBRANCH   1   7
BRANCH   6  13
ATOM     13  N   LIG d   1      -1.520  78.512 113.714  0.00  0.00    -0.311 N 
ATOM     14  C   LIG d   1      -0.953  79.715 113.801  0.00  0.00     0.210 C 
ATOM     15  C   LIG d   1      -0.686  80.402 112.459  0.00  0.00     0.109 C 
ATOM     16  O   LIG d   1      -0.617  80.263 114.862  0.00  0.00    -0.276 OA
ATOM     17  H   LIG d   1      -1.729  78.130 112.813  0.00  0.00     0.149 HD
ENDBRANCH   6  13
BRANCH   5  18
ATOM     18  N   LIG d   1       0.003  76.030 114.638  0.00  0.00     0.381 N 
ATOM     19  H   LIG d   1       0.260  75.852 113.688  0.00  0.00    -0.090 HD
ATOM     20  H   LIG d   1       0.271  75.235 115.191  0.00  0.00    -0.090 HD
ATOM     21  H   LIG d   1       0.470  76.846 114.968  0.00  0.00    -0.090 HD
ENDBRANCH   5  18
BRANCH   3  22
ATOM     22  C   LIG d   1      -3.997  74.573 116.831  0.00  0.00     0.382 C 
ATOM     23  O   LIG d   1      -3.375  73.648 117.408  0.00  0.00    -0.241 OA
ATOM     24  O   LIG d   1      -5.240  74.525 116.762  0.00  0.00    -0.241 OA
ENDBRANCH   3  22
TORSDOF 7
ENDMDL
MODEL 4
REMARK VINA RESULT:      -4.3     12.508     14.352
REMARK  7 active torsions:
REMARK  status: ('A' for Active; 'I' for Inactive)
REMARK    1  A    between atoms: C_2  and  C_3 
REMARK    2  A    between atoms: C_3  and  O_6 
REMARK    3  A    between atoms: C_3  and  C_4 
REMARK    4  A    between atoms: C_7  and  O_6 
REMARK    5  A    between atoms: C_9  and  C_10 
REMARK    6  A    between atoms: N_15  and  C_14 
REMARK    7  A    between atoms: N_20  and  C_19 
REMARK       I    between atoms: C_22  and  N_20 
ROOT
ATOM      1  C   LIG d   1      10.399  76.932 114.502  0.00  0.00     0.161 C 
ATOM      2  C   LIG d   1       9.061  77.356 114.446  0.00  0.00     0.016 C 
ATOM      3  C   LIG d   1       8.199  77.363 115.567  0.00  0.00     0.038 C 
ATOM      4  C   LIG d   1       8.665  77.086 116.862  0.00  0.00     0.028 C 
ATOM      5  C   LIG d   1       9.881  76.167 116.884  0.00  0.00    -0.047 C 
ATOM      6  C   LIG d   1      10.955  76.732 115.927  0.00  0.00     0.091 C 
ENDROOT
BRANCH   1   7
ATOM      7  O   LIG d   1      11.233  77.845 113.762  0.00  0.00    -0.368 OA
BRANCH   7   8
ATOM      8  C   LIG d   1      10.840  79.240 113.800  0.00  0.00     0.119 C 
BRANCH   8   9
ATOM      9  C   LIG d   1      11.256  79.874 112.459  0.00  0.00     0.028 C 
ATOM     10  C   LIG d   1      12.746  79.661 112.145  0.00  0.00     0.006 C 
ENDBRANCH   8   9
BRANCH   8  11
ATOM     11  C   LIG d   1      11.618  80.009 114.871  0.00  0.00     0.028 C 
ATOM     12  C   LIG d   1      10.737  80.440 116.054  0.00  0.00     0.006 C 
ENDBRANCH   8  11
ENDBRANCH   7   8
ENDBRANCH   1   7
BRANCH   6  13
ATOM     13  N   LIG d   1      12.145  75.847 115.826  0.00  0.00    -0.311 N 
ATOM     14  C   LIG d   1      13.395  76.279 115.987  0.00  0.00     0.210 C 
ATOM     15  C   LIG d   1      14.476  75.206 115.820  0.00  0.00     0.109 C 
ATOM     16  O   LIG d   1      13.709  77.441 116.283  0.00  0.00    -0.276 OA
ATOM     17  H   LIG d   1      11.980  74.882 115.618  0.00  0.00     0.149 HD
ENDBRANCH   6  13
BRANCH   5  18
ATOM     18  N   LIG d   1      10.343  76.073 118.282  0.00  0.00     0.381 N 
ATOM     19  H   LIG d   1       9.751  75.450 118.794  0.00  0.00    -0.090 HD
ATOM     20  H   LIG d   1      10.285  76.983 118.705  0.00  0.00    -0.090 HD
ATOM     21  H   LIG d   1      11.284  75.746 118.309  0.00  0.00    -0.090 HD
ENDBRANCH   5  18
BRANCH   3  22
ATOM     22  C   LIG d   1       6.846  77.611 115.393  0.00  0.00     0.382 C 
ATOM     23  O   LIG d   1       6.038  77.353 116.317  0.00  0.00    -0.241 OA
ATOM     24  O   LIG d   1       6.419  78.047 114.307  0.00  0.00    -0.241 OA
ENDBRANCH   3  22
TORSDOF 7
ENDMDL
MODEL 5
REMARK VINA RESULT:      -4.2      7.673      9.714
REMARK  7 active torsions:
REMARK  status: ('A' for Active; 'I' for Inactive)
REMARK    1  A    between atoms: C_2  and  C_3 
REMARK    2  A    between atoms: C_3  and  O_6 
REMARK    3  A    between atoms: C_3  and  C_4 
REMARK    4  A    between atoms: C_7  and  O_6 
REMARK    5  A    between atoms: C_9  and  C_10 
REMARK    6  A    between atoms: N_15  and  C_14 
REMARK    7  A    between atoms: N_20  and  C_19 
REMARK       I    between atoms: C_22  and  N_20 
ROOT
ATOM      1  C   LIG d   1       2.201  86.078 115.167  0.00  0.00     0.161 C 
ATOM      2  C   LIG d   1       1.010  85.617 114.582  0.00  0.00     0.016 C 
ATOM      3  C   LIG d   1       0.825  85.497 113.185  0.00  0.00     0.038 C 
ATOM      4  C   LIG d   1       1.878  85.687 112.279  0.00  0.00     0.028 C 
ATOM      5  C   LIG d   1       2.953  86.640 112.791  0.00  0.00    -0.047 C 
ATOM      6  C   LIG d   1       3.398  86.185 114.199  0.00  0.00     0.091 C 
ENDROOT
BRANCH   1   7
ATOM      7  O   LIG d   1       2.542  85.250 116.297  0.00  0.00    -0.368 OA
BRANCH   7   8
ATOM      8  C   LIG d   1       1.738  84.059 116.480  0.00  0.00     0.119 C 
BRANCH   8   9
ATOM      9  C   LIG d   1       1.333  83.998 117.966  0.00  0.00     0.028 C 
ATOM     10  C   LIG d   1       0.601  82.694 118.322  0.00  0.00     0.006 C 
ENDBRANCH   8   9
BRANCH   8  11
ATOM     11  C   LIG d   1       2.558  82.790 116.231  0.00  0.00     0.028 C 
ATOM     12  C   LIG d   1       2.207  82.106 114.900  0.00  0.00     0.006 C 
ENDBRANCH   8  11
ENDBRANCH   7   8
ENDBRANCH   1   7
BRANCH   6  13
ATOM     13  N   LIG d   1       4.387  87.111 114.808  0.00  0.00    -0.311 N 
ATOM     14  C   LIG d   1       5.459  86.699 115.482  0.00  0.00     0.210 C 
ATOM     15  C   LIG d   1       6.339  87.819 116.045  0.00  0.00     0.109 C 
ATOM     16  O   LIG d   1       5.782  85.512 115.640  0.00  0.00    -0.276 OA
ATOM     17  H   LIG d   1       4.219  88.093 114.702  0.00  0.00     0.149 HD
ENDBRANCH   6  13
BRANCH   5  18
ATOM     18  N   LIG d   1       4.053  86.640 111.808  0.00  0.00     0.381 N 
ATOM     19  H   LIG d   1       3.743  86.227 110.952  0.00  0.00    -0.090 HD
ATOM     20  H   LIG d   1       4.811  86.087 112.169  0.00  0.00    -0.090 HD
ATOM     21  H   LIG d   1       4.363  87.572 111.643  0.00  0.00    -0.090 HD
ENDBRANCH   5  18
BRANCH   3  22
ATOM     22  C   LIG d   1      -0.437  85.221 112.680  0.00  0.00     0.382 C 
ATOM     23  O   LIG d   1      -0.866  84.042 112.676  0.00  0.00    -0.241 OA
ATOM     24  O   LIG d   1      -1.133  86.129 112.188  0.00  0.00    -0.241 OA
ENDBRANCH   3  22
TORSDOF 7
ENDMDL
MODEL 6
REMARK VINA RESULT:      -4.1     18.540     21.010
REMARK  7 active torsions:
REMARK  status: ('A' for Active; 'I' for Inactive)
REMARK    1  A    between atoms: C_2  and  C_3 
REMARK    2  A    between atoms: C_3  and  O_6 
REMARK    3  A    between atoms: C_3  and  C_4 
REMARK    4  A    between atoms: C_7  and  O_6 
REMARK    5  A    between atoms: C_9  and  C_10 
REMARK    6  A    between atoms: N_15  and  C_14 
REMARK    7  A    between atoms: N_20  and  C_19 
REMARK       I    between atoms: C_22  and  N_20 
ROOT
ATOM      1  C   LIG d   1     -16.455  62.783 116.409  0.00  0.00     0.161 C 
ATOM      2  C   LIG d   1     -15.992  64.025 116.875  0.00  0.00     0.016 C 
ATOM      3  C   LIG d   1     -15.960  65.192 116.077  0.00  0.00     0.038 C 
ATOM      4  C   LIG d   1     -16.533  65.232 114.798  0.00  0.00     0.028 C 
ATOM      5  C   LIG d   1     -16.555  63.875 114.101  0.00  0.00    -0.047 C 
ATOM      6  C   LIG d   1     -17.187  62.833 115.052  0.00  0.00     0.091 C 
ENDROOT
BRANCH   1   7
ATOM      7  O   LIG d   1     -17.292  62.168 117.408  0.00  0.00    -0.368 OA
BRANCH   7   8
ATOM      8  C   LIG d   1     -18.720  62.353 117.245  0.00  0.00     0.119 C 
BRANCH   8   9
ATOM      9  C   LIG d   1     -19.205  63.252 118.399  0.00  0.00     0.028 C 
ATOM     10  C   LIG d   1     -19.527  64.682 117.933  0.00  0.00     0.006 C 
ENDBRANCH   8   9
BRANCH   8  11
ATOM     11  C   LIG d   1     -19.476  61.032 117.415  0.00  0.00     0.028 C 
ATOM     12  C   LIG d   1     -20.825  61.019 116.678  0.00  0.00     0.006 C 
ENDBRANCH   8  11
ENDBRANCH   7   8
ENDBRANCH   1   7
BRANCH   6  13
ATOM     13  N   LIG d   1     -17.171  61.461 114.481  0.00  0.00    -0.311 N 
ATOM     14  C   LIG d   1     -18.196  60.931 113.816  0.00  0.00     0.210 C 
ATOM     15  C   LIG d   1     -17.978  59.495 113.329  0.00  0.00     0.109 C 
ATOM     16  O   LIG d   1     -19.253  61.526 113.555  0.00  0.00    -0.276 OA
ATOM     17  H   LIG d   1     -16.340  60.920 114.619  0.00  0.00     0.149 HD
ENDBRANCH   6  13
BRANCH   5  18
ATOM     18  N   LIG d   1     -17.302  64.034 112.839  0.00  0.00     0.381 N 
ATOM     19  H   LIG d   1     -17.023  64.881 112.385  0.00  0.00    -0.090 HD
ATOM     20  H   LIG d   1     -18.283  64.095 113.047  0.00  0.00    -0.090 HD
ATOM     21  H   LIG d   1     -17.130  63.256 112.241  0.00  0.00    -0.090 HD
ENDBRANCH   5  18
BRANCH   3  22
ATOM     22  C   LIG d   1     -15.313  66.326 116.544  0.00  0.00     0.382 C 
ATOM     23  O   LIG d   1     -15.807  67.460 116.337  0.00  0.00    -0.241 OA
ATOM     24  O   LIG d   1     -14.218  66.232 117.131  0.00  0.00    -0.241 OA
ENDBRANCH   3  22
TORSDOF 7
ENDMDL
MODEL 7
REMARK VINA RESULT:      -4.1      8.891     10.601
REMARK  7 active torsions:
REMARK  status: ('A' for Active; 'I' for Inactive)
REMARK    1  A    between atoms: C_2  and  C_3 
REMARK    2  A    between atoms: C_3  and  O_6 
REMARK    3  A    between atoms: C_3  and  C_4 
REMARK    4  A    between atoms: C_7  and  O_6 
REMARK    5  A    between atoms: C_9  and  C_10 
REMARK    6  A    between atoms: N_15  and  C_14 
REMARK    7  A    between atoms: N_20  and  C_19 
REMARK       I    between atoms: C_22  and  N_20 
ROOT
ATOM      1  C   LIG d   1       4.490  85.413 115.146  0.00  0.00     0.161 C 
ATOM      2  C   LIG d   1       4.980  86.606 114.589  0.00  0.00     0.016 C 
ATOM      3  C   LIG d   1       4.480  87.169 113.392  0.00  0.00     0.038 C 
ATOM      4  C   LIG d   1       3.346  86.653 112.747  0.00  0.00     0.028 C 
ATOM      5  C   LIG d   1       3.134  85.164 112.995  0.00  0.00    -0.047 C 
ATOM      6  C   LIG d   1       3.179  84.896 114.516  0.00  0.00     0.091 C 
ENDROOT
BRANCH   1   7
ATOM      7  O   LIG d   1       4.334  85.566 116.571  0.00  0.00    -0.368 OA
BRANCH   7   8
ATOM      8  C   LIG d   1       4.029  86.903 117.038  0.00  0.00     0.119 C 
BRANCH   8   9
ATOM      9  C   LIG d   1       4.942  87.191 118.246  0.00  0.00     0.028 C 
ATOM     10  C   LIG d   1       6.273  87.842 117.833  0.00  0.00     0.006 C 
ENDBRANCH   8   9
BRANCH   8  11
ATOM     11  C   LIG d   1       2.599  86.990 117.581  0.00  0.00     0.028 C 
ATOM     12  C   LIG d   1       1.586  87.449 116.521  0.00  0.00     0.006 C 
ENDBRANCH   8  11
ENDBRANCH   7   8
ENDBRANCH   1   7
BRANCH   6  13
ATOM     13  N   LIG d   1       3.064  83.450 114.841  0.00  0.00    -0.311 N 
ATOM     14  C   LIG d   1       2.223  82.969 115.755  0.00  0.00     0.210 C 
ATOM     15  C   LIG d   1       2.278  81.450 115.948  0.00  0.00     0.109 C 
ATOM     16  O   LIG d   1       1.413  83.652 116.400  0.00  0.00    -0.276 OA
ATOM     17  H   LIG d   1       3.662  82.821 114.342  0.00  0.00     0.149 HD
ENDBRANCH   6  13
BRANCH   5  18
ATOM     18  N   LIG d   1       1.846  84.789 112.380  0.00  0.00     0.381 N 
ATOM     19  H   LIG d   1       1.763  83.792 112.348  0.00  0.00    -0.090 HD
ATOM     20  H   LIG d   1       1.822  85.137 111.438  0.00  0.00    -0.090 HD
ATOM     21  H   LIG d   1       1.093  85.176 112.904  0.00  0.00    -0.090 HD
ENDBRANCH   5  18
BRANCH   3  22
ATOM     22  C   LIG d   1       5.141  88.238 112.807  0.00  0.00     0.382 C 
ATOM     23  O   LIG d   1       6.247  88.058 112.243  0.00  0.00    -0.241 OA
ATOM     24  O   LIG d   1       4.668  89.388 112.876  0.00  0.00    -0.241 OA
ENDBRANCH   3  22
TORSDOF 7
ENDMDL
MODEL 8
REMARK VINA RESULT:      -4.1     10.676     12.677
REMARK  7 active torsions:
REMARK  status: ('A' for Active; 'I' for Inactive)
REMARK    1  A    between atoms: C_2  and  C_3 
REMARK    2  A    between atoms: C_3  and  O_6 
REMARK    3  A    between atoms: C_3  and  C_4 
REMARK    4  A    between atoms: C_7  and  O_6 
REMARK    5  A    between atoms: C_9  and  C_10 
REMARK    6  A    between atoms: N_15  and  C_14 
REMARK    7  A    between atoms: N_20  and  C_19 
REMARK       I    between atoms: C_22  and  N_20 
ROOT
ATOM      1  C   LIG d   1       4.081  87.237 115.997  0.00  0.00     0.161 C 
ATOM      2  C   LIG d   1       3.322  88.418 115.955  0.00  0.00     0.016 C 
ATOM      3  C   LIG d   1       3.845  89.691 116.279  0.00  0.00     0.038 C 
ATOM      4  C   LIG d   1       5.212  89.891 116.522  0.00  0.00     0.028 C 
ATOM      5  C   LIG d   1       5.916  88.654 117.070  0.00  0.00    -0.047 C 
ATOM      6  C   LIG d   1       5.601  87.450 116.153  0.00  0.00     0.091 C 
ENDROOT
BRANCH   1   7
ATOM      7  O   LIG d   1       3.804  86.436 114.831  0.00  0.00    -0.368 OA
BRANCH   7   8
ATOM      8  C   LIG d   1       2.614  86.790 114.083  0.00  0.00     0.119 C 
BRANCH   8   9
ATOM      9  C   LIG d   1       1.589  85.657 114.282  0.00  0.00     0.028 C 
ATOM     10  C   LIG d   1       2.240  84.358 114.787  0.00  0.00     0.006 C 
ENDBRANCH   8   9
BRANCH   8  11
ATOM     11  C   LIG d   1       2.893  86.825 112.577  0.00  0.00     0.028 C 
ATOM     12  C   LIG d   1       4.383  86.652 112.243  0.00  0.00     0.006 C 
ENDBRANCH   8  11
ENDBRANCH   7   8
ENDBRANCH   1   7
BRANCH   6  13
ATOM     13  N   LIG d   1       6.183  86.181 116.663  0.00  0.00    -0.311 N 
ATOM     14  C   LIG d   1       7.406  85.758 116.350  0.00  0.00     0.210 C 
ATOM     15  C   LIG d   1       7.803  84.414 116.968  0.00  0.00     0.109 C 
ATOM     16  O   LIG d   1       8.212  86.383 115.644  0.00  0.00    -0.276 OA
ATOM     17  H   LIG d   1       5.609  85.626 117.267  0.00  0.00     0.149 HD
ENDBRANCH   6  13
BRANCH   5  18
ATOM     18  N   LIG d   1       7.357  88.960 117.147  0.00  0.00     0.381 N 
ATOM     19  H   LIG d   1       7.494  89.833 117.615  0.00  0.00    -0.090 HD
ATOM     20  H   LIG d   1       7.723  89.041 116.214  0.00  0.00    -0.090 HD
ATOM     21  H   LIG d   1       7.834  88.235 117.636  0.00  0.00    -0.090 HD
ENDBRANCH   5  18
BRANCH   3  22
ATOM     22  C   LIG d   1       2.989  90.775 116.400  0.00  0.00     0.382 C 
ATOM     23  O   LIG d   1       3.425  91.940 116.237  0.00  0.00    -0.241 OA
ATOM     24  O   LIG d   1       1.795  90.606 116.715  0.00  0.00    -0.241 OA
ENDBRANCH   3  22
TORSDOF 7
ENDMDL
MODEL 9
REMARK VINA RESULT:      -4.1     13.741     15.792
REMARK  7 active torsions:
REMARK  status: ('A' for Active; 'I' for Inactive)
REMARK    1  A    between atoms: C_2  and  C_3 
REMARK    2  A    between atoms: C_3  and  O_6 
REMARK    3  A    between atoms: C_3  and  C_4 
REMARK    4  A    between atoms: C_7  and  O_6 
REMARK    5  A    between atoms: C_9  and  C_10 
REMARK    6  A    between atoms: N_15  and  C_14 
REMARK    7  A    between atoms: N_20  and  C_19 
REMARK       I    between atoms: C_22  and  N_20 
ROOT
ATOM      1  C   LIG d   1      11.947  77.224 114.787  0.00  0.00     0.161 C 
ATOM      2  C   LIG d   1      10.636  76.963 114.355  0.00  0.00     0.016 C 
ATOM      3  C   LIG d   1       9.487  77.468 115.007  0.00  0.00     0.038 C 
ATOM      4  C   LIG d   1       9.577  78.398 116.053  0.00  0.00     0.028 C 
ATOM      5  C   LIG d   1      10.877  78.296 116.844  0.00  0.00    -0.047 C 
ATOM      6  C   LIG d   1      12.068  78.326 115.859  0.00  0.00     0.091 C 
ENDROOT
BRANCH   1   7
ATOM      7  O   LIG d   1      12.782  77.533 113.653  0.00  0.00    -0.368 OA
BRANCH   7   8
ATOM      8  C   LIG d   1      12.869  78.933 113.289  0.00  0.00     0.119 C 
BRANCH   8   9
ATOM      9  C   LIG d   1      12.220  79.091 111.900  0.00  0.00     0.028 C 
ATOM     10  C   LIG d   1      11.332  80.343 111.805  0.00  0.00     0.006 C 
ENDBRANCH   8   9
BRANCH   8  11
ATOM     11  C   LIG d   1      14.324  79.373 113.110  0.00  0.00     0.028 C 
ATOM     12  C   LIG d   1      15.075  78.538 112.061  0.00  0.00     0.006 C 
ENDBRANCH   8  11
ENDBRANCH   7   8
ENDBRANCH   1   7
BRANCH   6  13
ATOM     13  N   LIG d   1      13.375  78.147 116.544  0.00  0.00    -0.311 N 
ATOM     14  C   LIG d   1      14.151  79.162 116.920  0.00  0.00     0.210 C 
ATOM     15  C   LIG d   1      15.466  78.755 117.592  0.00  0.00     0.109 C 
ATOM     16  O   LIG d   1      13.861  80.360 116.789  0.00  0.00    -0.276 OA
ATOM     17  H   LIG d   1      13.673  77.207 116.718  0.00  0.00     0.149 HD
ENDBRANCH   6  13
BRANCH   5  18
ATOM     18  N   LIG d   1      10.898  79.409 117.812  0.00  0.00     0.381 N 
ATOM     19  H   LIG d   1      10.869  80.283 117.324  0.00  0.00    -0.090 HD
ATOM     20  H   LIG d   1      11.755  79.369 118.335  0.00  0.00    -0.090 HD
ATOM     21  H   LIG d   1      10.120  79.339 118.429  0.00  0.00    -0.090 HD
ENDBRANCH   5  18
BRANCH   3  22
ATOM     22  C   LIG d   1       8.231  77.011 114.638  0.00  0.00     0.382 C 
ATOM     23  O   LIG d   1       8.055  75.794 114.390  0.00  0.00    -0.241 OA
ATOM     24  O   LIG d   1       7.282  77.807 114.507  0.00  0.00    -0.241 OA
ENDBRANCH   3  22
TORSDOF 7
ENDMDL
