MODEL 1
REMARK VINA RESULT:      -5.1      0.000      0.000
REMARK  7 active torsions:
REMARK  status: ('A' for Active; 'I' for Inactive)
REMARK    1  A    between atoms: C_2  and  C_3 
REMARK    2  A    between atoms: C_3  and  O_6 
REMARK    3  A    between atoms: C_3  and  C_4 
REMARK    4  A    between atoms: C_7  and  O_6 
REMARK    5  A    between atoms: C_9  and  C_10 
REMARK    6  A    between atoms: N_15  and  C_14 
REMARK    7  A    between atoms: N_20  and  C_19 
REMARK       I    between atoms: C_22  and  N_20 
ROOT
ATOM      1  C   LIG d   1      -7.248  76.635 117.579  0.00  0.00     0.161 C 
ATOM      2  C   LIG d   1      -8.542  77.162 117.722  0.00  0.00     0.016 C 
ATOM      3  C   LIG d   1      -8.805  78.533 117.947  0.00  0.00     0.038 C 
ATOM      4  C   LIG d   1      -7.790  79.500 117.893  0.00  0.00     0.028 C 
ATOM      5  C   LIG d   1      -6.413  78.954 118.255  0.00  0.00    -0.047 C 
ATOM      6  C   LIG d   1      -6.136  77.691 117.408  0.00  0.00     0.091 C 
ENDROOT
BRANCH   1   7
ATOM      7  O   LIG d   1      -7.220  75.696 116.487  0.00  0.00    -0.368 OA
BRANCH   7   8
ATOM      8  C   LIG d   1      -7.041  74.304 116.847  0.00  0.00     0.119 C 
BRANCH   8   9
ATOM      9  C   LIG d   1      -6.056  73.686 115.836  0.00  0.00     0.028 C 
ATOM     10  C   LIG d   1      -5.572  74.705 114.791  0.00  0.00     0.006 C 
ENDBRANCH   8   9
BRANCH   8  11
ATOM     11  C   LIG d   1      -8.342  73.514 116.680  0.00  0.00     0.028 C 
ATOM     12  C   LIG d   1      -8.228  72.065 117.180  0.00  0.00     0.006 C 
ENDBRANCH   8  11
ENDBRANCH   7   8
ENDBRANCH   1   7
BRANCH   6  13
ATOM     13  N   LIG d   1      -4.844  77.045 117.759  0.00  0.00    -0.311 N 
ATOM     14  C   LIG d   1      -3.791  77.022 116.944  0.00  0.00     0.210 C 
ATOM     15  C   LIG d   1      -2.564  76.286 117.494  0.00  0.00     0.109 C 
ATOM     16  O   LIG d   1      -3.744  77.569 115.832  0.00  0.00    -0.276 OA
ATOM     17  H   LIG d   1      -4.784  76.604 118.656  0.00  0.00     0.149 HD
ENDBRANCH   6  13
BRANCH   5  18
ATOM     18  N   LIG d   1      -5.432  80.031 118.025  0.00  0.00     0.381 N 
ATOM     19  H   LIG d   1      -5.269  80.529 118.878  0.00  0.00    -0.090 HD
ATOM     20  H   LIG d   1      -5.808  80.675 117.351  0.00  0.00    -0.090 HD
ATOM     21  H   LIG d   1      -4.577  79.647 117.688  0.00  0.00    -0.090 HD
ENDBRANCH   5  18
BRANCH   3  22
ATOM     22  C   LIG d   1     -10.090  78.943 118.268  0.00  0.00     0.382 C 
ATOM     23  O   LIG d   1     -10.364  80.166 118.316  0.00  0.00    -0.241 OA
ATOM     24  O   LIG d   1     -10.967  78.106 118.554  0.00  0.00    -0.241 OA
ENDBRANCH   3  22
TORSDOF 7
ENDMDL
MODEL 2
REMARK VINA RESULT:      -5.0      2.378      5.174
REMARK  7 active torsions:
REMARK  status: ('A' for Active; 'I' for Inactive)
REMARK    1  A    between atoms: C_2  and  C_3 
REMARK    2  A    between atoms: C_3  and  O_6 
REMARK    3  A    between atoms: C_3  and  C_4 
REMARK    4  A    between atoms: C_7  and  O_6 
REMARK    5  A    between atoms: C_9  and  C_10 
REMARK    6  A    between atoms: N_15  and  C_14 
REMARK    7  A    between atoms: N_20  and  C_19 
REMARK       I    between atoms: C_22  and  N_20 
ROOT
ATOM      1  C   LIG d   1      -5.603  75.279 116.138  0.00  0.00     0.161 C 
ATOM      2  C   LIG d   1      -6.119  73.981 115.993  0.00  0.00     0.016 C 
ATOM      3  C   LIG d   1      -7.332  73.555 116.581  0.00  0.00     0.038 C 
ATOM      4  C   LIG d   1      -8.194  74.450 117.232  0.00  0.00     0.028 C 
ATOM      5  C   LIG d   1      -7.476  75.652 117.836  0.00  0.00    -0.047 C 
ATOM      6  C   LIG d   1      -6.584  76.300 116.752  0.00  0.00     0.091 C 
ENDROOT
BRANCH   1   7
ATOM      7  O   LIG d   1      -5.114  75.755 114.868  0.00  0.00    -0.368 OA
BRANCH   7   8
ATOM      8  C   LIG d   1      -3.677  75.897 114.751  0.00  0.00     0.119 C 
BRANCH   8   9
ATOM      9  C   LIG d   1      -3.049  75.328 116.038  0.00  0.00     0.028 C 
ATOM     10  C   LIG d   1      -1.545  75.046 115.882  0.00  0.00     0.006 C 
ENDBRANCH   8   9
BRANCH   8  11
ATOM     11  C   LIG d   1      -3.264  77.372 114.716  0.00  0.00     0.028 C 
ATOM     12  C   LIG d   1      -2.546  77.759 113.414  0.00  0.00     0.006 C 
ENDBRANCH   8  11
ENDBRANCH   7   8
ENDBRANCH   1   7
BRANCH   6  13
ATOM     13  N   LIG d   1      -5.781  77.433 117.282  0.00  0.00    -0.311 N 
ATOM     14  C   LIG d   1      -6.223  78.688 117.324  0.00  0.00     0.210 C 
ATOM     15  C   LIG d   1      -5.227  79.706 117.889  0.00  0.00     0.109 C 
ATOM     16  O   LIG d   1      -7.357  79.051 116.976  0.00  0.00    -0.276 OA
ATOM     17  H   LIG d   1      -4.860  77.223 117.614  0.00  0.00     0.149 HD
ENDBRANCH   6  13
BRANCH   5  18
ATOM     18  N   LIG d   1      -8.505  76.569 118.362  0.00  0.00     0.381 N 
ATOM     19  H   LIG d   1      -9.156  76.798 117.638  0.00  0.00    -0.090 HD
ATOM     20  H   LIG d   1      -8.060  77.417 118.665  0.00  0.00    -0.090 HD
ATOM     21  H   LIG d   1      -8.982  76.144 119.126  0.00  0.00    -0.090 HD
ENDBRANCH   5  18
BRANCH   3  22
ATOM     22  C   LIG d   1      -7.676  72.212 116.553  0.00  0.00     0.382 C 
ATOM     23  O   LIG d   1      -6.958  71.395 115.928  0.00  0.00    -0.241 OA
ATOM     24  O   LIG d   1      -8.717  71.815 117.109  0.00  0.00    -0.241 OA
ENDBRANCH   3  22
TORSDOF 7
ENDMDL
MODEL 3
REMARK VINA RESULT:      -4.8      2.150      4.954
REMARK  7 active torsions:
REMARK  status: ('A' for Active; 'I' for Inactive)
REMARK    1  A    between atoms: C_2  and  C_3 
REMARK    2  A    between atoms: C_3  and  O_6 
REMARK    3  A    between atoms: C_3  and  C_4 
REMARK    4  A    between atoms: C_7  and  O_6 
REMARK    5  A    between atoms: C_9  and  C_10 
REMARK    6  A    between atoms: N_15  and  C_14 
REMARK    7  A    between atoms: N_20  and  C_19 
REMARK       I    between atoms: C_22  and  N_20 
ROOT
ATOM      1  C   LIG d   1      -5.878  76.883 116.812  0.00  0.00     0.161 C 
ATOM      2  C   LIG d   1      -6.188  75.540 116.542  0.00  0.00     0.016 C 
ATOM      3  C   LIG d   1      -7.458  74.970 116.790  0.00  0.00     0.038 C 
ATOM      4  C   LIG d   1      -8.556  75.749 117.186  0.00  0.00     0.028 C 
ATOM      5  C   LIG d   1      -8.161  77.007 117.952  0.00  0.00    -0.047 C 
ATOM      6  C   LIG d   1      -7.094  77.775 117.139  0.00  0.00     0.091 C 
ENDROOT
BRANCH   1   7
ATOM      7  O   LIG d   1      -5.129  77.441 115.714  0.00  0.00    -0.368 OA
BRANCH   7   8
ATOM      8  C   LIG d   1      -3.686  77.401 115.841  0.00  0.00     0.119 C 
BRANCH   8   9
ATOM      9  C   LIG d   1      -3.139  78.749 115.333  0.00  0.00     0.028 C 
ATOM     10  C   LIG d   1      -1.702  78.635 114.797  0.00  0.00     0.006 C 
ENDBRANCH   8   9
BRANCH   8  11
ATOM     11  C   LIG d   1      -3.074  76.342 114.919  0.00  0.00     0.028 C 
ATOM     12  C   LIG d   1      -2.530  75.127 115.687  0.00  0.00     0.006 C 
ENDBRANCH   8  11
ENDBRANCH   7   8
ENDBRANCH   1   7
BRANCH   6  13
ATOM     13  N   LIG d   1      -6.590  78.976 117.856  0.00  0.00    -0.311 N 
ATOM     14  C   LIG d   1      -7.136  80.185 117.734  0.00  0.00     0.210 C 
ATOM     15  C   LIG d   1      -6.450  81.288 118.545  0.00  0.00     0.109 C 
ATOM     16  O   LIG d   1      -8.141  80.442 117.055  0.00  0.00    -0.276 OA
ATOM     17  H   LIG d   1      -5.796  78.851 118.453  0.00  0.00     0.149 HD
ENDBRANCH   6  13
BRANCH   5  18
ATOM     18  N   LIG d   1      -9.388  77.793 118.182  0.00  0.00     0.381 N 
ATOM     19  H   LIG d   1     -10.177  77.307 117.803  0.00  0.00    -0.090 HD
ATOM     20  H   LIG d   1      -9.303  78.675 117.708  0.00  0.00    -0.090 HD
ATOM     21  H   LIG d   1      -9.519  77.943 119.158  0.00  0.00    -0.090 HD
ENDBRANCH   5  18
BRANCH   3  22
ATOM     22  C   LIG d   1      -7.629  73.599 116.680  0.00  0.00     0.382 C 
ATOM     23  O   LIG d   1      -8.704  73.069 117.053  0.00  0.00    -0.241 OA
ATOM     24  O   LIG d   1      -6.706  72.879 116.254  0.00  0.00    -0.241 OA
ENDBRANCH   3  22
TORSDOF 7
ENDMDL
MODEL 4
REMARK VINA RESULT:      -4.8     12.098     14.228
REMARK  7 active torsions:
REMARK  status: ('A' for Active; 'I' for Inactive)
REMARK    1  A    between atoms: C_2  and  C_3 
REMARK    2  A    between atoms: C_3  and  O_6 
REMARK    3  A    between atoms: C_3  and  C_4 
REMARK    4  A    between atoms: C_7  and  O_6 
REMARK    5  A    between atoms: C_9  and  C_10 
REMARK    6  A    between atoms: N_15  and  C_14 
REMARK    7  A    between atoms: N_20  and  C_19 
REMARK       I    between atoms: C_22  and  N_20 
ROOT
ATOM      1  C   LIG d   1       3.375  85.482 113.992  0.00  0.00     0.161 C 
ATOM      2  C   LIG d   1       3.570  86.829 113.647  0.00  0.00     0.016 C 
ATOM      3  C   LIG d   1       4.297  87.741 114.446  0.00  0.00     0.038 C 
ATOM      4  C   LIG d   1       5.011  87.326 115.580  0.00  0.00     0.028 C 
ATOM      5  C   LIG d   1       4.429  86.081 116.241  0.00  0.00    -0.047 C 
ATOM      6  C   LIG d   1       4.241  84.984 115.169  0.00  0.00     0.091 C 
ENDROOT
BRANCH   1   7
ATOM      7  O   LIG d   1       3.576  84.646 112.835  0.00  0.00    -0.368 OA
BRANCH   7   8
ATOM      8  C   LIG d   1       2.376  84.160 112.184  0.00  0.00     0.119 C 
BRANCH   8   9
ATOM      9  C   LIG d   1       1.216  84.298 113.189  0.00  0.00     0.028 C 
ATOM     10  C   LIG d   1      -0.007  85.005 112.581  0.00  0.00     0.006 C 
ENDBRANCH   8   9
BRANCH   8  11
ATOM     11  C   LIG d   1       2.474  82.662 111.881  0.00  0.00     0.028 C 
ATOM     12  C   LIG d   1       1.846  81.790 112.979  0.00  0.00     0.006 C 
ENDBRANCH   8  11
ENDBRANCH   7   8
ENDBRANCH   1   7
BRANCH   6  13
ATOM     13  N   LIG d   1       3.597  83.762 115.716  0.00  0.00    -0.311 N 
ATOM     14  C   LIG d   1       4.280  82.695 116.128  0.00  0.00     0.210 C 
ATOM     15  C   LIG d   1       3.420  81.534 116.638  0.00  0.00     0.109 C 
ATOM     16  O   LIG d   1       5.517  82.613 116.150  0.00  0.00    -0.276 OA
ATOM     17  H   LIG d   1       2.597  83.755 115.763  0.00  0.00     0.149 HD
ENDBRANCH   6  13
BRANCH   5  18
ATOM     18  N   LIG d   1       5.348  85.681 117.324  0.00  0.00     0.381 N 
ATOM     19  H   LIG d   1       6.286  85.930 117.081  0.00  0.00    -0.090 HD
ATOM     20  H   LIG d   1       5.305  84.683 117.433  0.00  0.00    -0.090 HD
ATOM     21  H   LIG d   1       5.087  86.127 118.175  0.00  0.00    -0.090 HD
ENDBRANCH   5  18
BRANCH   3  22
ATOM     22  C   LIG d   1       4.281  89.092 114.136  0.00  0.00     0.382 C 
ATOM     23  O   LIG d   1       4.108  89.942 115.043  0.00  0.00    -0.241 OA
ATOM     24  O   LIG d   1       4.392  89.470 112.954  0.00  0.00    -0.241 OA
ENDBRANCH   3  22
TORSDOF 7
ENDMDL
MODEL 5
REMARK VINA RESULT:      -4.8      5.198      6.438
REMARK  7 active torsions:
REMARK  status: ('A' for Active; 'I' for Inactive)
REMARK    1  A    between atoms: C_2  and  C_3 
REMARK    2  A    between atoms: C_3  and  O_6 
REMARK    3  A    between atoms: C_3  and  C_4 
REMARK    4  A    between atoms: C_7  and  O_6 
REMARK    5  A    between atoms: C_9  and  C_10 
REMARK    6  A    between atoms: N_15  and  C_14 
REMARK    7  A    between atoms: N_20  and  C_19 
REMARK       I    between atoms: C_22  and  N_20 
ROOT
ATOM      1  C   LIG d   1      -2.536  77.505 116.347  0.00  0.00     0.161 C 
ATOM      2  C   LIG d   1      -3.395  76.751 115.530  0.00  0.00     0.016 C 
ATOM      3  C   LIG d   1      -3.423  76.860 114.121  0.00  0.00     0.038 C 
ATOM      4  C   LIG d   1      -2.483  77.628 113.418  0.00  0.00     0.028 C 
ATOM      5  C   LIG d   1      -1.926  78.794 114.227  0.00  0.00    -0.047 C 
ATOM      6  C   LIG d   1      -1.427  78.266 115.591  0.00  0.00     0.091 C 
ENDROOT
BRANCH   1   7
ATOM      7  O   LIG d   1      -1.961  76.660 117.363  0.00  0.00    -0.368 OA
BRANCH   7   8
ATOM      8  C   LIG d   1      -1.694  75.290 116.977  0.00  0.00     0.119 C 
BRANCH   8   9
ATOM      9  C   LIG d   1      -1.798  74.422 118.246  0.00  0.00     0.028 C 
ATOM     10  C   LIG d   1      -0.490  73.673 118.554  0.00  0.00     0.006 C 
ENDBRANCH   8   9
BRANCH   8  11
ATOM     11  C   LIG d   1      -0.253  75.120 116.486  0.00  0.00     0.028 C 
ATOM     12  C   LIG d   1      -0.172  74.540 115.065  0.00  0.00     0.006 C 
ENDBRANCH   8  11
ENDBRANCH   7   8
ENDBRANCH   1   7
BRANCH   6  13
ATOM     13  N   LIG d   1      -0.943  79.356 116.478  0.00  0.00    -0.311 N 
ATOM     14  C   LIG d   1       0.151  79.257 117.231  0.00  0.00     0.210 C 
ATOM     15  C   LIG d   1       0.460  80.489 118.087  0.00  0.00     0.109 C 
ATOM     16  O   LIG d   1       0.913  78.279 117.246  0.00  0.00    -0.276 OA
ATOM     17  H   LIG d   1      -1.485  80.197 116.504  0.00  0.00     0.149 HD
ENDBRANCH   6  13
BRANCH   5  18
ATOM     18  N   LIG d   1      -0.860  79.424 113.425  0.00  0.00     0.381 N 
ATOM     19  H   LIG d   1      -0.223  79.906 114.028  0.00  0.00    -0.090 HD
ATOM     20  H   LIG d   1      -1.275  80.095 112.803  0.00  0.00    -0.090 HD
ATOM     21  H   LIG d   1      -0.373  78.731 112.901  0.00  0.00    -0.090 HD
ENDBRANCH   5  18
BRANCH   3  22
ATOM     22  C   LIG d   1      -4.427  76.228 113.403  0.00  0.00     0.382 C 
ATOM     23  O   LIG d   1      -4.821  76.714 112.315  0.00  0.00    -0.241 OA
ATOM     24  O   LIG d   1      -4.973  75.202 113.850  0.00  0.00    -0.241 OA
ENDBRANCH   3  22
TORSDOF 7
ENDMDL
MODEL 6
REMARK VINA RESULT:      -4.6     18.104     20.027
REMARK  7 active torsions:
REMARK  status: ('A' for Active; 'I' for Inactive)
REMARK    1  A    between atoms: C_2  and  C_3 
REMARK    2  A    between atoms: C_3  and  O_6 
REMARK    3  A    between atoms: C_3  and  C_4 
REMARK    4  A    between atoms: C_7  and  O_6 
REMARK    5  A    between atoms: C_9  and  C_10 
REMARK    6  A    between atoms: N_15  and  C_14 
REMARK    7  A    between atoms: N_20  and  C_19 
REMARK       I    between atoms: C_22  and  N_20 
ROOT
ATOM      1  C   LIG d   1     -24.258  83.581 112.977  0.00  0.00     0.161 C 
ATOM      2  C   LIG d   1     -23.310  84.529 113.397  0.00  0.00     0.016 C 
ATOM      3  C   LIG d   1     -23.657  85.797 113.918  0.00  0.00     0.038 C 
ATOM      4  C   LIG d   1     -24.986  86.145 114.198  0.00  0.00     0.028 C 
ATOM      5  C   LIG d   1     -26.000  85.417 113.322  0.00  0.00    -0.047 C 
ATOM      6  C   LIG d   1     -25.713  83.899 113.378  0.00  0.00     0.091 C 
ENDROOT
BRANCH   1   7
ATOM      7  O   LIG d   1     -23.883  82.272 113.452  0.00  0.00    -0.368 OA
BRANCH   7   8
ATOM      8  C   LIG d   1     -24.540  81.820 114.661  0.00  0.00     0.119 C 
BRANCH   8   9
ATOM      9  C   LIG d   1     -23.453  81.632 115.737  0.00  0.00     0.028 C 
ATOM     10  C   LIG d   1     -23.350  82.840 116.684  0.00  0.00     0.006 C 
ENDBRANCH   8   9
BRANCH   8  11
ATOM     11  C   LIG d   1     -25.165  80.435 114.470  0.00  0.00     0.028 C 
ATOM     12  C   LIG d   1     -24.648  79.403 115.485  0.00  0.00     0.006 C 
ENDBRANCH   8  11
ENDBRANCH   7   8
ENDBRANCH   1   7
BRANCH   6  13
ATOM     13  N   LIG d   1     -26.608  83.120 112.483  0.00  0.00    -0.311 N 
ATOM     14  C   LIG d   1     -27.757  82.581 112.884  0.00  0.00     0.210 C 
ATOM     15  C   LIG d   1     -28.516  81.800 111.806  0.00  0.00     0.109 C 
ATOM     16  O   LIG d   1     -28.237  82.701 114.021  0.00  0.00    -0.276 OA
ATOM     17  H   LIG d   1     -26.311  83.000 111.534  0.00  0.00     0.149 HD
ENDBRANCH   6  13
BRANCH   5  18
ATOM     18  N   LIG d   1     -27.347  85.770 113.812  0.00  0.00     0.381 N 
ATOM     19  H   LIG d   1     -27.963  84.990 113.699  0.00  0.00    -0.090 HD
ATOM     20  H   LIG d   1     -27.701  86.535 113.266  0.00  0.00    -0.090 HD
ATOM     21  H   LIG d   1     -27.303  86.030 114.773  0.00  0.00    -0.090 HD
ENDBRANCH   5  18
BRANCH   3  22
ATOM     22  C   LIG d   1     -22.669  86.747 114.128  0.00  0.00     0.382 C 
ATOM     23  O   LIG d   1     -22.895  87.733 114.870  0.00  0.00    -0.241 OA
ATOM     24  O   LIG d   1     -21.569  86.653 113.551  0.00  0.00    -0.241 OA
ENDBRANCH   3  22
TORSDOF 7
ENDMDL
MODEL 7
REMARK VINA RESULT:      -4.6     16.697     18.878
REMARK  7 active torsions:
REMARK  status: ('A' for Active; 'I' for Inactive)
REMARK    1  A    between atoms: C_2  and  C_3 
REMARK    2  A    between atoms: C_3  and  O_6 
REMARK    3  A    between atoms: C_3  and  C_4 
REMARK    4  A    between atoms: C_7  and  O_6 
REMARK    5  A    between atoms: C_9  and  C_10 
REMARK    6  A    between atoms: N_15  and  C_14 
REMARK    7  A    between atoms: N_20  and  C_19 
REMARK       I    between atoms: C_22  and  N_20 
ROOT
ATOM      1  C   LIG d   1     -23.766  83.667 115.732  0.00  0.00     0.161 C 
ATOM      2  C   LIG d   1     -23.262  84.971 115.598  0.00  0.00     0.016 C 
ATOM      3  C   LIG d   1     -23.279  85.691 114.381  0.00  0.00     0.038 C 
ATOM      4  C   LIG d   1     -23.944  85.209 113.244  0.00  0.00     0.028 C 
ATOM      5  C   LIG d   1     -24.026  83.687 113.190  0.00  0.00    -0.047 C 
ATOM      6  C   LIG d   1     -24.595  83.167 114.531  0.00  0.00     0.091 C 
ENDROOT
BRANCH   1   7
ATOM      7  O   LIG d   1     -24.533  83.562 116.948  0.00  0.00    -0.368 OA
BRANCH   7   8
ATOM      8  C   LIG d   1     -23.893  82.868 118.047  0.00  0.00     0.119 C 
BRANCH   8   9
ATOM      9  C   LIG d   1     -22.611  82.212 117.498  0.00  0.00     0.028 C 
ATOM     10  C   LIG d   1     -21.409  82.395 118.439  0.00  0.00     0.006 C 
ENDBRANCH   8   9
BRANCH   8  11
ATOM     11  C   LIG d   1     -24.757  81.708 118.552  0.00  0.00     0.028 C 
ATOM     12  C   LIG d   1     -24.406  80.369 117.884  0.00  0.00     0.006 C 
ENDBRANCH   8  11
ENDBRANCH   7   8
ENDBRANCH   1   7
BRANCH   6  13
ATOM     13  N   LIG d   1     -24.630  81.683 114.594  0.00  0.00    -0.311 N 
ATOM     14  C   LIG d   1     -25.702  80.960 114.276  0.00  0.00     0.210 C 
ATOM     15  C   LIG d   1     -25.531  79.446 114.431  0.00  0.00     0.109 C 
ATOM     16  O   LIG d   1     -26.769  81.428 113.850  0.00  0.00    -0.276 OA
ATOM     17  H   LIG d   1     -23.796  81.220 114.900  0.00  0.00     0.149 HD
ENDBRANCH   6  13
BRANCH   5  18
ATOM     18  N   LIG d   1     -24.862  83.326 112.029  0.00  0.00     0.381 N 
ATOM     19  H   LIG d   1     -24.294  83.275 111.207  0.00  0.00    -0.090 HD
ATOM     20  H   LIG d   1     -25.553  84.042 111.891  0.00  0.00    -0.090 HD
ATOM     21  H   LIG d   1     -25.308  82.450 112.189  0.00  0.00    -0.090 HD
ENDBRANCH   5  18
BRANCH   3  22
ATOM     22  C   LIG d   1     -22.592  86.891 114.283  0.00  0.00     0.382 C 
ATOM     23  O   LIG d   1     -23.069  87.931 114.797  0.00  0.00    -0.241 OA
ATOM     24  O   LIG d   1     -21.522  86.956 113.648  0.00  0.00    -0.241 OA
ENDBRANCH   3  22
TORSDOF 7
ENDMDL
MODEL 8
REMARK VINA RESULT:      -4.6     16.445     18.815
REMARK  7 active torsions:
REMARK  status: ('A' for Active; 'I' for Inactive)
REMARK    1  A    between atoms: C_2  and  C_3 
REMARK    2  A    between atoms: C_3  and  O_6 
REMARK    3  A    between atoms: C_3  and  C_4 
REMARK    4  A    between atoms: C_7  and  O_6 
REMARK    5  A    between atoms: C_9  and  C_10 
REMARK    6  A    between atoms: N_15  and  C_14 
REMARK    7  A    between atoms: N_20  and  C_19 
REMARK       I    between atoms: C_22  and  N_20 
ROOT
ATOM      1  C   LIG d   1     -23.988  83.048 115.563  0.00  0.00     0.161 C 
ATOM      2  C   LIG d   1     -24.495  81.756 115.348  0.00  0.00     0.016 C 
ATOM      3  C   LIG d   1     -24.941  81.295 114.088  0.00  0.00     0.038 C 
ATOM      4  C   LIG d   1     -24.767  82.049 112.918  0.00  0.00     0.028 C 
ATOM      5  C   LIG d   1     -24.722  83.553 113.168  0.00  0.00    -0.047 C 
ATOM      6  C   LIG d   1     -23.687  83.847 114.278  0.00  0.00     0.091 C 
ENDROOT
BRANCH   1   7
ATOM      7  O   LIG d   1     -22.814  82.979 116.397  0.00  0.00    -0.368 OA
BRANCH   7   8
ATOM      8  C   LIG d   1     -22.703  83.992 117.426  0.00  0.00     0.119 C 
BRANCH   8   9
ATOM      9  C   LIG d   1     -21.829  83.411 118.555  0.00  0.00     0.028 C 
ATOM     10  C   LIG d   1     -21.526  81.917 118.353  0.00  0.00     0.006 C 
ENDBRANCH   8   9
BRANCH   8  11
ATOM     11  C   LIG d   1     -24.061  84.280 118.073  0.00  0.00     0.028 C 
ATOM     12  C   LIG d   1     -24.342  85.784 118.224  0.00  0.00     0.006 C 
ENDBRANCH   8  11
ENDBRANCH   7   8
ENDBRANCH   1   7
BRANCH   6  13
ATOM     13  N   LIG d   1     -23.641  85.287 114.643  0.00  0.00    -0.311 N 
ATOM     14  C   LIG d   1     -22.723  86.132 114.177  0.00  0.00     0.210 C 
ATOM     15  C   LIG d   1     -22.845  87.569 114.696  0.00  0.00     0.109 C 
ATOM     16  O   LIG d   1     -21.840  85.837 113.359  0.00  0.00    -0.276 OA
ATOM     17  H   LIG d   1     -24.340  85.618 115.279  0.00  0.00     0.149 HD
ENDBRANCH   6  13
BRANCH   5  18
ATOM     18  N   LIG d   1     -24.399  84.209 111.887  0.00  0.00     0.381 N 
ATOM     19  H   LIG d   1     -24.599  85.187 111.948  0.00  0.00    -0.090 HD
ATOM     20  H   LIG d   1     -24.975  83.813 111.165  0.00  0.00    -0.090 HD
ATOM     21  H   LIG d   1     -23.437  84.071 111.667  0.00  0.00    -0.090 HD
ENDBRANCH   5  18
BRANCH   3  22
ATOM     22  C   LIG d   1     -25.605  80.081 113.996  0.00  0.00     0.382 C 
ATOM     23  O   LIG d   1     -25.946  79.637 112.873  0.00  0.00    -0.241 OA
ATOM     24  O   LIG d   1     -25.906  79.446 115.024  0.00  0.00    -0.241 OA
ENDBRANCH   3  22
TORSDOF 7
ENDMDL
MODEL 9
REMARK VINA RESULT:      -4.5     18.142     19.593
REMARK  7 active torsions:
REMARK  status: ('A' for Active; 'I' for Inactive)
REMARK    1  A    between atoms: C_2  and  C_3 
REMARK    2  A    between atoms: C_3  and  O_6 
REMARK    3  A    between atoms: C_3  and  C_4 
REMARK    4  A    between atoms: C_7  and  O_6 
REMARK    5  A    between atoms: C_9  and  C_10 
REMARK    6  A    between atoms: N_15  and  C_14 
REMARK    7  A    between atoms: N_20  and  C_19 
REMARK       I    between atoms: C_22  and  N_20 
ROOT
ATOM      1  C   LIG d   1     -23.476  83.584 115.971  0.00  0.00     0.161 C 
ATOM      2  C   LIG d   1     -23.061  84.902 115.718  0.00  0.00     0.016 C 
ATOM      3  C   LIG d   1     -23.160  85.519 114.449  0.00  0.00     0.038 C 
ATOM      4  C   LIG d   1     -23.825  84.906 113.377  0.00  0.00     0.028 C 
ATOM      5  C   LIG d   1     -23.810  83.383 113.445  0.00  0.00    -0.047 C 
ATOM      6  C   LIG d   1     -24.306  82.939 114.840  0.00  0.00     0.091 C 
ENDROOT
BRANCH   1   7
ATOM      7  O   LIG d   1     -24.200  83.530 117.216  0.00  0.00    -0.368 OA
BRANCH   7   8
ATOM      8  C   LIG d   1     -25.609  83.860 117.150  0.00  0.00     0.119 C 
BRANCH   8   9
ATOM      9  C   LIG d   1     -25.837  85.097 118.039  0.00  0.00     0.028 C 
ATOM     10  C   LIG d   1     -26.051  86.380 117.217  0.00  0.00     0.006 C 
ENDBRANCH   8   9
BRANCH   8  11
ATOM     11  C   LIG d   1     -26.470  82.753 117.766  0.00  0.00     0.028 C 
ATOM     12  C   LIG d   1     -27.892  82.712 117.185  0.00  0.00     0.006 C 
ENDBRANCH   8  11
ENDBRANCH   7   8
ENDBRANCH   1   7
BRANCH   6  13
ATOM     13  N   LIG d   1     -24.243  81.465 115.021  0.00  0.00    -0.311 N 
ATOM     14  C   LIG d   1     -25.283  80.657 114.823  0.00  0.00     0.210 C 
ATOM     15  C   LIG d   1     -25.009  79.173 115.085  0.00  0.00     0.109 C 
ATOM     16  O   LIG d   1     -26.398  81.025 114.424  0.00  0.00    -0.276 OA
ATOM     17  H   LIG d   1     -23.367  81.078 115.314  0.00  0.00     0.149 HD
ENDBRANCH   6  13
BRANCH   5  18
ATOM     18  N   LIG d   1     -24.654  82.879 112.345  0.00  0.00     0.381 N 
ATOM     19  H   LIG d   1     -24.160  82.174 111.835  0.00  0.00    -0.090 HD
ATOM     20  H   LIG d   1     -24.857  83.638 111.718  0.00  0.00    -0.090 HD
ATOM     21  H   LIG d   1     -25.501  82.504 112.709  0.00  0.00    -0.090 HD
ENDBRANCH   5  18
BRANCH   3  22
ATOM     22  C   LIG d   1     -22.554  86.747 114.234  0.00  0.00     0.382 C 
ATOM     23  O   LIG d   1     -23.012  87.777 114.784  0.00  0.00    -0.241 OA
ATOM     24  O   LIG d   1     -21.582  86.846 113.461  0.00  0.00    -0.241 OA
ENDBRANCH   3  22
TORSDOF 7
ENDMDL
