MODEL 1
REMARK VINA RESULT:      -5.6      0.000      0.000
REMARK  7 active torsions:
REMARK  status: ('A' for Active; 'I' for Inactive)
REMARK    1  A    between atoms: C_2  and  C_3 
REMARK    2  A    between atoms: C_3  and  O_6 
REMARK    3  A    between atoms: C_3  and  C_4 
REMARK    4  A    between atoms: C_7  and  O_6 
REMARK    5  A    between atoms: C_9  and  C_10 
REMARK    6  A    between atoms: N_15  and  C_14 
REMARK    7  A    between atoms: N_20  and  C_19 
REMARK       I    between atoms: C_22  and  N_20 
ROOT
ATOM      1  C   LIG d   1      -5.470  75.933 116.011  0.00  0.00     0.161 C 
ATOM      2  C   LIG d   1      -5.896  74.650 115.629  0.00  0.00     0.016 C 
ATOM      3  C   LIG d   1      -7.091  74.056 116.097  0.00  0.00     0.038 C 
ATOM      4  C   LIG d   1      -8.023  74.770 116.865  0.00  0.00     0.028 C 
ATOM      5  C   LIG d   1      -7.397  75.891 117.688  0.00  0.00    -0.047 C 
ATOM      6  C   LIG d   1      -6.528  76.770 116.760  0.00  0.00     0.091 C 
ENDROOT
BRANCH   1   7
ATOM      7  O   LIG d   1      -4.988  76.651 114.857  0.00  0.00    -0.368 OA
BRANCH   7   8
ATOM      8  C   LIG d   1      -3.555  76.844 114.779  0.00  0.00     0.119 C 
BRANCH   8   9
ATOM      9  C   LIG d   1      -3.307  78.276 114.267  0.00  0.00     0.028 C 
ATOM     10  C   LIG d   1      -3.210  79.300 115.410  0.00  0.00     0.006 C 
ENDBRANCH   8   9
BRANCH   8  11
ATOM     11  C   LIG d   1      -2.925  75.923 113.730  0.00  0.00     0.028 C 
ATOM     12  C   LIG d   1      -1.390  75.893 113.808  0.00  0.00     0.006 C 
ENDBRANCH   8  11
ENDBRANCH   7   8
ENDBRANCH   1   7
BRANCH   6  13
ATOM     13  N   LIG d   1      -5.812  77.841 117.501  0.00  0.00    -0.311 N 
ATOM     14  C   LIG d   1      -6.295  79.073 117.656  0.00  0.00     0.210 C 
ATOM     15  C   LIG d   1      -5.387  80.029 118.436  0.00  0.00     0.109 C 
ATOM     16  O   LIG d   1      -7.402  79.455 117.250  0.00  0.00    -0.276 OA
ATOM     17  H   LIG d   1      -4.920  77.608 117.890  0.00  0.00     0.149 HD
ENDBRANCH   6  13
BRANCH   5  18
ATOM     18  N   LIG d   1      -8.495  76.638 118.331  0.00  0.00     0.381 N 
ATOM     19  H   LIG d   1      -9.360  76.155 118.191  0.00  0.00    -0.090 HD
ATOM     20  H   LIG d   1      -8.566  77.543 117.902  0.00  0.00    -0.090 HD
ATOM     21  H   LIG d   1      -8.315  76.737 119.305  0.00  0.00    -0.090 HD
ENDBRANCH   5  18
BRANCH   3  22
ATOM     22  C   LIG d   1      -7.344  72.719 115.829  0.00  0.00     0.382 C 
ATOM     23  O   LIG d   1      -6.477  72.020 115.251  0.00  0.00    -0.241 OA
ATOM     24  O   LIG d   1      -8.445  72.215 116.118  0.00  0.00    -0.241 OA
ENDBRANCH   3  22
TORSDOF 7
ENDMDL
MODEL 2
REMARK VINA RESULT:      -5.2      2.320      5.353
REMARK  7 active torsions:
REMARK  status: ('A' for Active; 'I' for Inactive)
REMARK    1  A    between atoms: C_2  and  C_3 
REMARK    2  A    between atoms: C_3  and  O_6 
REMARK    3  A    between atoms: C_3  and  C_4 
REMARK    4  A    between atoms: C_7  and  O_6 
REMARK    5  A    between atoms: C_9  and  C_10 
REMARK    6  A    between atoms: N_15  and  C_14 
REMARK    7  A    between atoms: N_20  and  C_19 
REMARK       I    between atoms: C_22  and  N_20 
ROOT
ATOM      1  C   LIG d   1      -6.507  76.640 117.217  0.00  0.00     0.161 C 
ATOM      2  C   LIG d   1      -7.677  77.351 117.533  0.00  0.00     0.016 C 
ATOM      3  C   LIG d   1      -7.700  78.743 117.778  0.00  0.00     0.038 C 
ATOM      4  C   LIG d   1      -6.571  79.551 117.573  0.00  0.00     0.028 C 
ATOM      5  C   LIG d   1      -5.253  78.803 117.745  0.00  0.00    -0.047 C 
ATOM      6  C   LIG d   1      -5.287  77.522 116.880  0.00  0.00     0.091 C 
ENDROOT
BRANCH   1   7
ATOM      7  O   LIG d   1      -6.772  75.718 116.141  0.00  0.00    -0.368 OA
BRANCH   7   8
ATOM      8  C   LIG d   1      -6.645  74.311 116.462  0.00  0.00     0.119 C 
BRANCH   8   9
ATOM      9  C   LIG d   1      -5.944  73.626 115.273  0.00  0.00     0.028 C 
ATOM     10  C   LIG d   1      -5.342  74.639 114.284  0.00  0.00     0.006 C 
ENDBRANCH   8   9
BRANCH   8  11
ATOM     11  C   LIG d   1      -8.017  73.638 116.567  0.00  0.00     0.028 C 
ATOM     12  C   LIG d   1      -8.002  72.178 116.087  0.00  0.00     0.006 C 
ENDBRANCH   8  11
ENDBRANCH   7   8
ENDBRANCH   1   7
BRANCH   6  13
ATOM     13  N   LIG d   1      -4.068  76.688 117.055  0.00  0.00    -0.311 N 
ATOM     14  C   LIG d   1      -3.013  76.755 116.245  0.00  0.00     0.210 C 
ATOM     15  C   LIG d   1      -1.871  75.794 116.592  0.00  0.00     0.109 C 
ATOM     16  O   LIG d   1      -2.900  77.541 115.293  0.00  0.00    -0.276 OA
ATOM     17  H   LIG d   1      -4.062  76.045 117.822  0.00  0.00     0.149 HD
ENDBRANCH   6  13
BRANCH   5  18
ATOM     18  N   LIG d   1      -4.165  79.726 117.369  0.00  0.00     0.381 N 
ATOM     19  H   LIG d   1      -3.978  80.355 118.124  0.00  0.00    -0.090 HD
ATOM     20  H   LIG d   1      -4.457  80.266 116.573  0.00  0.00    -0.090 HD
ATOM     21  H   LIG d   1      -3.343  79.210 117.145  0.00  0.00    -0.090 HD
ENDBRANCH   5  18
BRANCH   3  22
ATOM     22  C   LIG d   1      -8.853  79.336 118.271  0.00  0.00     0.382 C 
ATOM     23  O   LIG d   1      -9.902  78.659 118.395  0.00  0.00    -0.241 OA
ATOM     24  O   LIG d   1      -8.869  80.549 118.552  0.00  0.00    -0.241 OA
ENDBRANCH   3  22
TORSDOF 7
ENDMDL
MODEL 3
REMARK VINA RESULT:      -5.2      3.172      6.290
REMARK  7 active torsions:
REMARK  status: ('A' for Active; 'I' for Inactive)
REMARK    1  A    between atoms: C_2  and  C_3 
REMARK    2  A    between atoms: C_3  and  O_6 
REMARK    3  A    between atoms: C_3  and  C_4 
REMARK    4  A    between atoms: C_7  and  O_6 
REMARK    5  A    between atoms: C_9  and  C_10 
REMARK    6  A    between atoms: N_15  and  C_14 
REMARK    7  A    between atoms: N_20  and  C_19 
REMARK       I    between atoms: C_22  and  N_20 
ROOT
ATOM      1  C   LIG d   1      -3.321  76.623 116.324  0.00  0.00     0.161 C 
ATOM      2  C   LIG d   1      -3.625  77.815 115.645  0.00  0.00     0.016 C 
ATOM      3  C   LIG d   1      -2.929  78.255 114.496  0.00  0.00     0.038 C 
ATOM      4  C   LIG d   1      -1.974  77.452 113.855  0.00  0.00     0.028 C 
ATOM      5  C   LIG d   1      -1.282  76.468 114.792  0.00  0.00    -0.047 C 
ATOM      6  C   LIG d   1      -2.357  75.680 115.575  0.00  0.00     0.091 C 
ENDROOT
BRANCH   1   7
ATOM      7  O   LIG d   1      -4.539  75.929 116.662  0.00  0.00    -0.368 OA
BRANCH   7   8
ATOM      8  C   LIG d   1      -5.677  76.184 115.803  0.00  0.00     0.119 C 
BRANCH   8   9
ATOM      9  C   LIG d   1      -6.939  76.158 116.687  0.00  0.00     0.028 C 
ATOM     10  C   LIG d   1      -7.918  75.044 116.280  0.00  0.00     0.006 C 
ENDBRANCH   8   9
BRANCH   8  11
ATOM     11  C   LIG d   1      -5.871  75.055 114.786  0.00  0.00     0.028 C 
ATOM     12  C   LIG d   1      -5.263  75.380 113.412  0.00  0.00     0.006 C 
ENDBRANCH   8  11
ENDBRANCH   7   8
ENDBRANCH   1   7
BRANCH   6  13
ATOM     13  N   LIG d   1      -1.765  74.754 116.575  0.00  0.00    -0.311 N 
ATOM     14  C   LIG d   1      -0.975  75.157 117.569  0.00  0.00     0.210 C 
ATOM     15  C   LIG d   1      -0.455  74.037 118.476  0.00  0.00     0.109 C 
ATOM     16  O   LIG d   1      -0.681  76.339 117.804  0.00  0.00    -0.276 OA
ATOM     17  H   LIG d   1      -1.977  73.781 116.478  0.00  0.00     0.149 HD
ENDBRANCH   6  13
BRANCH   5  18
ATOM     18  N   LIG d   1      -0.415  75.603 113.970  0.00  0.00     0.381 N 
ATOM     19  H   LIG d   1       0.358  76.133 113.620  0.00  0.00    -0.090 HD
ATOM     20  H   LIG d   1      -0.945  75.263 113.186  0.00  0.00    -0.090 HD
ATOM     21  H   LIG d   1      -0.083  74.837 114.513  0.00  0.00    -0.090 HD
ENDBRANCH   5  18
BRANCH   3  22
ATOM     22  C   LIG d   1      -3.158  79.529 114.000  0.00  0.00     0.382 C 
ATOM     23  O   LIG d   1      -3.104  80.520 114.768  0.00  0.00    -0.241 OA
ATOM     24  O   LIG d   1      -3.463  79.696 112.804  0.00  0.00    -0.241 OA
ENDBRANCH   3  22
TORSDOF 7
ENDMDL
MODEL 4
REMARK VINA RESULT:      -5.1      2.629      6.205
REMARK  7 active torsions:
REMARK  status: ('A' for Active; 'I' for Inactive)
REMARK    1  A    between atoms: C_2  and  C_3 
REMARK    2  A    between atoms: C_3  and  O_6 
REMARK    3  A    between atoms: C_3  and  C_4 
REMARK    4  A    between atoms: C_7  and  O_6 
REMARK    5  A    between atoms: C_9  and  C_10 
REMARK    6  A    between atoms: N_15  and  C_14 
REMARK    7  A    between atoms: N_20  and  C_19 
REMARK       I    between atoms: C_22  and  N_20 
ROOT
ATOM      1  C   LIG d   1      -4.961  77.728 116.347  0.00  0.00     0.161 C 
ATOM      2  C   LIG d   1      -5.759  78.686 116.994  0.00  0.00     0.016 C 
ATOM      3  C   LIG d   1      -5.377  80.037 117.155  0.00  0.00     0.038 C 
ATOM      4  C   LIG d   1      -4.228  80.561 116.543  0.00  0.00     0.028 C 
ATOM      5  C   LIG d   1      -3.139  79.520 116.308  0.00  0.00    -0.047 C 
ATOM      6  C   LIG d   1      -3.755  78.306 115.576  0.00  0.00     0.091 C 
ENDROOT
BRANCH   1   7
ATOM      7  O   LIG d   1      -5.775  76.923 115.473  0.00  0.00    -0.368 OA
BRANCH   7   8
ATOM      8  C   LIG d   1      -6.182  75.632 115.990  0.00  0.00     0.119 C 
BRANCH   8   9
ATOM      9  C   LIG d   1      -5.679  74.559 115.005  0.00  0.00     0.028 C 
ATOM     10  C   LIG d   1      -5.172  75.165 113.686  0.00  0.00     0.006 C 
ENDBRANCH   8   9
BRANCH   8  11
ATOM     11  C   LIG d   1      -7.707  75.491 115.999  0.00  0.00     0.028 C 
ATOM     12  C   LIG d   1      -8.336  75.906 117.339  0.00  0.00     0.006 C 
ENDBRANCH   8  11
ENDBRANCH   7   8
ENDBRANCH   1   7
BRANCH   6  13
ATOM     13  N   LIG d   1      -2.776  77.204 115.382  0.00  0.00    -0.311 N 
ATOM     14  C   LIG d   1      -2.079  77.033 114.260  0.00  0.00     0.210 C 
ATOM     15  C   LIG d   1      -1.139  75.823 114.261  0.00  0.00     0.109 C 
ATOM     16  O   LIG d   1      -2.126  77.786 113.276  0.00  0.00    -0.276 OA
ATOM     17  H   LIG d   1      -2.653  76.565 116.142  0.00  0.00     0.149 HD
ENDBRANCH   6  13
BRANCH   5  18
ATOM     18  N   LIG d   1      -2.059  80.170 115.542  0.00  0.00     0.381 N 
ATOM     19  H   LIG d   1      -2.414  80.492 114.664  0.00  0.00    -0.090 HD
ATOM     20  H   LIG d   1      -1.337  79.495 115.362  0.00  0.00    -0.090 HD
ATOM     21  H   LIG d   1      -1.687  80.935 116.059  0.00  0.00    -0.090 HD
ENDBRANCH   5  18
BRANCH   3  22
ATOM     22  C   LIG d   1      -6.127  80.872 117.970  0.00  0.00     0.382 C 
ATOM     23  O   LIG d   1      -7.363  80.688 118.087  0.00  0.00    -0.241 OA
ATOM     24  O   LIG d   1      -5.592  81.833 118.554  0.00  0.00    -0.241 OA
ENDBRANCH   3  22
TORSDOF 7
ENDMDL
MODEL 5
REMARK VINA RESULT:      -4.9      2.656      5.913
REMARK  7 active torsions:
REMARK  status: ('A' for Active; 'I' for Inactive)
REMARK    1  A    between atoms: C_2  and  C_3 
REMARK    2  A    between atoms: C_3  and  O_6 
REMARK    3  A    between atoms: C_3  and  C_4 
REMARK    4  A    between atoms: C_7  and  O_6 
REMARK    5  A    between atoms: C_9  and  C_10 
REMARK    6  A    between atoms: N_15  and  C_14 
REMARK    7  A    between atoms: N_20  and  C_19 
REMARK       I    between atoms: C_22  and  N_20 
ROOT
ATOM      1  C   LIG d   1      -5.105  77.230 117.661  0.00  0.00     0.161 C 
ATOM      2  C   LIG d   1      -5.954  78.348 117.711  0.00  0.00     0.016 C 
ATOM      3  C   LIG d   1      -5.593  79.622 117.217  0.00  0.00     0.038 C 
ATOM      4  C   LIG d   1      -4.406  79.829 116.497  0.00  0.00     0.028 C 
ATOM      5  C   LIG d   1      -3.297  78.849 116.864  0.00  0.00    -0.047 C 
ATOM      6  C   LIG d   1      -3.851  77.409 116.780  0.00  0.00     0.091 C 
ENDROOT
BRANCH   1   7
ATOM      7  O   LIG d   1      -5.850  76.069 117.242  0.00  0.00    -0.368 OA
BRANCH   7   8
ATOM      8  C   LIG d   1      -6.792  76.273 116.160  0.00  0.00     0.119 C 
BRANCH   8   9
ATOM      9  C   LIG d   1      -8.102  75.557 116.546  0.00  0.00     0.028 C 
ATOM     10  C   LIG d   1      -8.077  75.026 117.989  0.00  0.00     0.006 C 
ENDBRANCH   8   9
BRANCH   8  11
ATOM     11  C   LIG d   1      -6.320  75.589 114.874  0.00  0.00     0.028 C 
ATOM     12  C   LIG d   1      -5.589  74.263 115.138  0.00  0.00     0.006 C 
ENDBRANCH   8  11
ENDBRANCH   7   8
ENDBRANCH   1   7
BRANCH   6  13
ATOM     13  N   LIG d   1      -2.854  76.392 117.205  0.00  0.00    -0.311 N 
ATOM     14  C   LIG d   1      -2.099  75.703 116.350  0.00  0.00     0.210 C 
ATOM     15  C   LIG d   1      -1.150  74.690 116.997  0.00  0.00     0.109 C 
ATOM     16  O   LIG d   1      -2.103  75.859 115.120  0.00  0.00    -0.276 OA
ATOM     17  H   LIG d   1      -2.764  76.225 118.188  0.00  0.00     0.149 HD
ENDBRANCH   6  13
BRANCH   5  18
ATOM     18  N   LIG d   1      -2.169  79.089 115.944  0.00  0.00     0.381 N 
ATOM     19  H   LIG d   1      -2.407  78.773 115.026  0.00  0.00    -0.090 HD
ATOM     20  H   LIG d   1      -1.373  78.564 116.262  0.00  0.00    -0.090 HD
ATOM     21  H   LIG d   1      -1.947  80.060 115.922  0.00  0.00    -0.090 HD
ENDBRANCH   5  18
BRANCH   3  22
ATOM     22  C   LIG d   1      -6.405  80.716 117.476  0.00  0.00     0.382 C 
ATOM     23  O   LIG d   1      -5.947  81.702 118.101  0.00  0.00    -0.241 OA
ATOM     24  O   LIG d   1      -7.602  80.709 117.132  0.00  0.00    -0.241 OA
ENDBRANCH   3  22
TORSDOF 7
ENDMDL
MODEL 6
REMARK VINA RESULT:      -4.9      3.948      7.256
REMARK  7 active torsions:
REMARK  status: ('A' for Active; 'I' for Inactive)
REMARK    1  A    between atoms: C_2  and  C_3 
REMARK    2  A    between atoms: C_3  and  O_6 
REMARK    3  A    between atoms: C_3  and  C_4 
REMARK    4  A    between atoms: C_7  and  O_6 
REMARK    5  A    between atoms: C_9  and  C_10 
REMARK    6  A    between atoms: N_15  and  C_14 
REMARK    7  A    between atoms: N_20  and  C_19 
REMARK       I    between atoms: C_22  and  N_20 
ROOT
ATOM      1  C   LIG d   1      -2.567  78.653 114.727  0.00  0.00     0.161 C 
ATOM      2  C   LIG d   1      -2.944  79.687 113.854  0.00  0.00     0.016 C 
ATOM      3  C   LIG d   1      -2.115  80.792 113.551  0.00  0.00     0.038 C 
ATOM      4  C   LIG d   1      -0.784  80.860 113.988  0.00  0.00     0.028 C 
ATOM      5  C   LIG d   1      -0.529  80.092 115.280  0.00  0.00    -0.047 C 
ATOM      6  C   LIG d   1      -1.077  78.655 115.125  0.00  0.00     0.091 C 
ENDROOT
BRANCH   1   7
ATOM      7  O   LIG d   1      -2.934  77.379 114.163  0.00  0.00    -0.368 OA
BRANCH   7   8
ATOM      8  C   LIG d   1      -4.199  76.827 114.604  0.00  0.00     0.119 C 
BRANCH   8   9
ATOM      9  C   LIG d   1      -3.943  76.084 115.929  0.00  0.00     0.028 C 
ATOM     10  C   LIG d   1      -4.510  76.839 117.144  0.00  0.00     0.006 C 
ENDBRANCH   8   9
BRANCH   8  11
ATOM     11  C   LIG d   1      -4.710  75.758 113.632  0.00  0.00     0.028 C 
ATOM     12  C   LIG d   1      -5.374  74.571 114.348  0.00  0.00     0.006 C 
ENDBRANCH   8  11
ENDBRANCH   7   8
ENDBRANCH   1   7
BRANCH   6  13
ATOM     13  N   LIG d   1      -0.944  77.860 116.374  0.00  0.00    -0.311 N 
ATOM     14  C   LIG d   1      -0.526  76.596 116.398  0.00  0.00     0.210 C 
ATOM     15  C   LIG d   1      -0.481  75.955 117.789  0.00  0.00     0.109 C 
ATOM     16  O   LIG d   1      -0.157  75.954 115.403  0.00  0.00    -0.276 OA
ATOM     17  H   LIG d   1      -1.193  78.313 117.232  0.00  0.00     0.149 HD
ENDBRANCH   6  13
BRANCH   5  18
ATOM     18  N   LIG d   1       0.921  80.133 115.545  0.00  0.00     0.381 N 
ATOM     19  H   LIG d   1       1.336  80.891 115.041  0.00  0.00    -0.090 HD
ATOM     20  H   LIG d   1       1.335  79.276 115.221  0.00  0.00    -0.090 HD
ATOM     21  H   LIG d   1       1.087  80.242 116.521  0.00  0.00    -0.090 HD
ENDBRANCH   5  18
BRANCH   3  22
ATOM     22  C   LIG d   1      -2.630  81.862 112.836  0.00  0.00     0.382 C 
ATOM     23  O   LIG d   1      -1.899  82.846 112.567  0.00  0.00    -0.241 OA
ATOM     24  O   LIG d   1      -3.828  81.877 112.496  0.00  0.00    -0.241 OA
ENDBRANCH   3  22
TORSDOF 7
ENDMDL
MODEL 7
REMARK VINA RESULT:      -4.8      3.640      5.394
REMARK  7 active torsions:
REMARK  status: ('A' for Active; 'I' for Inactive)
REMARK    1  A    between atoms: C_2  and  C_3 
REMARK    2  A    between atoms: C_3  and  O_6 
REMARK    3  A    between atoms: C_3  and  C_4 
REMARK    4  A    between atoms: C_7  and  O_6 
REMARK    5  A    between atoms: C_9  and  C_10 
REMARK    6  A    between atoms: N_15  and  C_14 
REMARK    7  A    between atoms: N_20  and  C_19 
REMARK       I    between atoms: C_22  and  N_20 
ROOT
ATOM      1  C   LIG d   1      -1.534  77.117 114.318  0.00  0.00     0.161 C 
ATOM      2  C   LIG d   1      -2.802  76.751 113.837  0.00  0.00     0.016 C 
ATOM      3  C   LIG d   1      -3.611  75.765 114.446  0.00  0.00     0.038 C 
ATOM      4  C   LIG d   1      -3.268  75.180 115.675  0.00  0.00     0.028 C 
ATOM      5  C   LIG d   1      -1.766  75.150 115.933  0.00  0.00    -0.047 C 
ATOM      6  C   LIG d   1      -1.191  76.570 115.719  0.00  0.00     0.091 C 
ENDROOT
BRANCH   1   7
ATOM      7  O   LIG d   1      -1.397  78.551 114.293  0.00  0.00    -0.368 OA
BRANCH   7   8
ATOM      8  C   LIG d   1      -2.614  79.304 114.071  0.00  0.00     0.119 C 
BRANCH   8   9
ATOM      9  C   LIG d   1      -2.317  80.358 112.987  0.00  0.00     0.028 C 
ATOM     10  C   LIG d   1      -0.869  80.279 112.474  0.00  0.00     0.006 C 
ENDBRANCH   8   9
BRANCH   8  11
ATOM     11  C   LIG d   1      -3.009  80.104 115.316  0.00  0.00     0.028 C 
ATOM     12  C   LIG d   1      -4.021  79.364 116.204  0.00  0.00     0.006 C 
ENDBRANCH   8  11
ENDBRANCH   7   8
ENDBRANCH   1   7
BRANCH   6  13
ATOM     13  N   LIG d   1       0.287  76.612 115.870  0.00  0.00    -0.311 N 
ATOM     14  C   LIG d   1       0.899  76.964 116.999  0.00  0.00     0.210 C 
ATOM     15  C   LIG d   1       2.429  76.959 116.934  0.00  0.00     0.109 C 
ATOM     16  O   LIG d   1       0.320  77.248 118.058  0.00  0.00    -0.276 OA
ATOM     17  H   LIG d   1       0.834  76.365 115.068  0.00  0.00     0.149 HD
ENDBRANCH   6  13
BRANCH   5  18
ATOM     18  N   LIG d   1      -1.559  74.643 117.303  0.00  0.00     0.381 N 
ATOM     19  H   LIG d   1      -1.450  73.649 117.283  0.00  0.00    -0.090 HD
ATOM     20  H   LIG d   1      -2.369  74.861 117.856  0.00  0.00    -0.090 HD
ATOM     21  H   LIG d   1      -0.750  75.065 117.704  0.00  0.00    -0.090 HD
ENDBRANCH   5  18
BRANCH   3  22
ATOM     22  C   LIG d   1      -4.759  75.325 113.805  0.00  0.00     0.382 C 
ATOM     23  O   LIG d   1      -5.182  75.931 112.791  0.00  0.00    -0.241 OA
ATOM     24  O   LIG d   1      -5.401  74.357 114.253  0.00  0.00    -0.241 OA
ENDBRANCH   3  22
TORSDOF 7
ENDMDL
MODEL 8
REMARK VINA RESULT:      -4.7      3.410      6.812
REMARK  7 active torsions:
REMARK  status: ('A' for Active; 'I' for Inactive)
REMARK    1  A    between atoms: C_2  and  C_3 
REMARK    2  A    between atoms: C_3  and  O_6 
REMARK    3  A    between atoms: C_3  and  C_4 
REMARK    4  A    between atoms: C_7  and  O_6 
REMARK    5  A    between atoms: C_9  and  C_10 
REMARK    6  A    between atoms: N_15  and  C_14 
REMARK    7  A    between atoms: N_20  and  C_19 
REMARK       I    between atoms: C_22  and  N_20 
ROOT
ATOM      1  C   LIG d   1      -2.611  79.415 116.142  0.00  0.00     0.161 C 
ATOM      2  C   LIG d   1      -2.902  80.403 115.186  0.00  0.00     0.016 C 
ATOM      3  C   LIG d   1      -2.694  80.229 113.799  0.00  0.00     0.038 C 
ATOM      4  C   LIG d   1      -2.320  78.991 113.255  0.00  0.00     0.028 C 
ATOM      5  C   LIG d   1      -1.531  78.117 114.224  0.00  0.00    -0.047 C 
ATOM      6  C   LIG d   1      -2.307  78.020 115.557  0.00  0.00     0.091 C 
ENDROOT
BRANCH   1   7
ATOM      7  O   LIG d   1      -3.682  79.334 117.102  0.00  0.00    -0.368 OA
BRANCH   7   8
ATOM      8  C   LIG d   1      -4.956  78.861 116.598  0.00  0.00     0.119 C 
BRANCH   8   9
ATOM      9  C   LIG d   1      -6.059  79.713 117.256  0.00  0.00     0.028 C 
ATOM     10  C   LIG d   1      -5.657  81.192 117.390  0.00  0.00     0.006 C 
ENDBRANCH   8   9
BRANCH   8  11
ATOM     11  C   LIG d   1      -5.233  77.423 117.045  0.00  0.00     0.028 C 
ATOM     12  C   LIG d   1      -5.783  76.543 115.911  0.00  0.00     0.006 C 
ENDBRANCH   8  11
ENDBRANCH   7   8
ENDBRANCH   1   7
BRANCH   6  13
ATOM     13  N   LIG d   1      -1.564  77.251 116.590  0.00  0.00    -0.311 N 
ATOM     14  C   LIG d   1      -1.757  75.953 116.818  0.00  0.00     0.210 C 
ATOM     15  C   LIG d   1      -0.901  75.360 117.942  0.00  0.00     0.109 C 
ATOM     16  O   LIG d   1      -2.531  75.229 116.174  0.00  0.00    -0.276 OA
ATOM     17  H   LIG d   1      -0.894  77.754 117.138  0.00  0.00     0.149 HD
ENDBRANCH   6  13
BRANCH   5  18
ATOM     18  N   LIG d   1      -1.326  76.807 113.577  0.00  0.00     0.381 N 
ATOM     19  H   LIG d   1      -2.193  76.473 113.207  0.00  0.00    -0.090 HD
ATOM     20  H   LIG d   1      -1.004  76.151 114.267  0.00  0.00    -0.090 HD
ATOM     21  H   LIG d   1      -0.654  76.888 112.847  0.00  0.00    -0.090 HD
ENDBRANCH   5  18
BRANCH   3  22
ATOM     22  C   LIG d   1      -2.822  81.312 112.943  0.00  0.00     0.382 C 
ATOM     23  O   LIG d   1      -3.591  82.258 113.240  0.00  0.00    -0.241 OA
ATOM     24  O   LIG d   1      -2.213  81.335 111.857  0.00  0.00    -0.241 OA
ENDBRANCH   3  22
TORSDOF 7
ENDMDL
MODEL 9
REMARK VINA RESULT:      -4.4      3.065      6.029
REMARK  7 active torsions:
REMARK  status: ('A' for Active; 'I' for Inactive)
REMARK    1  A    between atoms: C_2  and  C_3 
REMARK    2  A    between atoms: C_3  and  O_6 
REMARK    3  A    between atoms: C_3  and  C_4 
REMARK    4  A    between atoms: C_7  and  O_6 
REMARK    5  A    between atoms: C_9  and  C_10 
REMARK    6  A    between atoms: N_15  and  C_14 
REMARK    7  A    between atoms: N_20  and  C_19 
REMARK       I    between atoms: C_22  and  N_20 
ROOT
ATOM      1  C   LIG d   1      -3.149  78.479 114.964  0.00  0.00     0.161 C 
ATOM      2  C   LIG d   1      -2.827  79.343 113.903  0.00  0.00     0.016 C 
ATOM      3  C   LIG d   1      -2.770  80.749 114.036  0.00  0.00     0.038 C 
ATOM      4  C   LIG d   1      -2.884  81.382 115.283  0.00  0.00     0.028 C 
ATOM      5  C   LIG d   1      -3.708  80.589 116.291  0.00  0.00    -0.047 C 
ATOM      6  C   LIG d   1      -3.167  79.143 116.356  0.00  0.00     0.091 C 
ENDROOT
BRANCH   1   7
ATOM      7  O   LIG d   1      -2.256  77.347 114.960  0.00  0.00    -0.368 OA
BRANCH   7   8
ATOM      8  C   LIG d   1      -2.855  76.064 114.654  0.00  0.00     0.119 C 
BRANCH   8   9
ATOM      9  C   LIG d   1      -4.235  76.335 114.024  0.00  0.00     0.028 C 
ATOM     10  C   LIG d   1      -5.307  75.346 114.510  0.00  0.00     0.006 C 
ENDBRANCH   8   9
BRANCH   8  11
ATOM     11  C   LIG d   1      -3.142  75.266 115.930  0.00  0.00     0.028 C 
ATOM     12  C   LIG d   1      -1.944  75.229 116.892  0.00  0.00     0.006 C 
ENDBRANCH   8  11
ENDBRANCH   7   8
ENDBRANCH   1   7
BRANCH   6  13
ATOM     13  N   LIG d   1      -3.970  78.277 117.257  0.00  0.00    -0.311 N 
ATOM     14  C   LIG d   1      -5.287  78.115 117.137  0.00  0.00     0.210 C 
ATOM     15  C   LIG d   1      -5.924  77.194 118.182  0.00  0.00     0.109 C 
ATOM     16  O   LIG d   1      -5.983  78.622 116.244  0.00  0.00    -0.276 OA
ATOM     17  H   LIG d   1      -3.481  77.803 117.991  0.00  0.00     0.149 HD
ENDBRANCH   6  13
BRANCH   5  18
ATOM     18  N   LIG d   1      -3.630  81.295 117.584  0.00  0.00     0.381 N 
ATOM     19  H   LIG d   1      -4.173  82.135 117.545  0.00  0.00    -0.090 HD
ATOM     20  H   LIG d   1      -2.673  81.546 117.760  0.00  0.00    -0.090 HD
ATOM     21  H   LIG d   1      -3.966  80.707 118.315  0.00  0.00    -0.090 HD
ENDBRANCH   5  18
BRANCH   3  22
ATOM     22  C   LIG d   1      -2.637  81.541 112.905  0.00  0.00     0.382 C 
ATOM     23  O   LIG d   1      -1.495  81.811 112.460  0.00  0.00    -0.241 OA
ATOM     24  O   LIG d   1      -3.641  82.026 112.351  0.00  0.00    -0.241 OA
ENDBRANCH   3  22
TORSDOF 7
ENDMDL
