MODEL 1
REMARK VINA RESULT:      -4.8      0.000      0.000
REMARK  7 active torsions:
REMARK  status: ('A' for Active; 'I' for Inactive)
REMARK    1  A    between atoms: C_2  and  C_3 
REMARK    2  A    between atoms: C_3  and  O_6 
REMARK    3  A    between atoms: C_3  and  C_4 
REMARK    4  A    between atoms: C_7  and  O_6 
REMARK    5  A    between atoms: C_9  and  C_10 
REMARK    6  A    between atoms: N_15  and  C_14 
REMARK    7  A    between atoms: N_20  and  C_19 
REMARK       I    between atoms: C_22  and  N_20 
ROOT
ATOM      1  C   LIG d   1     -25.567  85.201 114.354  0.00  0.00     0.161 C 
ATOM      2  C   LIG d   1     -24.556  86.173 114.269  0.00  0.00     0.016 C 
ATOM      3  C   LIG d   1     -23.251  85.899 113.798  0.00  0.00     0.038 C 
ATOM      4  C   LIG d   1     -22.911  84.660 113.235  0.00  0.00     0.028 C 
ATOM      5  C   LIG d   1     -23.751  83.503 113.764  0.00  0.00    -0.047 C 
ATOM      6  C   LIG d   1     -25.247  83.871 113.640  0.00  0.00     0.091 C 
ENDROOT
BRANCH   1   7
ATOM      7  O   LIG d   1     -26.810  85.745 113.867  0.00  0.00    -0.368 OA
BRANCH   7   8
ATOM      8  C   LIG d   1     -27.045  85.621 112.442  0.00  0.00     0.119 C 
BRANCH   8   9
ATOM      9  C   LIG d   1     -26.822  87.010 111.814  0.00  0.00     0.028 C 
ATOM     10  C   LIG d   1     -27.937  88.005 112.178  0.00  0.00     0.006 C 
ENDBRANCH   8   9
BRANCH   8  11
ATOM     11  C   LIG d   1     -28.507  85.273 112.147  0.00  0.00     0.028 C 
ATOM     12  C   LIG d   1     -29.190  84.535 113.310  0.00  0.00     0.006 C 
ENDBRANCH   8  11
ENDBRANCH   7   8
ENDBRANCH   1   7
BRANCH   6  13
ATOM     13  N   LIG d   1     -26.137  82.828 114.213  0.00  0.00    -0.311 N 
ATOM     14  C   LIG d   1     -26.667  81.840 113.493  0.00  0.00     0.210 C 
ATOM     15  C   LIG d   1     -27.572  80.884 114.275  0.00  0.00     0.109 C 
ATOM     16  O   LIG d   1     -26.448  81.647 112.287  0.00  0.00    -0.276 OA
ATOM     17  H   LIG d   1     -26.343  82.890 115.190  0.00  0.00     0.149 HD
ENDBRANCH   6  13
BRANCH   5  18
ATOM     18  N   LIG d   1     -23.386  82.299 112.994  0.00  0.00     0.381 N 
ATOM     19  H   LIG d   1     -22.395  82.168 113.019  0.00  0.00    -0.090 HD
ATOM     20  H   LIG d   1     -23.662  82.429 112.037  0.00  0.00    -0.090 HD
ATOM     21  H   LIG d   1     -23.844  81.500 113.374  0.00  0.00    -0.090 HD
ENDBRANCH   5  18
BRANCH   3  22
ATOM     22  C   LIG d   1     -22.259  86.860 113.926  0.00  0.00     0.382 C 
ATOM     23  O   LIG d   1     -22.485  87.912 114.571  0.00  0.00    -0.241 OA
ATOM     24  O   LIG d   1     -21.157  86.707 113.367  0.00  0.00    -0.241 OA
ENDBRANCH   3  22
TORSDOF 7
ENDMDL
MODEL 2
REMARK VINA RESULT:      -4.5     25.595     28.268
REMARK  7 active torsions:
REMARK  status: ('A' for Active; 'I' for Inactive)
REMARK    1  A    between atoms: C_2  and  C_3 
REMARK    2  A    between atoms: C_3  and  O_6 
REMARK    3  A    between atoms: C_3  and  C_4 
REMARK    4  A    between atoms: C_7  and  O_6 
REMARK    5  A    between atoms: C_9  and  C_10 
REMARK    6  A    between atoms: N_15  and  C_14 
REMARK    7  A    between atoms: N_20  and  C_19 
REMARK       I    between atoms: C_22  and  N_20 
ROOT
ATOM      1  C   LIG d   1       2.482  86.331 113.700  0.00  0.00     0.161 C 
ATOM      2  C   LIG d   1       2.880  87.645 113.405  0.00  0.00     0.016 C 
ATOM      3  C   LIG d   1       3.720  88.411 114.246  0.00  0.00     0.038 C 
ATOM      4  C   LIG d   1       4.344  87.858 115.373  0.00  0.00     0.028 C 
ATOM      5  C   LIG d   1       3.571  86.693 115.983  0.00  0.00    -0.047 C 
ATOM      6  C   LIG d   1       3.242  85.672 114.870  0.00  0.00     0.091 C 
ENDROOT
BRANCH   1   7
ATOM      7  O   LIG d   1       2.577  85.514 112.517  0.00  0.00    -0.368 OA
BRANCH   7   8
ATOM      8  C   LIG d   1       1.338  85.274 111.806  0.00  0.00     0.119 C 
BRANCH   8   9
ATOM      9  C   LIG d   1       0.218  86.008 112.568  0.00  0.00     0.028 C 
ATOM     10  C   LIG d   1      -1.145  85.892 111.864  0.00  0.00     0.006 C 
ENDBRANCH   8   9
BRANCH   8  11
ATOM     11  C   LIG d   1       0.951  83.793 111.844  0.00  0.00     0.028 C 
ATOM     12  C   LIG d   1       2.161  82.866 112.038  0.00  0.00     0.006 C 
ENDBRANCH   8  11
ENDBRANCH   7   8
ENDBRANCH   1   7
BRANCH   6  13
ATOM     13  N   LIG d   1       2.414  84.541 115.364  0.00  0.00    -0.311 N 
ATOM     14  C   LIG d   1       2.924  83.374 115.752  0.00  0.00     0.210 C 
ATOM     15  C   LIG d   1       1.892  82.337 116.208  0.00  0.00     0.109 C 
ATOM     16  O   LIG d   1       4.135  83.109 115.792  0.00  0.00    -0.276 OA
ATOM     17  H   LIG d   1       1.423  84.681 115.395  0.00  0.00     0.149 HD
ENDBRANCH   6  13
BRANCH   5  18
ATOM     18  N   LIG d   1       4.400  86.124 117.062  0.00  0.00     0.381 N 
ATOM     19  H   LIG d   1       3.999  85.265 117.381  0.00  0.00    -0.090 HD
ATOM     20  H   LIG d   1       4.417  86.769 117.833  0.00  0.00    -0.090 HD
ATOM     21  H   LIG d   1       5.327  85.964 116.733  0.00  0.00    -0.090 HD
ENDBRANCH   5  18
BRANCH   3  22
ATOM     22  C   LIG d   1       3.910  89.759 113.983  0.00  0.00     0.382 C 
ATOM     23  O   LIG d   1       3.951  90.167 112.797  0.00  0.00    -0.241 OA
ATOM     24  O   LIG d   1       4.086  90.566 114.916  0.00  0.00    -0.241 OA
ENDBRANCH   3  22
TORSDOF 7
ENDMDL
MODEL 3
REMARK VINA RESULT:      -4.4     34.951     38.035
REMARK  7 active torsions:
REMARK  status: ('A' for Active; 'I' for Inactive)
REMARK    1  A    between atoms: C_2  and  C_3 
REMARK    2  A    between atoms: C_3  and  O_6 
REMARK    3  A    between atoms: C_3  and  C_4 
REMARK    4  A    between atoms: C_7  and  O_6 
REMARK    5  A    between atoms: C_9  and  C_10 
REMARK    6  A    between atoms: N_15  and  C_14 
REMARK    7  A    between atoms: N_20  and  C_19 
REMARK       I    between atoms: C_22  and  N_20 
ROOT
ATOM      1  C   LIG d   1      11.664  77.690 114.887  0.00  0.00     0.161 C 
ATOM      2  C   LIG d   1      10.425  77.109 115.205  0.00  0.00     0.016 C 
ATOM      3  C   LIG d   1       9.218  77.842 115.277  0.00  0.00     0.038 C 
ATOM      4  C   LIG d   1       9.143  79.187 114.887  0.00  0.00     0.028 C 
ATOM      5  C   LIG d   1      10.461  79.938 115.044  0.00  0.00    -0.047 C 
ATOM      6  C   LIG d   1      11.583  79.134 114.350  0.00  0.00     0.091 C 
ENDROOT
BRANCH   1   7
ATOM      7  O   LIG d   1      12.374  76.848 113.957  0.00  0.00    -0.368 OA
BRANCH   7   8
ATOM      8  C   LIG d   1      13.663  76.356 114.398  0.00  0.00     0.119 C 
BRANCH   8   9
ATOM      9  C   LIG d   1      14.719  76.860 113.395  0.00  0.00     0.028 C 
ATOM     10  C   LIG d   1      14.094  77.322 112.068  0.00  0.00     0.006 C 
ENDBRANCH   8   9
BRANCH   8  11
ATOM     11  C   LIG d   1      13.731  74.828 114.325  0.00  0.00     0.028 C 
ATOM     12  C   LIG d   1      12.709  74.141 115.245  0.00  0.00     0.006 C 
ENDBRANCH   8  11
ENDBRANCH   7   8
ENDBRANCH   1   7
BRANCH   6  13
ATOM     13  N   LIG d   1      12.921  79.756 114.529  0.00  0.00    -0.311 N 
ATOM     14  C   LIG d   1      13.458  80.605 113.654  0.00  0.00     0.210 C 
ATOM     15  C   LIG d   1      14.855  81.114 114.021  0.00  0.00     0.109 C 
ATOM     16  O   LIG d   1      12.896  81.009 112.625  0.00  0.00    -0.276 OA
ATOM     17  H   LIG d   1      13.433  79.507 115.352  0.00  0.00     0.149 HD
ENDBRANCH   6  13
BRANCH   5  18
ATOM     18  N   LIG d   1      10.277  81.286 114.473  0.00  0.00     0.381 N 
ATOM     19  H   LIG d   1      11.168  81.721 114.339  0.00  0.00    -0.090 HD
ATOM     20  H   LIG d   1       9.748  81.844 115.120  0.00  0.00    -0.090 HD
ATOM     21  H   LIG d   1       9.794  81.225 113.604  0.00  0.00    -0.090 HD
ENDBRANCH   5  18
BRANCH   3  22
ATOM     22  C   LIG d   1       8.077  77.239 115.783  0.00  0.00     0.382 C 
ATOM     23  O   LIG d   1       7.554  77.672 116.838  0.00  0.00    -0.241 OA
ATOM     24  O   LIG d   1       7.590  76.239 115.223  0.00  0.00    -0.241 OA
ENDBRANCH   3  22
TORSDOF 7
ENDMDL
MODEL 4
REMARK VINA RESULT:      -4.4     34.940     37.948
REMARK  7 active torsions:
REMARK  status: ('A' for Active; 'I' for Inactive)
REMARK    1  A    between atoms: C_2  and  C_3 
REMARK    2  A    between atoms: C_3  and  O_6 
REMARK    3  A    between atoms: C_3  and  C_4 
REMARK    4  A    between atoms: C_7  and  O_6 
REMARK    5  A    between atoms: C_9  and  C_10 
REMARK    6  A    between atoms: N_15  and  C_14 
REMARK    7  A    between atoms: N_20  and  C_19 
REMARK       I    between atoms: C_22  and  N_20 
ROOT
ATOM      1  C   LIG d   1      11.373  78.783 114.097  0.00  0.00     0.161 C 
ATOM      2  C   LIG d   1      10.053  78.840 114.576  0.00  0.00     0.016 C 
ATOM      3  C   LIG d   1       9.374  77.727 115.123  0.00  0.00     0.038 C 
ATOM      4  C   LIG d   1      10.025  76.509 115.369  0.00  0.00     0.028 C 
ATOM      5  C   LIG d   1      11.207  76.256 114.439  0.00  0.00    -0.047 C 
ATOM      6  C   LIG d   1      12.136  77.491 114.459  0.00  0.00     0.091 C 
ENDROOT
BRANCH   1   7
ATOM      7  O   LIG d   1      12.106  79.940 114.545  0.00  0.00    -0.368 OA
BRANCH   7   8
ATOM      8  C   LIG d   1      12.609  80.817 113.507  0.00  0.00     0.119 C 
BRANCH   8   9
ATOM      9  C   LIG d   1      11.901  80.432 112.193  0.00  0.00     0.028 C 
ATOM     10  C   LIG d   1      10.800  81.434 111.805  0.00  0.00     0.006 C 
ENDBRANCH   8   9
BRANCH   8  11
ATOM     11  C   LIG d   1      14.099  80.578 113.249  0.00  0.00     0.028 C 
ATOM     12  C   LIG d   1      14.959  80.761 114.510  0.00  0.00     0.006 C 
ENDBRANCH   8  11
ENDBRANCH   7   8
ENDBRANCH   1   7
BRANCH   6  13
ATOM     13  N   LIG d   1      13.274  77.361 113.512  0.00  0.00    -0.311 N 
ATOM     14  C   LIG d   1      14.471  76.896 113.864  0.00  0.00     0.210 C 
ATOM     15  C   LIG d   1      15.509  76.862 112.737  0.00  0.00     0.109 C 
ATOM     16  O   LIG d   1      14.763  76.477 114.994  0.00  0.00    -0.276 OA
ATOM     17  H   LIG d   1      13.115  77.648 112.566  0.00  0.00     0.149 HD
ENDBRANCH   6  13
BRANCH   5  18
ATOM     18  N   LIG d   1      11.876  75.022 114.894  0.00  0.00     0.381 N 
ATOM     19  H   LIG d   1      11.301  74.553 115.565  0.00  0.00    -0.090 HD
ATOM     20  H   LIG d   1      12.743  75.267 115.338  0.00  0.00    -0.090 HD
ATOM     21  H   LIG d   1      12.049  74.422 114.118  0.00  0.00    -0.090 HD
ENDBRANCH   5  18
BRANCH   3  22
ATOM     22  C   LIG d   1       8.017  77.815 115.394  0.00  0.00     0.382 C 
ATOM     23  O   LIG d   1       7.340  76.770 115.548  0.00  0.00    -0.241 OA
ATOM     24  O   LIG d   1       7.453  78.925 115.441  0.00  0.00    -0.241 OA
ENDBRANCH   3  22
TORSDOF 7
ENDMDL
MODEL 5
REMARK VINA RESULT:      -4.4     22.005     24.571
REMARK  7 active torsions:
REMARK  status: ('A' for Active; 'I' for Inactive)
REMARK    1  A    between atoms: C_2  and  C_3 
REMARK    2  A    between atoms: C_3  and  O_6 
REMARK    3  A    between atoms: C_3  and  C_4 
REMARK    4  A    between atoms: C_7  and  O_6 
REMARK    5  A    between atoms: C_9  and  C_10 
REMARK    6  A    between atoms: N_15  and  C_14 
REMARK    7  A    between atoms: N_20  and  C_19 
REMARK       I    between atoms: C_22  and  N_20 
ROOT
ATOM      1  C   LIG d   1      -3.006  75.528 115.659  0.00  0.00     0.161 C 
ATOM      2  C   LIG d   1      -2.460  74.647 116.608  0.00  0.00     0.016 C 
ATOM      3  C   LIG d   1      -1.207  74.852 117.229  0.00  0.00     0.038 C 
ATOM      4  C   LIG d   1      -0.477  76.037 117.054  0.00  0.00     0.028 C 
ATOM      5  C   LIG d   1      -0.748  76.723 115.719  0.00  0.00    -0.047 C 
ATOM      6  C   LIG d   1      -2.275  76.881 115.537  0.00  0.00     0.091 C 
ENDROOT
BRANCH   1   7
ATOM      7  O   LIG d   1      -4.405  75.736 115.933  0.00  0.00    -0.368 OA
BRANCH   7   8
ATOM      8  C   LIG d   1      -5.335  75.086 115.033  0.00  0.00     0.119 C 
BRANCH   8   9
ATOM      9  C   LIG d   1      -5.371  75.910 113.731  0.00  0.00     0.028 C 
ATOM     10  C   LIG d   1      -6.796  76.351 113.355  0.00  0.00     0.006 C 
ENDBRANCH   8   9
BRANCH   8  11
ATOM     11  C   LIG d   1      -6.765  75.131 115.580  0.00  0.00     0.028 C 
ATOM     12  C   LIG d   1      -7.329  73.734 115.888  0.00  0.00     0.006 C 
ENDBRANCH   8  11
ENDBRANCH   7   8
ENDBRANCH   1   7
BRANCH   6  13
ATOM     13  N   LIG d   1      -2.631  77.468 114.219  0.00  0.00    -0.311 N 
ATOM     14  C   LIG d   1      -2.774  78.776 114.014  0.00  0.00     0.210 C 
ATOM     15  C   LIG d   1      -3.163  79.167 112.585  0.00  0.00     0.109 C 
ATOM     16  O   LIG d   1      -2.583  79.652 114.871  0.00  0.00    -0.276 OA
ATOM     17  H   LIG d   1      -2.773  76.831 113.460  0.00  0.00     0.149 HD
ENDBRANCH   6  13
BRANCH   5  18
ATOM     18  N   LIG d   1      -0.030  78.012 115.727  0.00  0.00     0.381 N 
ATOM     19  H   LIG d   1       0.867  77.902 115.297  0.00  0.00    -0.090 HD
ATOM     20  H   LIG d   1       0.110  78.300 116.679  0.00  0.00    -0.090 HD
ATOM     21  H   LIG d   1      -0.559  78.700 115.237  0.00  0.00    -0.090 HD
ENDBRANCH   5  18
BRANCH   3  22
ATOM     22  C   LIG d   1      -0.653  73.846 118.006  0.00  0.00     0.382 C 
ATOM     23  O   LIG d   1       0.462  74.019 118.555  0.00  0.00    -0.241 OA
ATOM     24  O   LIG d   1      -1.233  72.750 118.129  0.00  0.00    -0.241 OA
ENDBRANCH   3  22
TORSDOF 7
ENDMDL
MODEL 6
REMARK VINA RESULT:      -4.3     26.847     28.970
REMARK  7 active torsions:
REMARK  status: ('A' for Active; 'I' for Inactive)
REMARK    1  A    between atoms: C_2  and  C_3 
REMARK    2  A    between atoms: C_3  and  O_6 
REMARK    3  A    between atoms: C_3  and  C_4 
REMARK    4  A    between atoms: C_7  and  O_6 
REMARK    5  A    between atoms: C_9  and  C_10 
REMARK    6  A    between atoms: N_15  and  C_14 
REMARK    7  A    between atoms: N_20  and  C_19 
REMARK       I    between atoms: C_22  and  N_20 
ROOT
ATOM      1  C   LIG d   1       2.334  87.306 115.393  0.00  0.00     0.161 C 
ATOM      2  C   LIG d   1       2.857  88.610 115.379  0.00  0.00     0.016 C 
ATOM      3  C   LIG d   1       4.141  88.938 115.872  0.00  0.00     0.038 C 
ATOM      4  C   LIG d   1       5.054  87.952 116.277  0.00  0.00     0.028 C 
ATOM      5  C   LIG d   1       4.386  86.677 116.780  0.00  0.00    -0.047 C 
ATOM      6  C   LIG d   1       3.357  86.201 115.728  0.00  0.00     0.091 C 
ENDROOT
BRANCH   1   7
ATOM      7  O   LIG d   1       1.688  87.026 114.135  0.00  0.00    -0.368 OA
BRANCH   7   8
ATOM      8  C   LIG d   1       2.509  86.391 113.125  0.00  0.00     0.119 C 
BRANCH   8   9
ATOM      9  C   LIG d   1       3.060  87.503 112.210  0.00  0.00     0.028 C 
ATOM     10  C   LIG d   1       4.596  87.577 112.237  0.00  0.00     0.006 C 
ENDBRANCH   8   9
BRANCH   8  11
ATOM     11  C   LIG d   1       1.672  85.492 112.210  0.00  0.00     0.028 C 
ATOM     12  C   LIG d   1       0.938  84.381 112.978  0.00  0.00     0.006 C 
ENDBRANCH   8  11
ENDBRANCH   7   8
ENDBRANCH   1   7
BRANCH   6  13
ATOM     13  N   LIG d   1       2.598  85.006 116.179  0.00  0.00    -0.311 N 
ATOM     14  C   LIG d   1       2.958  83.757 115.890  0.00  0.00     0.210 C 
ATOM     15  C   LIG d   1       2.024  82.672 116.435  0.00  0.00     0.109 C 
ATOM     16  O   LIG d   1       3.980  83.443 115.261  0.00  0.00    -0.276 OA
ATOM     17  H   LIG d   1       1.772  85.168 116.721  0.00  0.00     0.149 HD
ENDBRANCH   6  13
BRANCH   5  18
ATOM     18  N   LIG d   1       5.449  85.688 117.038  0.00  0.00     0.381 N 
ATOM     19  H   LIG d   1       6.244  86.143 117.442  0.00  0.00    -0.090 HD
ATOM     20  H   LIG d   1       5.731  85.279 116.164  0.00  0.00    -0.090 HD
ATOM     21  H   LIG d   1       5.114  84.980 117.653  0.00  0.00    -0.090 HD
ENDBRANCH   5  18
BRANCH   3  22
ATOM     22  C   LIG d   1       4.508  90.269 116.001  0.00  0.00     0.382 C 
ATOM     23  O   LIG d   1       5.540  90.575 116.647  0.00  0.00    -0.241 OA
ATOM     24  O   LIG d   1       3.797  91.170 115.518  0.00  0.00    -0.241 OA
ENDBRANCH   3  22
TORSDOF 7
ENDMDL
MODEL 7
REMARK VINA RESULT:      -4.2      1.491      2.013
REMARK  7 active torsions:
REMARK  status: ('A' for Active; 'I' for Inactive)
REMARK    1  A    between atoms: C_2  and  C_3 
REMARK    2  A    between atoms: C_3  and  O_6 
REMARK    3  A    between atoms: C_3  and  C_4 
REMARK    4  A    between atoms: C_7  and  O_6 
REMARK    5  A    between atoms: C_9  and  C_10 
REMARK    6  A    between atoms: N_15  and  C_14 
REMARK    7  A    between atoms: N_20  and  C_19 
REMARK       I    between atoms: C_22  and  N_20 
ROOT
ATOM      1  C   LIG d   1     -25.660  85.323 114.104  0.00  0.00     0.161 C 
ATOM      2  C   LIG d   1     -24.603  86.247 114.055  0.00  0.00     0.016 C 
ATOM      3  C   LIG d   1     -23.271  85.890 113.742  0.00  0.00     0.038 C 
ATOM      4  C   LIG d   1     -22.932  84.601 113.305  0.00  0.00     0.028 C 
ATOM      5  C   LIG d   1     -23.872  83.519 113.825  0.00  0.00    -0.047 C 
ATOM      6  C   LIG d   1     -25.330  83.932 113.522  0.00  0.00     0.091 C 
ENDROOT
BRANCH   1   7
ATOM      7  O   LIG d   1     -26.822  85.875 113.455  0.00  0.00    -0.368 OA
BRANCH   7   8
ATOM      8  C   LIG d   1     -26.889  87.320 113.390  0.00  0.00     0.119 C 
BRANCH   8   9
ATOM      9  C   LIG d   1     -28.109  87.765 114.220  0.00  0.00     0.028 C 
ATOM     10  C   LIG d   1     -29.411  87.089 113.758  0.00  0.00     0.006 C 
ENDBRANCH   8   9
BRANCH   8  11
ATOM     11  C   LIG d   1     -27.172  87.801 111.964  0.00  0.00     0.028 C 
ATOM     12  C   LIG d   1     -27.052  89.326 111.814  0.00  0.00     0.006 C 
ENDBRANCH   8  11
ENDBRANCH   7   8
ENDBRANCH   1   7
BRANCH   6  13
ATOM     13  N   LIG d   1     -26.318  82.968 114.073  0.00  0.00    -0.311 N 
ATOM     14  C   LIG d   1     -26.371  82.627 115.359  0.00  0.00     0.210 C 
ATOM     15  C   LIG d   1     -27.453  81.602 115.712  0.00  0.00     0.109 C 
ATOM     16  O   LIG d   1     -25.646  83.100 116.247  0.00  0.00    -0.276 OA
ATOM     17  H   LIG d   1     -26.966  82.560 113.428  0.00  0.00     0.149 HD
ENDBRANCH   6  13
BRANCH   5  18
ATOM     18  N   LIG d   1     -23.486  82.248 113.183  0.00  0.00     0.381 N 
ATOM     19  H   LIG d   1     -22.495  82.222 113.051  0.00  0.00    -0.090 HD
ATOM     20  H   LIG d   1     -23.926  82.192 112.282  0.00  0.00    -0.090 HD
ATOM     21  H   LIG d   1     -23.773  81.479 113.749  0.00  0.00    -0.090 HD
ENDBRANCH   5  18
BRANCH   3  22
ATOM     22  C   LIG d   1     -22.255  86.820 113.902  0.00  0.00     0.382 C 
ATOM     23  O   LIG d   1     -22.456  87.858 114.578  0.00  0.00    -0.241 OA
ATOM     24  O   LIG d   1     -21.154  86.655 113.344  0.00  0.00    -0.241 OA
ENDBRANCH   3  22
TORSDOF 7
ENDMDL
MODEL 8
REMARK VINA RESULT:      -4.1     35.033     37.302
REMARK  7 active torsions:
REMARK  status: ('A' for Active; 'I' for Inactive)
REMARK    1  A    between atoms: C_2  and  C_3 
REMARK    2  A    between atoms: C_3  and  O_6 
REMARK    3  A    between atoms: C_3  and  C_4 
REMARK    4  A    between atoms: C_7  and  O_6 
REMARK    5  A    between atoms: C_9  and  C_10 
REMARK    6  A    between atoms: N_15  and  C_14 
REMARK    7  A    between atoms: N_20  and  C_19 
REMARK       I    between atoms: C_22  and  N_20 
ROOT
ATOM      1  C   LIG d   1      11.832  79.053 115.725  0.00  0.00     0.161 C 
ATOM      2  C   LIG d   1      11.209  77.893 115.235  0.00  0.00     0.016 C 
ATOM      3  C   LIG d   1       9.830  77.624 115.393  0.00  0.00     0.038 C 
ATOM      4  C   LIG d   1       8.946  78.574 115.924  0.00  0.00     0.028 C 
ATOM      5  C   LIG d   1       9.612  79.550 116.888  0.00  0.00    -0.047 C 
ATOM      6  C   LIG d   1      10.863  80.152 116.208  0.00  0.00     0.091 C 
ENDROOT
BRANCH   1   7
ATOM      7  O   LIG d   1      12.732  79.581 114.731  0.00  0.00    -0.368 OA
BRANCH   7   8
ATOM      8  C   LIG d   1      12.338  79.394 113.349  0.00  0.00     0.119 C 
BRANCH   8   9
ATOM      9  C   LIG d   1      13.478  78.637 112.641  0.00  0.00     0.028 C 
ATOM     10  C   LIG d   1      14.800  78.702 113.424  0.00  0.00     0.006 C 
ENDBRANCH   8   9
BRANCH   8  11
ATOM     11  C   LIG d   1      12.223  80.733 112.616  0.00  0.00     0.028 C 
ATOM     12  C   LIG d   1      10.815  80.987 112.055  0.00  0.00     0.006 C 
ENDBRANCH   8  11
ENDBRANCH   7   8
ENDBRANCH   1   7
BRANCH   6  13
ATOM     13  N   LIG d   1      11.621  81.054 117.114  0.00  0.00    -0.311 N 
ATOM     14  C   LIG d   1      11.472  82.377 117.124  0.00  0.00     0.210 C 
ATOM     15  C   LIG d   1      12.366  83.121 118.121  0.00  0.00     0.109 C 
ATOM     16  O   LIG d   1      10.661  83.003 116.424  0.00  0.00    -0.276 OA
ATOM     17  H   LIG d   1      12.278  80.627 117.737  0.00  0.00     0.149 HD
ENDBRANCH   6  13
BRANCH   5  18
ATOM     18  N   LIG d   1       8.609  80.566 117.258  0.00  0.00     0.381 N 
ATOM     19  H   LIG d   1       7.716  80.313 116.883  0.00  0.00    -0.090 HD
ATOM     20  H   LIG d   1       8.878  81.449 116.860  0.00  0.00    -0.090 HD
ATOM     21  H   LIG d   1       8.551  80.644 118.249  0.00  0.00    -0.090 HD
ENDBRANCH   5  18
BRANCH   3  22
ATOM     22  C   LIG d   1       9.331  76.375 115.054  0.00  0.00     0.382 C 
ATOM     23  O   LIG d   1      10.117  75.450 114.737  0.00  0.00    -0.241 OA
ATOM     24  O   LIG d   1       8.102  76.175 115.019  0.00  0.00    -0.241 OA
ENDBRANCH   3  22
TORSDOF 7
ENDMDL
MODEL 9
REMARK VINA RESULT:      -4.1     35.882     38.880
REMARK  7 active torsions:
REMARK  status: ('A' for Active; 'I' for Inactive)
REMARK    1  A    between atoms: C_2  and  C_3 
REMARK    2  A    between atoms: C_3  and  O_6 
REMARK    3  A    between atoms: C_3  and  C_4 
REMARK    4  A    between atoms: C_7  and  O_6 
REMARK    5  A    between atoms: C_9  and  C_10 
REMARK    6  A    between atoms: N_15  and  C_14 
REMARK    7  A    between atoms: N_20  and  C_19 
REMARK       I    between atoms: C_22  and  N_20 
ROOT
ATOM      1  C   LIG d   1      12.686  78.528 113.404  0.00  0.00     0.161 C 
ATOM      2  C   LIG d   1      12.097  79.793 113.239  0.00  0.00     0.016 C 
ATOM      3  C   LIG d   1      10.921  80.197 113.912  0.00  0.00     0.038 C 
ATOM      4  C   LIG d   1      10.335  79.412 114.916  0.00  0.00     0.028 C 
ATOM      5  C   LIG d   1      10.604  77.920 114.754  0.00  0.00    -0.047 C 
ATOM      6  C   LIG d   1      12.124  77.701 114.578  0.00  0.00     0.091 C 
ENDROOT
BRANCH   1   7
ATOM      7  O   LIG d   1      14.116  78.668 113.528  0.00  0.00    -0.368 OA
BRANCH   7   8
ATOM      8  C   LIG d   1      14.874  78.583 112.296  0.00  0.00     0.119 C 
BRANCH   8   9
ATOM      9  C   LIG d   1      15.294  77.112 112.112  0.00  0.00     0.028 C 
ATOM     10  C   LIG d   1      15.989  76.539 113.359  0.00  0.00     0.006 C 
ENDBRANCH   8   9
BRANCH   8  11
ATOM     11  C   LIG d   1      16.184  79.370 112.393  0.00  0.00     0.028 C 
ATOM     12  C   LIG d   1      16.312  80.154 113.709  0.00  0.00     0.006 C 
ENDBRANCH   8  11
ENDBRANCH   7   8
ENDBRANCH   1   7
BRANCH   6  13
ATOM     13  N   LIG d   1      12.466  76.276 114.329  0.00  0.00    -0.311 N 
ATOM     14  C   LIG d   1      12.819  75.427 115.293  0.00  0.00     0.210 C 
ATOM     15  C   LIG d   1      13.150  74.009 114.817  0.00  0.00     0.109 C 
ATOM     16  O   LIG d   1      12.857  75.705 116.501  0.00  0.00    -0.276 OA
ATOM     17  H   LIG d   1      12.430  75.958 113.381  0.00  0.00     0.149 HD
ENDBRANCH   6  13
BRANCH   5  18
ATOM     18  N   LIG d   1      10.054  77.236 115.940  0.00  0.00     0.381 N 
ATOM     19  H   LIG d   1      10.284  77.753 116.765  0.00  0.00    -0.090 HD
ATOM     20  H   LIG d   1      10.471  76.325 116.012  0.00  0.00    -0.090 HD
ATOM     21  H   LIG d   1       9.065  77.151 115.856  0.00  0.00    -0.090 HD
ENDBRANCH   5  18
BRANCH   3  22
ATOM     22  C   LIG d   1      10.296  81.381 113.553  0.00  0.00     0.382 C 
ATOM     23  O   LIG d   1       9.703  82.066 114.421  0.00  0.00    -0.241 OA
ATOM     24  O   LIG d   1      10.280  81.752 112.364  0.00  0.00    -0.241 OA
ENDBRANCH   3  22
TORSDOF 7
ENDMDL
