MODEL 1
REMARK VINA RESULT:      -4.8      0.000      0.000
REMARK  7 active torsions:
REMARK  status: ('A' for Active; 'I' for Inactive)
REMARK    1  A    between atoms: C_2  and  C_3 
REMARK    2  A    between atoms: C_3  and  O_6 
REMARK    3  A    between atoms: C_3  and  C_4 
REMARK    4  A    between atoms: C_7  and  O_6 
REMARK    5  A    between atoms: C_9  and  C_10 
REMARK    6  A    between atoms: N_15  and  C_14 
REMARK    7  A    between atoms: N_20  and  C_19 
REMARK       I    between atoms: C_22  and  N_20 
ROOT
ATOM      1  C   LIG d   1       2.132  86.961 114.958  0.00  0.00     0.161 C 
ATOM      2  C   LIG d   1       0.981  86.882 115.760  0.00  0.00     0.016 C 
ATOM      3  C   LIG d   1       0.699  87.788 116.808  0.00  0.00     0.038 C 
ATOM      4  C   LIG d   1       1.479  88.933 117.027  0.00  0.00     0.028 C 
ATOM      5  C   LIG d   1       2.925  88.778 116.569  0.00  0.00    -0.047 C 
ATOM      6  C   LIG d   1       2.937  88.268 115.110  0.00  0.00     0.091 C 
ENDROOT
BRANCH   1   7
ATOM      7  O   LIG d   1       1.780  86.748 113.576  0.00  0.00    -0.368 OA
BRANCH   7   8
ATOM      8  C   LIG d   1       1.990  85.409 113.064  0.00  0.00     0.119 C 
BRANCH   8   9
ATOM      9  C   LIG d   1       3.307  85.421 112.264  0.00  0.00     0.028 C 
ATOM     10  C   LIG d   1       4.450  84.709 113.005  0.00  0.00     0.006 C 
ENDBRANCH   8   9
BRANCH   8  11
ATOM     11  C   LIG d   1       0.905  85.022 112.055  0.00  0.00     0.028 C 
ATOM     12  C   LIG d   1      -0.505  85.427 112.511  0.00  0.00     0.006 C 
ENDBRANCH   8  11
ENDBRANCH   7   8
ENDBRANCH   1   7
BRANCH   6  13
ATOM     13  N   LIG d   1       4.313  88.009 114.612  0.00  0.00    -0.311 N 
ATOM     14  C   LIG d   1       4.815  88.576 113.516  0.00  0.00     0.210 C 
ATOM     15  C   LIG d   1       6.246  88.156 113.168  0.00  0.00     0.109 C 
ATOM     16  O   LIG d   1       4.221  89.411 112.816  0.00  0.00    -0.276 OA
ATOM     17  H   LIG d   1       4.875  87.368 115.137  0.00  0.00     0.149 HD
ENDBRANCH   6  13
BRANCH   5  18
ATOM     18  N   LIG d   1       3.586  90.087 116.730  0.00  0.00     0.381 N 
ATOM     19  H   LIG d   1       2.967  90.817 116.440  0.00  0.00    -0.090 HD
ATOM     20  H   LIG d   1       4.402  90.114 116.144  0.00  0.00    -0.090 HD
ATOM     21  H   LIG d   1       3.848  90.223 117.682  0.00  0.00    -0.090 HD
ENDBRANCH   5  18
BRANCH   3  22
ATOM     22  C   LIG d   1      -0.352  87.531 117.674  0.00  0.00     0.382 C 
ATOM     23  O   LIG d   1      -0.260  86.602 118.513  0.00  0.00    -0.241 OA
ATOM     24  O   LIG d   1      -1.409  88.187 117.599  0.00  0.00    -0.241 OA
ENDBRANCH   3  22
TORSDOF 7
ENDMDL
MODEL 2
REMARK VINA RESULT:      -4.5      2.565      5.114
REMARK  7 active torsions:
REMARK  status: ('A' for Active; 'I' for Inactive)
REMARK    1  A    between atoms: C_2  and  C_3 
REMARK    2  A    between atoms: C_3  and  O_6 
REMARK    3  A    between atoms: C_3  and  C_4 
REMARK    4  A    between atoms: C_7  and  O_6 
REMARK    5  A    between atoms: C_9  and  C_10 
REMARK    6  A    between atoms: N_15  and  C_14 
REMARK    7  A    between atoms: N_20  and  C_19 
REMARK       I    between atoms: C_22  and  N_20 
ROOT
ATOM      1  C   LIG d   1       1.844  86.081 113.289  0.00  0.00     0.161 C 
ATOM      2  C   LIG d   1       0.735  85.226 113.173  0.00  0.00     0.016 C 
ATOM      3  C   LIG d   1       0.833  83.877 112.762  0.00  0.00     0.038 C 
ATOM      4  C   LIG d   1       2.072  83.244 112.582  0.00  0.00     0.028 C 
ATOM      5  C   LIG d   1       3.192  84.205 112.197  0.00  0.00    -0.047 C 
ATOM      6  C   LIG d   1       3.215  85.378 113.204  0.00  0.00     0.091 C 
ENDROOT
BRANCH   1   7
ATOM      7  O   LIG d   1       1.747  86.845 114.507  0.00  0.00    -0.368 OA
BRANCH   7   8
ATOM      8  C   LIG d   1       1.011  86.225 115.591  0.00  0.00     0.119 C 
BRANCH   8   9
ATOM      9  C   LIG d   1       0.358  87.354 116.412  0.00  0.00     0.028 C 
ATOM     10  C   LIG d   1       0.096  86.943 117.870  0.00  0.00     0.006 C 
ENDBRANCH   8   9
BRANCH   8  11
ATOM     11  C   LIG d   1       1.951  85.508 116.564  0.00  0.00     0.028 C 
ATOM     12  C   LIG d   1       1.802  83.979 116.517  0.00  0.00     0.006 C 
ENDBRANCH   8  11
ENDBRANCH   7   8
ENDBRANCH   1   7
BRANCH   6  13
ATOM     13  N   LIG d   1       4.227  86.408 112.852  0.00  0.00    -0.311 N 
ATOM     14  C   LIG d   1       5.162  86.836 113.698  0.00  0.00     0.210 C 
ATOM     15  C   LIG d   1       6.094  87.916 113.140  0.00  0.00     0.109 C 
ATOM     16  O   LIG d   1       5.329  86.400 114.847  0.00  0.00    -0.276 OA
ATOM     17  H   LIG d   1       4.184  86.793 111.929  0.00  0.00     0.149 HD
ENDBRANCH   6  13
BRANCH   5  18
ATOM     18  N   LIG d   1       4.451  83.437 112.177  0.00  0.00     0.381 N 
ATOM     19  H   LIG d   1       4.447  82.800 111.405  0.00  0.00    -0.090 HD
ATOM     20  H   LIG d   1       4.520  82.903 113.026  0.00  0.00    -0.090 HD
ATOM     21  H   LIG d   1       5.228  84.056 112.102  0.00  0.00    -0.090 HD
ENDBRANCH   5  18
BRANCH   3  22
ATOM     22  C   LIG d   1      -0.320  83.157 112.487  0.00  0.00     0.382 C 
ATOM     23  O   LIG d   1      -0.430  81.973 112.887  0.00  0.00    -0.241 OA
ATOM     24  O   LIG d   1      -1.233  83.662 111.806  0.00  0.00    -0.241 OA
ENDBRANCH   3  22
TORSDOF 7
ENDMDL
MODEL 3
REMARK VINA RESULT:      -4.3      3.984      6.063
REMARK  7 active torsions:
REMARK  status: ('A' for Active; 'I' for Inactive)
REMARK    1  A    between atoms: C_2  and  C_3 
REMARK    2  A    between atoms: C_3  and  O_6 
REMARK    3  A    between atoms: C_3  and  C_4 
REMARK    4  A    between atoms: C_7  and  O_6 
REMARK    5  A    between atoms: C_9  and  C_10 
REMARK    6  A    between atoms: N_15  and  C_14 
REMARK    7  A    between atoms: N_20  and  C_19 
REMARK       I    between atoms: C_22  and  N_20 
ROOT
ATOM      1  C   LIG d   1       4.247  84.503 112.973  0.00  0.00     0.161 C 
ATOM      2  C   LIG d   1       4.852  85.757 113.159  0.00  0.00     0.016 C 
ATOM      3  C   LIG d   1       4.186  86.983 112.931  0.00  0.00     0.038 C 
ATOM      4  C   LIG d   1       2.813  87.039 112.644  0.00  0.00     0.028 C 
ATOM      5  C   LIG d   1       2.287  85.786 111.953  0.00  0.00    -0.047 C 
ATOM      6  C   LIG d   1       2.718  84.545 112.768  0.00  0.00     0.091 C 
ENDROOT
BRANCH   1   7
ATOM      7  O   LIG d   1       4.581  83.631 114.071  0.00  0.00    -0.368 OA
BRANCH   7   8
ATOM      8  C   LIG d   1       4.304  84.143 115.398  0.00  0.00     0.119 C 
BRANCH   8   9
ATOM      9  C   LIG d   1       5.585  83.974 116.237  0.00  0.00     0.028 C 
ATOM     10  C   LIG d   1       5.440  84.555 117.653  0.00  0.00     0.006 C 
ENDBRANCH   8   9
BRANCH   8  11
ATOM     11  C   LIG d   1       3.240  83.302 116.109  0.00  0.00     0.028 C 
ATOM     12  C   LIG d   1       3.395  81.796 115.842  0.00  0.00     0.006 C 
ENDBRANCH   8  11
ENDBRANCH   7   8
ENDBRANCH   1   7
BRANCH   6  13
ATOM     13  N   LIG d   1       2.316  83.272 112.116  0.00  0.00    -0.311 N 
ATOM     14  C   LIG d   1       1.410  82.440 112.628  0.00  0.00     0.210 C 
ATOM     15  C   LIG d   1       1.158  81.173 111.805  0.00  0.00     0.109 C 
ATOM     16  O   LIG d   1       0.768  82.648 113.668  0.00  0.00    -0.276 OA
ATOM     17  H   LIG d   1       2.765  83.040 111.251  0.00  0.00     0.149 HD
ENDBRANCH   6  13
BRANCH   5  18
ATOM     18  N   LIG d   1       0.823  85.922 111.838  0.00  0.00     0.381 N 
ATOM     19  H   LIG d   1       0.441  86.221 112.713  0.00  0.00    -0.090 HD
ATOM     20  H   LIG d   1       0.430  85.025 111.613  0.00  0.00    -0.090 HD
ATOM     21  H   LIG d   1       0.596  86.581 111.126  0.00  0.00    -0.090 HD
ENDBRANCH   5  18
BRANCH   3  22
ATOM     22  C   LIG d   1       4.904  88.169 112.950  0.00  0.00     0.382 C 
ATOM     23  O   LIG d   1       4.312  89.263 112.783  0.00  0.00    -0.241 OA
ATOM     24  O   LIG d   1       6.142  88.156 113.087  0.00  0.00    -0.241 OA
ENDBRANCH   3  22
TORSDOF 7
ENDMDL
MODEL 4
REMARK VINA RESULT:      -4.1     12.966     15.394
REMARK  7 active torsions:
REMARK  status: ('A' for Active; 'I' for Inactive)
REMARK    1  A    between atoms: C_2  and  C_3 
REMARK    2  A    between atoms: C_3  and  O_6 
REMARK    3  A    between atoms: C_3  and  C_4 
REMARK    4  A    between atoms: C_7  and  O_6 
REMARK    5  A    between atoms: C_9  and  C_10 
REMARK    6  A    between atoms: N_15  and  C_14 
REMARK    7  A    between atoms: N_20  and  C_19 
REMARK       I    between atoms: C_22  and  N_20 
ROOT
ATOM      1  C   LIG d   1      12.279  75.828 114.158  0.00  0.00     0.161 C 
ATOM      2  C   LIG d   1      10.995  76.398 114.181  0.00  0.00     0.016 C 
ATOM      3  C   LIG d   1      10.377  76.876 115.359  0.00  0.00     0.038 C 
ATOM      4  C   LIG d   1      11.066  76.955 116.578  0.00  0.00     0.028 C 
ATOM      5  C   LIG d   1      12.186  75.928 116.710  0.00  0.00    -0.047 C 
ATOM      6  C   LIG d   1      13.090  76.009 115.459  0.00  0.00     0.091 C 
ENDROOT
BRANCH   1   7
ATOM      7  O   LIG d   1      13.020  76.338 113.032  0.00  0.00    -0.368 OA
BRANCH   7   8
ATOM      8  C   LIG d   1      13.879  77.475 113.296  0.00  0.00     0.119 C 
BRANCH   8   9
ATOM      9  C   LIG d   1      13.307  78.678 112.522  0.00  0.00     0.028 C 
ATOM     10  C   LIG d   1      12.616  79.695 113.446  0.00  0.00     0.006 C 
ENDBRANCH   8   9
BRANCH   8  11
ATOM     11  C   LIG d   1      15.283  77.256 112.724  0.00  0.00     0.028 C 
ATOM     12  C   LIG d   1      16.336  78.176 113.361  0.00  0.00     0.006 C 
ENDBRANCH   8  11
ENDBRANCH   7   8
ENDBRANCH   1   7
BRANCH   6  13
ATOM     13  N   LIG d   1      14.162  74.979 115.467  0.00  0.00    -0.311 N 
ATOM     14  C   LIG d   1      15.400  75.213 115.898  0.00  0.00     0.210 C 
ATOM     15  C   LIG d   1      16.355  74.019 115.801  0.00  0.00     0.109 C 
ATOM     16  O   LIG d   1      15.790  76.287 116.380  0.00  0.00    -0.276 OA
ATOM     17  H   LIG d   1      13.924  74.070 115.121  0.00  0.00     0.149 HD
ENDBRANCH   6  13
BRANCH   5  18
ATOM     18  N   LIG d   1      12.907  76.213 117.964  0.00  0.00     0.381 N 
ATOM     19  H   LIG d   1      12.682  75.520 118.650  0.00  0.00    -0.090 HD
ATOM     20  H   LIG d   1      12.613  77.108 118.313  0.00  0.00    -0.090 HD
ATOM     21  H   LIG d   1      13.890  76.220 117.799  0.00  0.00    -0.090 HD
ENDBRANCH   5  18
BRANCH   3  22
ATOM     22  C   LIG d   1       9.040  77.244 115.333  0.00  0.00     0.382 C 
ATOM     23  O   LIG d   1       8.611  78.104 116.139  0.00  0.00    -0.241 OA
ATOM     24  O   LIG d   1       8.249  76.694 114.543  0.00  0.00    -0.241 OA
ENDBRANCH   3  22
TORSDOF 7
ENDMDL
MODEL 5
REMARK VINA RESULT:      -4.0     25.211     27.611
REMARK  7 active torsions:
REMARK  status: ('A' for Active; 'I' for Inactive)
REMARK    1  A    between atoms: C_2  and  C_3 
REMARK    2  A    between atoms: C_3  and  O_6 
REMARK    3  A    between atoms: C_3  and  C_4 
REMARK    4  A    between atoms: C_7  and  O_6 
REMARK    5  A    between atoms: C_9  and  C_10 
REMARK    6  A    between atoms: N_15  and  C_14 
REMARK    7  A    between atoms: N_20  and  C_19 
REMARK       I    between atoms: C_22  and  N_20 
ROOT
ATOM      1  C   LIG d   1     -23.991  83.510 114.091  0.00  0.00     0.161 C 
ATOM      2  C   LIG d   1     -23.103  84.597 114.151  0.00  0.00     0.016 C 
ATOM      3  C   LIG d   1     -23.502  85.939 113.954  0.00  0.00     0.038 C 
ATOM      4  C   LIG d   1     -24.851  86.301 113.833  0.00  0.00     0.028 C 
ATOM      5  C   LIG d   1     -25.728  85.191 113.263  0.00  0.00    -0.047 C 
ATOM      6  C   LIG d   1     -25.485  83.895 114.070  0.00  0.00     0.091 C 
ENDROOT
BRANCH   1   7
ATOM      7  O   LIG d   1     -23.723  82.600 115.177  0.00  0.00    -0.368 OA
BRANCH   7   8
ATOM      8  C   LIG d   1     -24.430  82.859 116.414  0.00  0.00     0.119 C 
BRANCH   8   9
ATOM      9  C   LIG d   1     -23.377  83.205 117.485  0.00  0.00     0.028 C 
ATOM     10  C   LIG d   1     -21.981  82.668 117.130  0.00  0.00     0.006 C 
ENDBRANCH   8   9
BRANCH   8  11
ATOM     11  C   LIG d   1     -25.134  81.600 116.929  0.00  0.00     0.028 C 
ATOM     12  C   LIG d   1     -24.986  80.404 115.976  0.00  0.00     0.006 C 
ENDBRANCH   8  11
ENDBRANCH   7   8
ENDBRANCH   1   7
BRANCH   6  13
ATOM     13  N   LIG d   1     -26.241  82.737 113.525  0.00  0.00    -0.311 N 
ATOM     14  C   LIG d   1     -27.420  82.342 114.002  0.00  0.00     0.210 C 
ATOM     15  C   LIG d   1     -28.018  81.113 113.309  0.00  0.00     0.109 C 
ATOM     16  O   LIG d   1     -28.042  82.910 114.912  0.00  0.00    -0.276 OA
ATOM     17  H   LIG d   1     -25.823  82.238 112.765  0.00  0.00     0.149 HD
ENDBRANCH   6  13
BRANCH   5  18
ATOM     18  N   LIG d   1     -27.127  85.654 113.320  0.00  0.00     0.381 N 
ATOM     19  H   LIG d   1     -27.178  86.614 113.045  0.00  0.00    -0.090 HD
ATOM     20  H   LIG d   1     -27.456  85.579 114.266  0.00  0.00    -0.090 HD
ATOM     21  H   LIG d   1     -27.695  85.098 112.718  0.00  0.00    -0.090 HD
ENDBRANCH   5  18
BRANCH   3  22
ATOM     22  C   LIG d   1     -22.540  86.931 113.837  0.00  0.00     0.382 C 
ATOM     23  O   LIG d   1     -22.821  88.115 114.143  0.00  0.00    -0.241 OA
ATOM     24  O   LIG d   1     -21.410  86.665 113.387  0.00  0.00    -0.241 OA
ENDBRANCH   3  22
TORSDOF 7
ENDMDL
MODEL 6
REMARK VINA RESULT:      -4.0     33.182     35.290
REMARK  7 active torsions:
REMARK  status: ('A' for Active; 'I' for Inactive)
REMARK    1  A    between atoms: C_2  and  C_3 
REMARK    2  A    between atoms: C_3  and  O_6 
REMARK    3  A    between atoms: C_3  and  C_4 
REMARK    4  A    between atoms: C_7  and  O_6 
REMARK    5  A    between atoms: C_9  and  C_10 
REMARK    6  A    between atoms: N_15  and  C_14 
REMARK    7  A    between atoms: N_20  and  C_19 
REMARK       I    between atoms: C_22  and  N_20 
ROOT
ATOM      1  C   LIG d   1     -13.942  55.927 115.435  0.00  0.00     0.161 C 
ATOM      2  C   LIG d   1     -15.204  55.588 115.951  0.00  0.00     0.016 C 
ATOM      3  C   LIG d   1     -16.419  56.084 115.425  0.00  0.00     0.038 C 
ATOM      4  C   LIG d   1     -16.461  56.839 114.243  0.00  0.00     0.028 C 
ATOM      5  C   LIG d   1     -15.180  57.623 113.978  0.00  0.00    -0.047 C 
ATOM      6  C   LIG d   1     -13.974  56.661 114.078  0.00  0.00     0.091 C 
ENDROOT
BRANCH   1   7
ATOM      7  O   LIG d   1     -13.117  54.749 115.347  0.00  0.00    -0.368 OA
BRANCH   7   8
ATOM      8  C   LIG d   1     -12.182  54.543 116.435  0.00  0.00     0.119 C 
BRANCH   8   9
ATOM      9  C   LIG d   1     -11.740  55.932 116.935  0.00  0.00     0.028 C 
ATOM     10  C   LIG d   1     -11.862  56.073 118.461  0.00  0.00     0.006 C 
ENDBRANCH   8   9
BRANCH   8  11
ATOM     11  C   LIG d   1     -10.900  53.861 115.947  0.00  0.00     0.028 C 
ATOM     12  C   LIG d   1      -9.768  54.860 115.656  0.00  0.00     0.006 C 
ENDBRANCH   8  11
ENDBRANCH   7   8
ENDBRANCH   1   7
BRANCH   6  13
ATOM     13  N   LIG d   1     -12.674  57.363 113.915  0.00  0.00    -0.311 N 
ATOM     14  C   LIG d   1     -11.650  56.859 113.228  0.00  0.00     0.210 C 
ATOM     15  C   LIG d   1     -10.395  57.738 113.201  0.00  0.00     0.109 C 
ATOM     16  O   LIG d   1     -11.673  55.784 112.611  0.00  0.00    -0.276 OA
ATOM     17  H   LIG d   1     -12.580  58.256 114.357  0.00  0.00     0.149 HD
ENDBRANCH   6  13
BRANCH   5  18
ATOM     18  N   LIG d   1     -15.309  58.253 112.651  0.00  0.00     0.381 N 
ATOM     19  H   LIG d   1     -14.422  58.257 112.190  0.00  0.00    -0.090 HD
ATOM     20  H   LIG d   1     -15.607  59.205 112.771  0.00  0.00    -0.090 HD
ATOM     21  H   LIG d   1     -15.975  57.756 112.101  0.00  0.00    -0.090 HD
ENDBRANCH   5  18
BRANCH   3  22
ATOM     22  C   LIG d   1     -17.605  55.859 116.105  0.00  0.00     0.382 C 
ATOM     23  O   LIG d   1     -17.622  55.093 117.100  0.00  0.00    -0.241 OA
ATOM     24  O   LIG d   1     -18.668  56.376 115.711  0.00  0.00    -0.241 OA
ENDBRANCH   3  22
TORSDOF 7
ENDMDL
MODEL 7
REMARK VINA RESULT:      -3.9      2.932      5.429
REMARK  7 active torsions:
REMARK  status: ('A' for Active; 'I' for Inactive)
REMARK    1  A    between atoms: C_2  and  C_3 
REMARK    2  A    between atoms: C_3  and  O_6 
REMARK    3  A    between atoms: C_3  and  C_4 
REMARK    4  A    between atoms: C_7  and  O_6 
REMARK    5  A    between atoms: C_9  and  C_10 
REMARK    6  A    between atoms: N_15  and  C_14 
REMARK    7  A    between atoms: N_20  and  C_19 
REMARK       I    between atoms: C_22  and  N_20 
ROOT
ATOM      1  C   LIG d   1       4.500  87.490 116.463  0.00  0.00     0.161 C 
ATOM      2  C   LIG d   1       5.412  88.218 117.246  0.00  0.00     0.016 C 
ATOM      3  C   LIG d   1       6.359  89.117 116.703  0.00  0.00     0.038 C 
ATOM      4  C   LIG d   1       6.357  89.464 115.344  0.00  0.00     0.028 C 
ATOM      5  C   LIG d   1       5.787  88.375 114.441  0.00  0.00    -0.047 C 
ATOM      6  C   LIG d   1       4.409  87.939 114.990  0.00  0.00     0.091 C 
ENDROOT
BRANCH   1   7
ATOM      7  O   LIG d   1       3.197  87.519 117.077  0.00  0.00    -0.368 OA
BRANCH   7   8
ATOM      8  C   LIG d   1       2.338  88.622 116.697  0.00  0.00     0.119 C 
BRANCH   8   9
ATOM      9  C   LIG d   1       2.398  89.667 117.827  0.00  0.00     0.028 C 
ATOM     10  C   LIG d   1       2.975  91.012 117.353  0.00  0.00     0.006 C 
ENDBRANCH   8   9
BRANCH   8  11
ATOM     11  C   LIG d   1       0.871  88.187 116.625  0.00  0.00     0.028 C 
ATOM     12  C   LIG d   1       0.701  86.749 116.109  0.00  0.00     0.006 C 
ENDBRANCH   8  11
ENDBRANCH   7   8
ENDBRANCH   1   7
BRANCH   6  13
ATOM     13  N   LIG d   1       3.819  86.817 114.214  0.00  0.00    -0.311 N 
ATOM     14  C   LIG d   1       2.976  86.992 113.198  0.00  0.00     0.210 C 
ATOM     15  C   LIG d   1       2.470  85.701 112.547  0.00  0.00     0.109 C 
ATOM     16  O   LIG d   1       2.623  88.095 112.754  0.00  0.00    -0.276 OA
ATOM     17  H   LIG d   1       4.076  85.888 114.487  0.00  0.00     0.149 HD
ENDBRANCH   6  13
BRANCH   5  18
ATOM     18  N   LIG d   1       5.718  88.921 113.073  0.00  0.00     0.381 N 
ATOM     19  H   LIG d   1       6.493  88.588 112.535  0.00  0.00    -0.090 HD
ATOM     20  H   LIG d   1       5.774  89.923 113.120  0.00  0.00    -0.090 HD
ATOM     21  H   LIG d   1       4.862  88.650 112.640  0.00  0.00    -0.090 HD
ENDBRANCH   5  18
BRANCH   3  22
ATOM     22  C   LIG d   1       7.347  89.649 117.517  0.00  0.00     0.382 C 
ATOM     23  O   LIG d   1       7.115  90.681 118.192  0.00  0.00    -0.241 OA
ATOM     24  O   LIG d   1       8.481  89.135 117.552  0.00  0.00    -0.241 OA
ENDBRANCH   3  22
TORSDOF 7
ENDMDL
MODEL 8
REMARK VINA RESULT:      -3.8      2.960      5.887
REMARK  7 active torsions:
REMARK  status: ('A' for Active; 'I' for Inactive)
REMARK    1  A    between atoms: C_2  and  C_3 
REMARK    2  A    between atoms: C_3  and  O_6 
REMARK    3  A    between atoms: C_3  and  C_4 
REMARK    4  A    between atoms: C_7  and  O_6 
REMARK    5  A    between atoms: C_9  and  C_10 
REMARK    6  A    between atoms: N_15  and  C_14 
REMARK    7  A    between atoms: N_20  and  C_19 
REMARK       I    between atoms: C_22  and  N_20 
ROOT
ATOM      1  C   LIG d   1       3.512  85.281 115.555  0.00  0.00     0.161 C 
ATOM      2  C   LIG d   1       4.280  84.400 114.776  0.00  0.00     0.016 C 
ATOM      3  C   LIG d   1       3.829  83.843 113.558  0.00  0.00     0.038 C 
ATOM      4  C   LIG d   1       2.629  84.251 112.955  0.00  0.00     0.028 C 
ATOM      5  C   LIG d   1       1.592  84.756 113.952  0.00  0.00    -0.047 C 
ATOM      6  C   LIG d   1       2.246  85.824 114.859  0.00  0.00     0.091 C 
ENDROOT
BRANCH   1   7
ATOM      7  O   LIG d   1       4.335  86.370 116.017  0.00  0.00    -0.368 OA
BRANCH   7   8
ATOM      8  C   LIG d   1       5.474  86.704 115.187  0.00  0.00     0.119 C 
BRANCH   8   9
ATOM      9  C   LIG d   1       6.647  87.048 116.126  0.00  0.00     0.028 C 
ATOM     10  C   LIG d   1       6.460  86.465 117.536  0.00  0.00     0.006 C 
ENDBRANCH   8   9
BRANCH   8  11
ATOM     11  C   LIG d   1       5.218  87.978 114.375  0.00  0.00     0.028 C 
ATOM     12  C   LIG d   1       5.963  87.988 113.031  0.00  0.00     0.006 C 
ENDBRANCH   8  11
ENDBRANCH   7   8
ENDBRANCH   1   7
BRANCH   6  13
ATOM     13  N   LIG d   1       1.324  86.311 115.918  0.00  0.00    -0.311 N 
ATOM     14  C   LIG d   1       1.130  87.601 116.185  0.00  0.00     0.210 C 
ATOM     15  C   LIG d   1       0.152  87.884 117.330  0.00  0.00     0.109 C 
ATOM     16  O   LIG d   1       1.650  88.538 115.561  0.00  0.00    -0.276 OA
ATOM     17  H   LIG d   1       0.836  85.618 116.452  0.00  0.00     0.149 HD
ENDBRANCH   6  13
BRANCH   5  18
ATOM     18  N   LIG d   1       0.448  85.276 113.180  0.00  0.00     0.381 N 
ATOM     19  H   LIG d   1      -0.397  84.837 113.489  0.00  0.00    -0.090 HD
ATOM     20  H   LIG d   1       0.582  85.053 112.210  0.00  0.00    -0.090 HD
ATOM     21  H   LIG d   1       0.378  86.263 113.295  0.00  0.00    -0.090 HD
ENDBRANCH   5  18
BRANCH   3  22
ATOM     22  C   LIG d   1       4.563  82.837 112.949  0.00  0.00     0.382 C 
ATOM     23  O   LIG d   1       5.564  82.352 113.529  0.00  0.00    -0.241 OA
ATOM     24  O   LIG d   1       4.263  82.438 111.807  0.00  0.00    -0.241 OA
ENDBRANCH   3  22
TORSDOF 7
ENDMDL
MODEL 9
REMARK VINA RESULT:      -3.8     29.161     31.271
REMARK  7 active torsions:
REMARK  status: ('A' for Active; 'I' for Inactive)
REMARK    1  A    between atoms: C_2  and  C_3 
REMARK    2  A    between atoms: C_3  and  O_6 
REMARK    3  A    between atoms: C_3  and  C_4 
REMARK    4  A    between atoms: C_7  and  O_6 
REMARK    5  A    between atoms: C_9  and  C_10 
REMARK    6  A    between atoms: N_15  and  C_14 
REMARK    7  A    between atoms: N_20  and  C_19 
REMARK       I    between atoms: C_22  and  N_20 
ROOT
ATOM      1  C   LIG d   1     -20.265  65.910 115.331  0.00  0.00     0.161 C 
ATOM      2  C   LIG d   1     -18.975  65.359 115.404  0.00  0.00     0.016 C 
ATOM      3  C   LIG d   1     -18.005  65.770 116.347  0.00  0.00     0.038 C 
ATOM      4  C   LIG d   1     -18.312  66.661 117.386  0.00  0.00     0.028 C 
ATOM      5  C   LIG d   1     -19.449  67.620 117.046  0.00  0.00    -0.047 C 
ATOM      6  C   LIG d   1     -20.655  66.804 116.527  0.00  0.00     0.091 C 
ENDROOT
BRANCH   1   7
ATOM      7  O   LIG d   1     -21.236  64.859 115.154  0.00  0.00    -0.368 OA
BRANCH   7   8
ATOM      8  C   LIG d   1     -21.891  64.809 113.862  0.00  0.00     0.119 C 
BRANCH   8   9
ATOM      9  C   LIG d   1     -21.387  63.547 113.137  0.00  0.00     0.028 C 
ATOM     10  C   LIG d   1     -20.690  63.874 111.805  0.00  0.00     0.006 C 
ENDBRANCH   8   9
BRANCH   8  11
ATOM     11  C   LIG d   1     -21.467  65.983 112.976  0.00  0.00     0.028 C 
ATOM     12  C   LIG d   1     -22.630  66.934 112.649  0.00  0.00     0.006 C 
ENDBRANCH   8  11
ENDBRANCH   7   8
ENDBRANCH   1   7
BRANCH   6  13
ATOM     13  N   LIG d   1     -21.781  67.671 116.092  0.00  0.00    -0.311 N 
ATOM     14  C   LIG d   1     -23.045  67.473 116.464  0.00  0.00     0.210 C 
ATOM     15  C   LIG d   1     -24.053  68.471 115.886  0.00  0.00     0.109 C 
ATOM     16  O   LIG d   1     -23.422  66.584 117.242  0.00  0.00    -0.276 OA
ATOM     17  H   LIG d   1     -21.560  68.435 115.484  0.00  0.00     0.149 HD
ENDBRANCH   6  13
BRANCH   5  18
ATOM     18  N   LIG d   1     -19.756  68.396 118.262  0.00  0.00     0.381 N 
ATOM     19  H   LIG d   1     -19.685  67.807 119.067  0.00  0.00    -0.090 HD
ATOM     20  H   LIG d   1     -20.700  68.735 118.201  0.00  0.00    -0.090 HD
ATOM     21  H   LIG d   1     -19.125  69.163 118.345  0.00  0.00    -0.090 HD
ENDBRANCH   5  18
BRANCH   3  22
ATOM     22  C   LIG d   1     -16.699  65.319 116.231  0.00  0.00     0.382 C 
ATOM     23  O   LIG d   1     -16.103  65.401 115.130  0.00  0.00    -0.241 OA
ATOM     24  O   LIG d   1     -16.125  64.790 117.202  0.00  0.00    -0.241 OA
ENDBRANCH   3  22
TORSDOF 7
ENDMDL
