MODEL 1
REMARK VINA RESULT:      -5.1      0.000      0.000
REMARK  7 active torsions:
REMARK  status: ('A' for Active; 'I' for Inactive)
REMARK    1  A    between atoms: C_2  and  C_3 
REMARK    2  A    between atoms: C_3  and  O_6 
REMARK    3  A    between atoms: C_3  and  C_4 
REMARK    4  A    between atoms: C_7  and  O_6 
REMARK    5  A    between atoms: C_9  and  C_10 
REMARK    6  A    between atoms: N_15  and  C_14 
REMARK    7  A    between atoms: N_20  and  C_19 
REMARK       I    between atoms: C_22  and  N_20 
ROOT
ATOM      1  C   LIG d   1       2.727  88.163 115.419  0.00  0.00     0.161 C 
ATOM      2  C   LIG d   1       2.810  89.375 116.124  0.00  0.00     0.016 C 
ATOM      3  C   LIG d   1       3.839  90.324 115.923  0.00  0.00     0.038 C 
ATOM      4  C   LIG d   1       4.777  90.191 114.888  0.00  0.00     0.028 C 
ATOM      5  C   LIG d   1       5.033  88.744 114.484  0.00  0.00    -0.047 C 
ATOM      6  C   LIG d   1       3.678  88.052 114.209  0.00  0.00     0.091 C 
ENDROOT
BRANCH   1   7
ATOM      7  O   LIG d   1       1.365  87.928 115.009  0.00  0.00    -0.368 OA
BRANCH   7   8
ATOM      8  C   LIG d   1       0.661  86.874 115.710  0.00  0.00     0.119 C 
BRANCH   8   9
ATOM      9  C   LIG d   1       1.648  86.246 116.713  0.00  0.00     0.028 C 
ATOM     10  C   LIG d   1       0.952  85.307 117.713  0.00  0.00     0.006 C 
ENDBRANCH   8   9
BRANCH   8  11
ATOM     11  C   LIG d   1       0.271  85.737 114.761  0.00  0.00     0.028 C 
ATOM     12  C   LIG d   1      -1.243  85.670 114.503  0.00  0.00     0.006 C 
ENDBRANCH   8  11
ENDBRANCH   7   8
ENDBRANCH   1   7
BRANCH   6  13
ATOM     13  N   LIG d   1       3.832  86.609 113.889  0.00  0.00    -0.311 N 
ATOM     14  C   LIG d   1       3.421  86.064 112.745  0.00  0.00     0.210 C 
ATOM     15  C   LIG d   1       3.659  84.555 112.626  0.00  0.00     0.109 C 
ATOM     16  O   LIG d   1       2.912  86.692 111.805  0.00  0.00    -0.276 OA
ATOM     17  H   LIG d   1       4.264  86.032 114.583  0.00  0.00     0.149 HD
ENDBRANCH   6  13
BRANCH   5  18
ATOM     18  N   LIG d   1       5.923  88.760 113.307  0.00  0.00     0.381 N 
ATOM     19  H   LIG d   1       5.377  88.806 112.470  0.00  0.00    -0.090 HD
ATOM     20  H   LIG d   1       6.455  87.908 113.290  0.00  0.00    -0.090 HD
ATOM     21  H   LIG d   1       6.537  89.543 113.355  0.00  0.00    -0.090 HD
ENDBRANCH   5  18
BRANCH   3  22
ATOM     22  C   LIG d   1       3.961  91.400 116.788  0.00  0.00     0.382 C 
ATOM     23  O   LIG d   1       4.804  91.366 117.717  0.00  0.00    -0.241 OA
ATOM     24  O   LIG d   1       3.207  92.386 116.680  0.00  0.00    -0.241 OA
ENDBRANCH   3  22
TORSDOF 7
ENDMDL
MODEL 2
REMARK VINA RESULT:      -4.9      2.857      3.643
REMARK  7 active torsions:
REMARK  status: ('A' for Active; 'I' for Inactive)
REMARK    1  A    between atoms: C_2  and  C_3 
REMARK    2  A    between atoms: C_3  and  O_6 
REMARK    3  A    between atoms: C_3  and  C_4 
REMARK    4  A    between atoms: C_7  and  O_6 
REMARK    5  A    between atoms: C_9  and  C_10 
REMARK    6  A    between atoms: N_15  and  C_14 
REMARK    7  A    between atoms: N_20  and  C_19 
REMARK       I    between atoms: C_22  and  N_20 
ROOT
ATOM      1  C   LIG d   1       1.865  86.119 114.351  0.00  0.00     0.161 C 
ATOM      2  C   LIG d   1       2.397  87.382 114.041  0.00  0.00     0.016 C 
ATOM      3  C   LIG d   1       3.400  87.585 113.065  0.00  0.00     0.038 C 
ATOM      4  C   LIG d   1       3.834  86.551 112.222  0.00  0.00     0.028 C 
ATOM      5  C   LIG d   1       3.691  85.165 112.840  0.00  0.00    -0.047 C 
ATOM      6  C   LIG d   1       2.247  84.996 113.365  0.00  0.00     0.091 C 
ENDROOT
BRANCH   1   7
ATOM      7  O   LIG d   1       0.432  86.210 114.477  0.00  0.00    -0.368 OA
BRANCH   7   8
ATOM      8  C   LIG d   1      -0.103  86.034 115.812  0.00  0.00     0.119 C 
BRANCH   8   9
ATOM      9  C   LIG d   1       1.091  85.928 116.779  0.00  0.00     0.028 C 
ATOM     10  C   LIG d   1       0.755  85.114 118.040  0.00  0.00     0.006 C 
ENDBRANCH   8   9
BRANCH   8  11
ATOM     11  C   LIG d   1      -0.850  84.703 115.942  0.00  0.00     0.028 C 
ATOM     12  C   LIG d   1      -1.586  84.305 114.652  0.00  0.00     0.006 C 
ENDBRANCH   8  11
ENDBRANCH   7   8
ENDBRANCH   1   7
BRANCH   6  13
ATOM     13  N   LIG d   1       2.044  83.698 114.060  0.00  0.00    -0.311 N 
ATOM     14  C   LIG d   1       1.595  82.602 113.451  0.00  0.00     0.210 C 
ATOM     15  C   LIG d   1       1.440  81.377 114.357  0.00  0.00     0.109 C 
ATOM     16  O   LIG d   1       1.341  82.520 112.240  0.00  0.00    -0.276 OA
ATOM     17  H   LIG d   1       2.256  83.667 115.038  0.00  0.00     0.149 HD
ENDBRANCH   6  13
BRANCH   5  18
ATOM     18  N   LIG d   1       4.050  84.176 111.805  0.00  0.00     0.381 N 
ATOM     19  H   LIG d   1       3.698  83.275 112.062  0.00  0.00    -0.090 HD
ATOM     20  H   LIG d   1       5.051  84.119 111.744  0.00  0.00    -0.090 HD
ATOM     21  H   LIG d   1       3.671  84.451 110.926  0.00  0.00    -0.090 HD
ENDBRANCH   5  18
BRANCH   3  22
ATOM     22  C   LIG d   1       4.008  88.826 112.953  0.00  0.00     0.382 C 
ATOM     23  O   LIG d   1       3.318  89.841 112.696  0.00  0.00    -0.241 OA
ATOM     24  O   LIG d   1       5.244  88.936 113.062  0.00  0.00    -0.241 OA
ENDBRANCH   3  22
TORSDOF 7
ENDMDL
MODEL 3
REMARK VINA RESULT:      -4.9     27.097     30.474
REMARK  7 active torsions:
REMARK  status: ('A' for Active; 'I' for Inactive)
REMARK    1  A    between atoms: C_2  and  C_3 
REMARK    2  A    between atoms: C_3  and  O_6 
REMARK    3  A    between atoms: C_3  and  C_4 
REMARK    4  A    between atoms: C_7  and  O_6 
REMARK    5  A    between atoms: C_9  and  C_10 
REMARK    6  A    between atoms: N_15  and  C_14 
REMARK    7  A    between atoms: N_20  and  C_19 
REMARK       I    between atoms: C_22  and  N_20 
ROOT
ATOM      1  C   LIG d   1     -16.700  64.984 114.071  0.00  0.00     0.161 C 
ATOM      2  C   LIG d   1     -16.209  65.983 113.214  0.00  0.00     0.016 C 
ATOM      3  C   LIG d   1     -15.502  67.120 113.669  0.00  0.00     0.038 C 
ATOM      4  C   LIG d   1     -15.104  67.260 115.007  0.00  0.00     0.028 C 
ATOM      5  C   LIG d   1     -16.013  66.527 115.989  0.00  0.00    -0.047 C 
ATOM      6  C   LIG d   1     -16.179  65.063 115.522  0.00  0.00     0.091 C 
ENDROOT
BRANCH   1   7
ATOM      7  O   LIG d   1     -16.428  63.684 113.512  0.00  0.00    -0.368 OA
BRANCH   7   8
ATOM      8  C   LIG d   1     -17.579  62.939 113.042  0.00  0.00     0.119 C 
BRANCH   8   9
ATOM      9  C   LIG d   1     -18.801  63.875 113.124  0.00  0.00     0.028 C 
ATOM     10  C   LIG d   1     -20.082  63.133 113.540  0.00  0.00     0.006 C 
ENDBRANCH   8   9
BRANCH   8  11
ATOM     11  C   LIG d   1     -17.903  61.767 113.973  0.00  0.00     0.028 C 
ATOM     12  C   LIG d   1     -17.561  60.402 113.355  0.00  0.00     0.006 C 
ENDBRANCH   8  11
ENDBRANCH   7   8
ENDBRANCH   1   7
BRANCH   6  13
ATOM     13  N   LIG d   1     -17.120  64.297 116.380  0.00  0.00    -0.311 N 
ATOM     14  C   LIG d   1     -16.724  63.467 117.343  0.00  0.00     0.210 C 
ATOM     15  C   LIG d   1     -17.857  62.763 118.096  0.00  0.00     0.109 C 
ATOM     16  O   LIG d   1     -15.543  63.271 117.667  0.00  0.00    -0.276 OA
ATOM     17  H   LIG d   1     -18.099  64.421 116.207  0.00  0.00     0.149 HD
ENDBRANCH   6  13
BRANCH   5  18
ATOM     18  N   LIG d   1     -15.405  66.641 117.328  0.00  0.00     0.381 N 
ATOM     19  H   LIG d   1     -16.071  67.023 117.970  0.00  0.00    -0.090 HD
ATOM     20  H   LIG d   1     -14.621  67.267 117.277  0.00  0.00    -0.090 HD
ATOM     21  H   LIG d   1     -15.104  65.746 117.644  0.00  0.00    -0.090 HD
ENDBRANCH   5  18
BRANCH   3  22
ATOM     22  C   LIG d   1     -15.221  68.152 112.787  0.00  0.00     0.382 C 
ATOM     23  O   LIG d   1     -15.985  68.373 111.816  0.00  0.00    -0.241 OA
ATOM     24  O   LIG d   1     -14.190  68.837 112.924  0.00  0.00    -0.241 OA
ENDBRANCH   3  22
TORSDOF 7
ENDMDL
MODEL 4
REMARK VINA RESULT:      -4.9      2.719      4.059
REMARK  7 active torsions:
REMARK  status: ('A' for Active; 'I' for Inactive)
REMARK    1  A    between atoms: C_2  and  C_3 
REMARK    2  A    between atoms: C_3  and  O_6 
REMARK    3  A    between atoms: C_3  and  C_4 
REMARK    4  A    between atoms: C_7  and  O_6 
REMARK    5  A    between atoms: C_9  and  C_10 
REMARK    6  A    between atoms: N_15  and  C_14 
REMARK    7  A    between atoms: N_20  and  C_19 
REMARK       I    between atoms: C_22  and  N_20 
ROOT
ATOM      1  C   LIG d   1       2.603  86.161 115.132  0.00  0.00     0.161 C 
ATOM      2  C   LIG d   1       2.621  87.306 114.318  0.00  0.00     0.016 C 
ATOM      3  C   LIG d   1       3.666  88.258 114.338  0.00  0.00     0.038 C 
ATOM      4  C   LIG d   1       4.845  88.050 115.070  0.00  0.00     0.028 C 
ATOM      5  C   LIG d   1       4.650  87.158 116.291  0.00  0.00    -0.047 C 
ATOM      6  C   LIG d   1       3.932  85.860 115.855  0.00  0.00     0.091 C 
ENDROOT
BRANCH   1   7
ATOM      7  O   LIG d   1       2.184  85.019 114.359  0.00  0.00    -0.368 OA
BRANCH   7   8
ATOM      8  C   LIG d   1       1.629  85.303 113.051  0.00  0.00     0.119 C 
BRANCH   8   9
ATOM      9  C   LIG d   1       0.174  84.796 113.045  0.00  0.00     0.028 C 
ATOM     10  C   LIG d   1      -0.783  85.767 112.334  0.00  0.00     0.006 C 
ENDBRANCH   8   9
BRANCH   8  11
ATOM     11  C   LIG d   1       2.342  84.503 111.957  0.00  0.00     0.028 C 
ATOM     12  C   LIG d   1       3.856  84.387 112.195  0.00  0.00     0.006 C 
ENDBRANCH   8  11
ENDBRANCH   7   8
ENDBRANCH   1   7
BRANCH   6  13
ATOM     13  N   LIG d   1       3.627  84.968 117.004  0.00  0.00    -0.311 N 
ATOM     14  C   LIG d   1       3.943  83.674 117.031  0.00  0.00     0.210 C 
ATOM     15  C   LIG d   1       3.520  82.931 118.302  0.00  0.00     0.109 C 
ATOM     16  O   LIG d   1       4.561  83.078 116.136  0.00  0.00    -0.276 OA
ATOM     17  H   LIG d   1       3.155  85.376 117.786  0.00  0.00     0.149 HD
ENDBRANCH   6  13
BRANCH   5  18
ATOM     18  N   LIG d   1       5.980  86.913 116.881  0.00  0.00     0.381 N 
ATOM     19  H   LIG d   1       5.880  86.445 117.759  0.00  0.00    -0.090 HD
ATOM     20  H   LIG d   1       6.431  87.796 117.044  0.00  0.00    -0.090 HD
ATOM     21  H   LIG d   1       6.531  86.359 116.262  0.00  0.00    -0.090 HD
ENDBRANCH   5  18
BRANCH   3  22
ATOM     22  C   LIG d   1       3.520  89.453 113.651  0.00  0.00     0.382 C 
ATOM     23  O   LIG d   1       3.823  90.537 114.206  0.00  0.00    -0.241 OA
ATOM     24  O   LIG d   1       3.047  89.466 112.499  0.00  0.00    -0.241 OA
ENDBRANCH   3  22
TORSDOF 7
ENDMDL
MODEL 5
REMARK VINA RESULT:      -4.8      4.306      7.618
REMARK  7 active torsions:
REMARK  status: ('A' for Active; 'I' for Inactive)
REMARK    1  A    between atoms: C_2  and  C_3 
REMARK    2  A    between atoms: C_3  and  O_6 
REMARK    3  A    between atoms: C_3  and  C_4 
REMARK    4  A    between atoms: C_7  and  O_6 
REMARK    5  A    between atoms: C_9  and  C_10 
REMARK    6  A    between atoms: N_15  and  C_14 
REMARK    7  A    between atoms: N_20  and  C_19 
REMARK       I    between atoms: C_22  and  N_20 
ROOT
ATOM      1  C   LIG d   1      -0.422  83.780 112.947  0.00  0.00     0.161 C 
ATOM      2  C   LIG d   1      -1.396  82.775 113.066  0.00  0.00     0.016 C 
ATOM      3  C   LIG d   1      -1.144  81.411 112.793  0.00  0.00     0.038 C 
ATOM      4  C   LIG d   1       0.148  80.934 112.527  0.00  0.00     0.028 C 
ATOM      5  C   LIG d   1       1.063  81.982 111.902  0.00  0.00    -0.047 C 
ATOM      6  C   LIG d   1       1.021  83.263 112.765  0.00  0.00     0.091 C 
ENDROOT
BRANCH   1   7
ATOM      7  O   LIG d   1      -0.496  84.670 114.079  0.00  0.00    -0.368 OA
BRANCH   7   8
ATOM      8  C   LIG d   1       0.143  84.209 115.295  0.00  0.00     0.119 C 
BRANCH   8   9
ATOM      9  C   LIG d   1      -0.940  84.140 116.389  0.00  0.00     0.028 C 
ATOM     10  C   LIG d   1      -0.347  84.215 117.806  0.00  0.00     0.006 C 
ENDBRANCH   8   9
BRANCH   8  11
ATOM     11  C   LIG d   1       1.170  85.225 115.804  0.00  0.00     0.028 C 
ATOM     12  C   LIG d   1       1.059  86.587 115.100  0.00  0.00     0.006 C 
ENDBRANCH   8  11
ENDBRANCH   7   8
ENDBRANCH   1   7
BRANCH   6  13
ATOM     13  N   LIG d   1       1.824  84.368 112.179  0.00  0.00    -0.311 N 
ATOM     14  C   LIG d   1       3.079  84.632 112.537  0.00  0.00     0.210 C 
ATOM     15  C   LIG d   1       3.717  85.828 111.823  0.00  0.00     0.109 C 
ATOM     16  O   LIG d   1       3.736  83.970 113.355  0.00  0.00    -0.276 OA
ATOM     17  H   LIG d   1       1.379  84.937 111.485  0.00  0.00     0.149 HD
ENDBRANCH   6  13
BRANCH   5  18
ATOM     18  N   LIG d   1       2.412  81.394 111.805  0.00  0.00     0.381 N 
ATOM     19  H   LIG d   1       2.557  80.751 112.558  0.00  0.00    -0.090 HD
ATOM     20  H   LIG d   1       3.094  82.129 111.883  0.00  0.00    -0.090 HD
ATOM     21  H   LIG d   1       2.518  80.924 110.933  0.00  0.00    -0.090 HD
ENDBRANCH   5  18
BRANCH   3  22
ATOM     22  C   LIG d   1      -2.200  80.513 112.746  0.00  0.00     0.382 C 
ATOM     23  O   LIG d   1      -3.366  80.903 112.998  0.00  0.00    -0.241 OA
ATOM     24  O   LIG d   1      -1.996  79.310 112.499  0.00  0.00    -0.241 OA
ENDBRANCH   3  22
TORSDOF 7
ENDMDL
MODEL 6
REMARK VINA RESULT:      -4.8     28.738     31.968
REMARK  7 active torsions:
REMARK  status: ('A' for Active; 'I' for Inactive)
REMARK    1  A    between atoms: C_2  and  C_3 
REMARK    2  A    between atoms: C_3  and  O_6 
REMARK    3  A    between atoms: C_3  and  C_4 
REMARK    4  A    between atoms: C_7  and  O_6 
REMARK    5  A    between atoms: C_9  and  C_10 
REMARK    6  A    between atoms: N_15  and  C_14 
REMARK    7  A    between atoms: N_20  and  C_19 
REMARK       I    between atoms: C_22  and  N_20 
ROOT
ATOM      1  C   LIG d   1     -16.829  63.105 116.206  0.00  0.00     0.161 C 
ATOM      2  C   LIG d   1     -16.348  64.371 116.583  0.00  0.00     0.016 C 
ATOM      3  C   LIG d   1     -16.043  65.394 115.656  0.00  0.00     0.038 C 
ATOM      4  C   LIG d   1     -16.342  65.272 114.291  0.00  0.00     0.028 C 
ATOM      5  C   LIG d   1     -16.357  63.828 113.801  0.00  0.00    -0.047 C 
ATOM      6  C   LIG d   1     -17.266  62.992 114.731  0.00  0.00     0.091 C 
ENDROOT
BRANCH   1   7
ATOM      7  O   LIG d   1     -17.905  62.711 117.080  0.00  0.00    -0.368 OA
BRANCH   7   8
ATOM      8  C   LIG d   1     -19.245  63.002 116.611  0.00  0.00     0.119 C 
BRANCH   8   9
ATOM      9  C   LIG d   1     -19.822  64.108 117.516  0.00  0.00     0.028 C 
ATOM     10  C   LIG d   1     -19.903  65.468 116.801  0.00  0.00     0.006 C 
ENDBRANCH   8   9
BRANCH   8  11
ATOM     11  C   LIG d   1     -20.174  61.799 116.799  0.00  0.00     0.028 C 
ATOM     12  C   LIG d   1     -21.225  61.678 115.684  0.00  0.00     0.006 C 
ENDBRANCH   8  11
ENDBRANCH   7   8
ENDBRANCH   1   7
BRANCH   6  13
ATOM     13  N   LIG d   1     -17.271  61.550 114.372  0.00  0.00    -0.311 N 
ATOM     14  C   LIG d   1     -18.147  61.007 113.529  0.00  0.00     0.210 C 
ATOM     15  C   LIG d   1     -17.988  59.498 113.314  0.00  0.00     0.109 C 
ATOM     16  O   LIG d   1     -19.021  61.637 112.915  0.00  0.00    -0.276 OA
ATOM     17  H   LIG d   1     -16.575  60.971 114.802  0.00  0.00     0.149 HD
ENDBRANCH   6  13
BRANCH   5  18
ATOM     18  N   LIG d   1     -16.817  63.838 112.400  0.00  0.00     0.381 N 
ATOM     19  H   LIG d   1     -16.032  63.938 111.787  0.00  0.00    -0.090 HD
ATOM     20  H   LIG d   1     -17.426  64.625 112.263  0.00  0.00    -0.090 HD
ATOM     21  H   LIG d   1     -17.303  62.993 112.194  0.00  0.00    -0.090 HD
ENDBRANCH   5  18
BRANCH   3  22
ATOM     22  C   LIG d   1     -15.394  66.541 116.089  0.00  0.00     0.382 C 
ATOM     23  O   LIG d   1     -14.760  67.248 115.270  0.00  0.00    -0.241 OA
ATOM     24  O   LIG d   1     -15.398  66.852 117.295  0.00  0.00    -0.241 OA
ENDBRANCH   3  22
TORSDOF 7
ENDMDL
MODEL 7
REMARK VINA RESULT:      -4.8      1.765      5.023
REMARK  7 active torsions:
REMARK  status: ('A' for Active; 'I' for Inactive)
REMARK    1  A    between atoms: C_2  and  C_3 
REMARK    2  A    between atoms: C_3  and  O_6 
REMARK    3  A    between atoms: C_3  and  C_4 
REMARK    4  A    between atoms: C_7  and  O_6 
REMARK    5  A    between atoms: C_9  and  C_10 
REMARK    6  A    between atoms: N_15  and  C_14 
REMARK    7  A    between atoms: N_20  and  C_19 
REMARK       I    between atoms: C_22  and  N_20 
ROOT
ATOM      1  C   LIG d   1       2.724  88.436 115.113  0.00  0.00     0.161 C 
ATOM      2  C   LIG d   1       2.601  87.328 114.257  0.00  0.00     0.016 C 
ATOM      3  C   LIG d   1       3.504  87.054 113.205  0.00  0.00     0.038 C 
ATOM      4  C   LIG d   1       4.685  87.791 113.031  0.00  0.00     0.028 C 
ATOM      5  C   LIG d   1       4.591  89.220 113.555  0.00  0.00    -0.047 C 
ATOM      6  C   LIG d   1       4.067  89.188 115.009  0.00  0.00     0.091 C 
ENDROOT
BRANCH   1   7
ATOM      7  O   LIG d   1       2.481  88.030 116.475  0.00  0.00    -0.368 OA
BRANCH   7   8
ATOM      8  C   LIG d   1       2.719  86.633 116.776  0.00  0.00     0.119 C 
BRANCH   8   9
ATOM      9  C   LIG d   1       1.580  86.158 117.698  0.00  0.00     0.028 C 
ATOM     10  C   LIG d   1       0.561  85.271 116.963  0.00  0.00     0.006 C 
ENDBRANCH   8   9
BRANCH   8  11
ATOM     11  C   LIG d   1       4.003  86.450 117.590  0.00  0.00     0.028 C 
ATOM     12  C   LIG d   1       5.193  85.994 116.730  0.00  0.00     0.006 C 
ENDBRANCH   8  11
ENDBRANCH   7   8
ENDBRANCH   1   7
BRANCH   6  13
ATOM     13  N   LIG d   1       3.865  90.549 115.569  0.00  0.00    -0.311 N 
ATOM     14  C   LIG d   1       4.311  90.923 116.767  0.00  0.00     0.210 C 
ATOM     15  C   LIG d   1       3.977  92.366 117.160  0.00  0.00     0.109 C 
ATOM     16  O   LIG d   1       4.980  90.207 117.527  0.00  0.00    -0.276 OA
ATOM     17  H   LIG d   1       3.359  91.204 115.005  0.00  0.00     0.149 HD
ENDBRANCH   6  13
BRANCH   5  18
ATOM     18  N   LIG d   1       5.930  89.828 113.436  0.00  0.00     0.381 N 
ATOM     19  H   LIG d   1       6.565  89.171 113.028  0.00  0.00    -0.090 HD
ATOM     20  H   LIG d   1       6.264  90.061 114.355  0.00  0.00    -0.090 HD
ATOM     21  H   LIG d   1       5.883  90.649 112.873  0.00  0.00    -0.090 HD
ENDBRANCH   5  18
BRANCH   3  22
ATOM     22  C   LIG d   1       3.209  86.057 112.288  0.00  0.00     0.382 C 
ATOM     23  O   LIG d   1       2.054  85.971 111.806  0.00  0.00    -0.241 OA
ATOM     24  O   LIG d   1       4.071  85.215 111.971  0.00  0.00    -0.241 OA
ENDBRANCH   3  22
TORSDOF 7
ENDMDL
MODEL 8
REMARK VINA RESULT:      -4.8     12.413     14.951
REMARK  7 active torsions:
REMARK  status: ('A' for Active; 'I' for Inactive)
REMARK    1  A    between atoms: C_2  and  C_3 
REMARK    2  A    between atoms: C_3  and  O_6 
REMARK    3  A    between atoms: C_3  and  C_4 
REMARK    4  A    between atoms: C_7  and  O_6 
REMARK    5  A    between atoms: C_9  and  C_10 
REMARK    6  A    between atoms: N_15  and  C_14 
REMARK    7  A    between atoms: N_20  and  C_19 
REMARK       I    between atoms: C_22  and  N_20 
ROOT
ATOM      1  C   LIG d   1      10.855  75.954 115.483  0.00  0.00     0.161 C 
ATOM      2  C   LIG d   1       9.464  75.931 115.677  0.00  0.00     0.016 C 
ATOM      3  C   LIG d   1       8.624  77.040 115.424  0.00  0.00     0.038 C 
ATOM      4  C   LIG d   1       9.102  78.207 114.810  0.00  0.00     0.028 C 
ATOM      5  C   LIG d   1      10.585  78.460 115.062  0.00  0.00    -0.047 C 
ATOM      6  C   LIG d   1      11.379  77.182 114.709  0.00  0.00     0.091 C 
ENDROOT
BRANCH   1   7
ATOM      7  O   LIG d   1      11.278  74.737 114.837  0.00  0.00    -0.368 OA
BRANCH   7   8
ATOM      8  C   LIG d   1      11.634  73.641 115.715  0.00  0.00     0.119 C 
BRANCH   8   9
ATOM      9  C   LIG d   1      12.880  74.071 116.512  0.00  0.00     0.028 C 
ATOM     10  C   LIG d   1      14.163  74.023 115.666  0.00  0.00     0.006 C 
ENDBRANCH   8   9
BRANCH   8  11
ATOM     11  C   LIG d   1      12.068  72.407 114.918  0.00  0.00     0.028 C 
ATOM     12  C   LIG d   1      11.581  71.091 115.545  0.00  0.00     0.006 C 
ENDBRANCH   8  11
ENDBRANCH   7   8
ENDBRANCH   1   7
BRANCH   6  13
ATOM     13  N   LIG d   1      12.829  77.315 115.007  0.00  0.00    -0.311 N 
ATOM     14  C   LIG d   1      13.732  77.687 114.101  0.00  0.00     0.210 C 
ATOM     15  C   LIG d   1      15.176  77.741 114.611  0.00  0.00     0.109 C 
ATOM     16  O   LIG d   1      13.471  78.007 112.932  0.00  0.00    -0.276 OA
ATOM     17  H   LIG d   1      13.125  77.105 115.940  0.00  0.00     0.149 HD
ENDBRANCH   6  13
BRANCH   5  18
ATOM     18  N   LIG d   1      10.981  79.629 114.254  0.00  0.00     0.381 N 
ATOM     19  H   LIG d   1      11.975  79.637 114.134  0.00  0.00    -0.090 HD
ATOM     20  H   LIG d   1      10.716  80.466 114.742  0.00  0.00    -0.090 HD
ATOM     21  H   LIG d   1      10.532  79.597 113.366  0.00  0.00    -0.090 HD
ENDBRANCH   5  18
BRANCH   3  22
ATOM     22  C   LIG d   1       7.296  77.002 115.822  0.00  0.00     0.382 C 
ATOM     23  O   LIG d   1       6.980  76.439 116.897  0.00  0.00    -0.241 OA
ATOM     24  O   LIG d   1       6.405  77.485 115.097  0.00  0.00    -0.241 OA
ENDBRANCH   3  22
TORSDOF 7
ENDMDL
MODEL 9
REMARK VINA RESULT:      -4.6      2.366      5.311
REMARK  7 active torsions:
REMARK  status: ('A' for Active; 'I' for Inactive)
REMARK    1  A    between atoms: C_2  and  C_3 
REMARK    2  A    between atoms: C_3  and  O_6 
REMARK    3  A    between atoms: C_3  and  C_4 
REMARK    4  A    between atoms: C_7  and  O_6 
REMARK    5  A    between atoms: C_9  and  C_10 
REMARK    6  A    between atoms: N_15  and  C_14 
REMARK    7  A    between atoms: N_20  and  C_19 
REMARK       I    between atoms: C_22  and  N_20 
ROOT
ATOM      1  C   LIG d   1       1.867  87.172 114.858  0.00  0.00     0.161 C 
ATOM      2  C   LIG d   1       0.638  86.568 114.547  0.00  0.00     0.016 C 
ATOM      3  C   LIG d   1       0.441  85.740 113.418  0.00  0.00     0.038 C 
ATOM      4  C   LIG d   1       1.507  85.336 112.600  0.00  0.00     0.028 C 
ATOM      5  C   LIG d   1       2.667  86.326 112.584  0.00  0.00    -0.047 C 
ATOM      6  C   LIG d   1       3.068  86.654 114.040  0.00  0.00     0.091 C 
ENDROOT
BRANCH   1   7
ATOM      7  O   LIG d   1       2.131  87.046 116.270  0.00  0.00    -0.368 OA
BRANCH   7   8
ATOM      8  C   LIG d   1       1.729  88.166 117.096  0.00  0.00     0.119 C 
BRANCH   8   9
ATOM      9  C   LIG d   1       1.674  89.412 116.191  0.00  0.00     0.028 C 
ATOM     10  C   LIG d   1       0.581  90.404 116.625  0.00  0.00     0.006 C 
ENDBRANCH   8   9
BRANCH   8  11
ATOM     11  C   LIG d   1       2.786  88.483 118.158  0.00  0.00     0.028 C 
ATOM     12  C   LIG d   1       4.151  88.843 117.551  0.00  0.00     0.006 C 
ENDBRANCH   8  11
ENDBRANCH   7   8
ENDBRANCH   1   7
BRANCH   6  13
ATOM     13  N   LIG d   1       4.141  87.680 114.116  0.00  0.00    -0.311 N 
ATOM     14  C   LIG d   1       4.066  88.864 113.511  0.00  0.00     0.210 C 
ATOM     15  C   LIG d   1       5.290  89.766 113.701  0.00  0.00     0.109 C 
ATOM     16  O   LIG d   1       3.089  89.267 112.862  0.00  0.00    -0.276 OA
ATOM     17  H   LIG d   1       4.957  87.449 114.648  0.00  0.00     0.149 HD
ENDBRANCH   6  13
BRANCH   5  18
ATOM     18  N   LIG d   1       3.762  85.717 111.805  0.00  0.00     0.381 N 
ATOM     19  H   LIG d   1       4.592  85.679 112.361  0.00  0.00    -0.090 HD
ATOM     20  H   LIG d   1       3.947  86.291 111.001  0.00  0.00    -0.090 HD
ATOM     21  H   LIG d   1       3.505  84.800 111.515  0.00  0.00    -0.090 HD
ENDBRANCH   5  18
BRANCH   3  22
ATOM     22  C   LIG d   1      -0.841  85.340 113.074  0.00  0.00     0.382 C 
ATOM     23  O   LIG d   1      -1.577  86.103 112.403  0.00  0.00    -0.241 OA
ATOM     24  O   LIG d   1      -1.287  84.244 113.464  0.00  0.00    -0.241 OA
ENDBRANCH   3  22
TORSDOF 7
ENDMDL
