MODEL 1
REMARK VINA RESULT:      -5.0      0.000      0.000
REMARK  7 active torsions:
REMARK  status: ('A' for Active; 'I' for Inactive)
REMARK    1  A    between atoms: C_2  and  C_3 
REMARK    2  A    between atoms: C_3  and  O_6 
REMARK    3  A    between atoms: C_3  and  C_4 
REMARK    4  A    between atoms: C_7  and  O_6 
REMARK    5  A    between atoms: C_9  and  C_10 
REMARK    6  A    between atoms: N_15  and  C_14 
REMARK    7  A    between atoms: N_20  and  C_19 
REMARK       I    between atoms: C_22  and  N_20 
ROOT
ATOM      1  C   LIG d   1      -1.759  76.001 114.972  0.00  0.00     0.161 C 
ATOM      2  C   LIG d   1      -1.659  74.967 115.918  0.00  0.00     0.016 C 
ATOM      3  C   LIG d   1      -0.945  75.090 117.132  0.00  0.00     0.038 C 
ATOM      4  C   LIG d   1      -0.406  76.314 117.555  0.00  0.00     0.028 C 
ATOM      5  C   LIG d   1      -0.049  77.248 116.404  0.00  0.00    -0.047 C 
ATOM      6  C   LIG d   1      -1.271  77.379 115.466  0.00  0.00     0.091 C 
ENDROOT
BRANCH   1   7
ATOM      7  O   LIG d   1      -3.114  76.092 114.489  0.00  0.00    -0.368 OA
BRANCH   7   8
ATOM      8  C   LIG d   1      -4.154  75.788 115.451  0.00  0.00     0.119 C 
BRANCH   8   9
ATOM      9  C   LIG d   1      -5.317  75.130 114.682  0.00  0.00     0.028 C 
ATOM     10  C   LIG d   1      -5.349  73.603 114.862  0.00  0.00     0.006 C 
ENDBRANCH   8   9
BRANCH   8  11
ATOM     11  C   LIG d   1      -4.741  77.066 116.059  0.00  0.00     0.028 C 
ATOM     12  C   LIG d   1      -6.125  76.844 116.689  0.00  0.00     0.006 C 
ENDBRANCH   8  11
ENDBRANCH   7   8
ENDBRANCH   1   7
BRANCH   6  13
ATOM     13  N   LIG d   1      -0.980  78.209 114.268  0.00  0.00    -0.311 N 
ATOM     14  C   LIG d   1      -1.633  79.333 113.979  0.00  0.00     0.210 C 
ATOM     15  C   LIG d   1      -1.189  80.024 112.686  0.00  0.00     0.109 C 
ATOM     16  O   LIG d   1      -2.516  79.840 114.687  0.00  0.00    -0.276 OA
ATOM     17  H   LIG d   1      -0.257  77.887 113.655  0.00  0.00     0.149 HD
ENDBRANCH   6  13
BRANCH   5  18
ATOM     18  N   LIG d   1       0.371  78.536 116.989  0.00  0.00     0.381 N 
ATOM     19  H   LIG d   1      -0.379  79.196 116.928  0.00  0.00    -0.090 HD
ATOM     20  H   LIG d   1       1.149  78.893 116.463  0.00  0.00    -0.090 HD
ATOM     21  H   LIG d   1       0.634  78.408 117.941  0.00  0.00    -0.090 HD
ENDBRANCH   5  18
BRANCH   3  22
ATOM     22  C   LIG d   1      -0.731  73.969 117.920  0.00  0.00     0.382 C 
ATOM     23  O   LIG d   1       0.344  73.845 118.555  0.00  0.00    -0.241 OA
ATOM     24  O   LIG d   1      -1.581  73.059 117.968  0.00  0.00    -0.241 OA
ENDBRANCH   3  22
TORSDOF 7
ENDMDL
MODEL 2
REMARK VINA RESULT:      -5.0     11.712     14.263
REMARK  7 active torsions:
REMARK  status: ('A' for Active; 'I' for Inactive)
REMARK    1  A    between atoms: C_2  and  C_3 
REMARK    2  A    between atoms: C_3  and  O_6 
REMARK    3  A    between atoms: C_3  and  C_4 
REMARK    4  A    between atoms: C_7  and  O_6 
REMARK    5  A    between atoms: C_9  and  C_10 
REMARK    6  A    between atoms: N_15  and  C_14 
REMARK    7  A    between atoms: N_20  and  C_19 
REMARK       I    between atoms: C_22  and  N_20 
ROOT
ATOM      1  C   LIG d   1      10.643  79.189 114.876  0.00  0.00     0.161 C 
ATOM      2  C   LIG d   1       9.324  79.594 115.141  0.00  0.00     0.016 C 
ATOM      3  C   LIG d   1       8.329  78.725 115.645  0.00  0.00     0.038 C 
ATOM      4  C   LIG d   1       8.627  77.420 116.063  0.00  0.00     0.028 C 
ATOM      5  C   LIG d   1       9.827  76.813 115.344  0.00  0.00    -0.047 C 
ATOM      6  C   LIG d   1      11.015  77.798 115.431  0.00  0.00     0.091 C 
ENDROOT
BRANCH   1   7
ATOM      7  O   LIG d   1      11.566  80.184 115.359  0.00  0.00    -0.368 OA
BRANCH   7   8
ATOM      8  C   LIG d   1      12.203  81.006 114.349  0.00  0.00     0.119 C 
BRANCH   8   9
ATOM      9  C   LIG d   1      11.884  80.383 112.976  0.00  0.00     0.028 C 
ATOM     10  C   LIG d   1      11.156  81.364 112.042  0.00  0.00     0.006 C 
ENDBRANCH   8   9
BRANCH   8  11
ATOM     11  C   LIG d   1      13.729  80.956 114.472  0.00  0.00     0.028 C 
ATOM     12  C   LIG d   1      14.410  80.388 113.216  0.00  0.00     0.006 C 
ENDBRANCH   8  11
ENDBRANCH   7   8
ENDBRANCH   1   7
BRANCH   6  13
ATOM     13  N   LIG d   1      12.205  77.318 114.680  0.00  0.00    -0.311 N 
ATOM     14  C   LIG d   1      13.433  77.288 115.194  0.00  0.00     0.210 C 
ATOM     15  C   LIG d   1      14.520  76.777 114.244  0.00  0.00     0.109 C 
ATOM     16  O   LIG d   1      13.721  77.606 116.358  0.00  0.00    -0.276 OA
ATOM     17  H   LIG d   1      12.057  77.012 113.738  0.00  0.00     0.149 HD
ENDBRANCH   6  13
BRANCH   5  18
ATOM     18  N   LIG d   1      10.110  75.509 115.972  0.00  0.00     0.381 N 
ATOM     19  H   LIG d   1      10.847  75.047 115.477  0.00  0.00    -0.090 HD
ATOM     20  H   LIG d   1       9.286  74.936 115.919  0.00  0.00    -0.090 HD
ATOM     21  H   LIG d   1      10.372  75.639 116.925  0.00  0.00    -0.090 HD
ENDBRANCH   5  18
BRANCH   3  22
ATOM     22  C   LIG d   1       7.010  79.148 115.697  0.00  0.00     0.382 C 
ATOM     23  O   LIG d   1       6.170  78.683 114.889  0.00  0.00    -0.241 OA
ATOM     24  O   LIG d   1       6.658  80.022 116.512  0.00  0.00    -0.241 OA
ENDBRANCH   3  22
TORSDOF 7
ENDMDL
MODEL 3
REMARK VINA RESULT:      -4.9      8.274     11.755
REMARK  7 active torsions:
REMARK  status: ('A' for Active; 'I' for Inactive)
REMARK    1  A    between atoms: C_2  and  C_3 
REMARK    2  A    between atoms: C_3  and  O_6 
REMARK    3  A    between atoms: C_3  and  C_4 
REMARK    4  A    between atoms: C_7  and  O_6 
REMARK    5  A    between atoms: C_9  and  C_10 
REMARK    6  A    between atoms: N_15  and  C_14 
REMARK    7  A    between atoms: N_20  and  C_19 
REMARK       I    between atoms: C_22  and  N_20 
ROOT
ATOM      1  C   LIG d   1       3.304  85.499 113.925  0.00  0.00     0.161 C 
ATOM      2  C   LIG d   1       3.984  86.697 114.199  0.00  0.00     0.016 C 
ATOM      3  C   LIG d   1       3.559  87.959 113.724  0.00  0.00     0.038 C 
ATOM      4  C   LIG d   1       2.332  88.128 113.065  0.00  0.00     0.028 C 
ATOM      5  C   LIG d   1       1.862  86.878 112.329  0.00  0.00    -0.047 C 
ATOM      6  C   LIG d   1       1.903  85.678 113.302  0.00  0.00     0.091 C 
ENDROOT
BRANCH   1   7
ATOM      7  O   LIG d   1       3.221  84.700 115.122  0.00  0.00    -0.368 OA
BRANCH   7   8
ATOM      8  C   LIG d   1       1.958  84.742 115.831  0.00  0.00     0.119 C 
BRANCH   8   9
ATOM      9  C   LIG d   1       2.154  85.633 117.073  0.00  0.00     0.028 C 
ATOM     10  C   LIG d   1       1.321  86.924 117.007  0.00  0.00     0.006 C 
ENDBRANCH   8   9
BRANCH   8  11
ATOM     11  C   LIG d   1       1.578  83.363 116.376  0.00  0.00     0.028 C 
ATOM     12  C   LIG d   1       2.066  82.213 115.481  0.00  0.00     0.006 C 
ENDBRANCH   8  11
ENDBRANCH   7   8
ENDBRANCH   1   7
BRANCH   6  13
ATOM     13  N   LIG d   1       1.539  84.398 112.640  0.00  0.00    -0.311 N 
ATOM     14  C   LIG d   1       0.286  83.958 112.535  0.00  0.00     0.210 C 
ATOM     15  C   LIG d   1       0.133  82.605 111.833  0.00  0.00     0.109 C 
ATOM     16  O   LIG d   1      -0.715  84.574 112.929  0.00  0.00    -0.276 OA
ATOM     17  H   LIG d   1       2.288  83.850 112.265  0.00  0.00     0.149 HD
ENDBRANCH   6  13
BRANCH   5  18
ATOM     18  N   LIG d   1       0.510  87.151 111.805  0.00  0.00     0.381 N 
ATOM     19  H   LIG d   1       0.423  86.776 110.882  0.00  0.00    -0.090 HD
ATOM     20  H   LIG d   1       0.376  88.146 111.756  0.00  0.00    -0.090 HD
ATOM     21  H   LIG d   1      -0.176  86.745 112.403  0.00  0.00    -0.090 HD
ENDBRANCH   5  18
BRANCH   3  22
ATOM     22  C   LIG d   1       4.385  89.063 113.872  0.00  0.00     0.382 C 
ATOM     23  O   LIG d   1       3.936  90.117 114.384  0.00  0.00    -0.241 OA
ATOM     24  O   LIG d   1       5.560  89.033 113.460  0.00  0.00    -0.241 OA
ENDBRANCH   3  22
TORSDOF 7
ENDMDL
MODEL 4
REMARK VINA RESULT:      -4.9      1.925      5.133
REMARK  7 active torsions:
REMARK  status: ('A' for Active; 'I' for Inactive)
REMARK    1  A    between atoms: C_2  and  C_3 
REMARK    2  A    between atoms: C_3  and  O_6 
REMARK    3  A    between atoms: C_3  and  C_4 
REMARK    4  A    between atoms: C_7  and  O_6 
REMARK    5  A    between atoms: C_9  and  C_10 
REMARK    6  A    between atoms: N_15  and  C_14 
REMARK    7  A    between atoms: N_20  and  C_19 
REMARK       I    between atoms: C_22  and  N_20 
ROOT
ATOM      1  C   LIG d   1      -2.904  77.790 116.609  0.00  0.00     0.161 C 
ATOM      2  C   LIG d   1      -3.022  78.841 115.685  0.00  0.00     0.016 C 
ATOM      3  C   LIG d   1      -2.356  78.860 114.438  0.00  0.00     0.038 C 
ATOM      4  C   LIG d   1      -1.642  77.750 113.962  0.00  0.00     0.028 C 
ATOM      5  C   LIG d   1      -1.080  76.870 115.074  0.00  0.00    -0.047 C 
ATOM      6  C   LIG d   1      -2.218  76.521 116.061  0.00  0.00     0.091 C 
ENDROOT
BRANCH   1   7
ATOM      7  O   LIG d   1      -4.201  77.465 117.148  0.00  0.00    -0.368 OA
BRANCH   7   8
ATOM      8  C   LIG d   1      -5.292  77.411 116.195  0.00  0.00     0.119 C 
BRANCH   8   9
ATOM      9  C   LIG d   1      -6.586  77.760 116.955  0.00  0.00     0.028 C 
ATOM     10  C   LIG d   1      -7.527  76.552 117.096  0.00  0.00     0.006 C 
ENDBRANCH   8   9
BRANCH   8  11
ATOM     11  C   LIG d   1      -5.501  75.989 115.668  0.00  0.00     0.028 C 
ATOM     12  C   LIG d   1      -5.498  75.916 114.133  0.00  0.00     0.006 C 
ENDBRANCH   8  11
ENDBRANCH   7   8
ENDBRANCH   1   7
BRANCH   6  13
ATOM     13  N   LIG d   1      -1.737  75.732 117.224  0.00  0.00    -0.311 N 
ATOM     14  C   LIG d   1      -1.721  74.400 117.250  0.00  0.00     0.210 C 
ATOM     15  C   LIG d   1      -1.204  73.785 118.555  0.00  0.00     0.109 C 
ATOM     16  O   LIG d   1      -2.055  73.670 116.305  0.00  0.00    -0.276 OA
ATOM     17  H   LIG d   1      -1.418  76.244 118.023  0.00  0.00     0.149 HD
ENDBRANCH   6  13
BRANCH   5  18
ATOM     18  N   LIG d   1      -0.480  75.680 114.440  0.00  0.00     0.381 N 
ATOM     19  H   LIG d   1      -0.853  75.563 113.519  0.00  0.00    -0.090 HD
ATOM     20  H   LIG d   1      -0.717  74.869 114.983  0.00  0.00    -0.090 HD
ATOM     21  H   LIG d   1       0.510  75.781 114.395  0.00  0.00    -0.090 HD
ENDBRANCH   5  18
BRANCH   3  22
ATOM     22  C   LIG d   1      -2.369  80.014 113.669  0.00  0.00     0.382 C 
ATOM     23  O   LIG d   1      -3.460  80.563 113.381  0.00  0.00    -0.241 OA
ATOM     24  O   LIG d   1      -1.307  80.487 113.222  0.00  0.00    -0.241 OA
ENDBRANCH   3  22
TORSDOF 7
ENDMDL
MODEL 5
REMARK VINA RESULT:      -4.7      8.118     11.724
REMARK  7 active torsions:
REMARK  status: ('A' for Active; 'I' for Inactive)
REMARK    1  A    between atoms: C_2  and  C_3 
REMARK    2  A    between atoms: C_3  and  O_6 
REMARK    3  A    between atoms: C_3  and  C_4 
REMARK    4  A    between atoms: C_7  and  O_6 
REMARK    5  A    between atoms: C_9  and  C_10 
REMARK    6  A    between atoms: N_15  and  C_14 
REMARK    7  A    between atoms: N_20  and  C_19 
REMARK       I    between atoms: C_22  and  N_20 
ROOT
ATOM      1  C   LIG d   1       3.136  85.728 114.153  0.00  0.00     0.161 C 
ATOM      2  C   LIG d   1       3.695  86.875 113.564  0.00  0.00     0.016 C 
ATOM      3  C   LIG d   1       4.510  87.791 114.267  0.00  0.00     0.038 C 
ATOM      4  C   LIG d   1       4.948  87.541 115.576  0.00  0.00     0.028 C 
ATOM      5  C   LIG d   1       4.000  86.651 116.373  0.00  0.00    -0.047 C 
ATOM      6  C   LIG d   1       3.693  85.380 115.549  0.00  0.00     0.091 C 
ENDROOT
BRANCH   1   7
ATOM      7  O   LIG d   1       3.278  84.603 113.262  0.00  0.00    -0.368 OA
BRANCH   7   8
ATOM      8  C   LIG d   1       2.138  84.313 112.416  0.00  0.00     0.119 C 
BRANCH   8   9
ATOM      9  C   LIG d   1       0.869  84.490 113.272  0.00  0.00     0.028 C 
ATOM     10  C   LIG d   1      -0.216  85.308 112.551  0.00  0.00     0.006 C 
ENDBRANCH   8   9
BRANCH   8  11
ATOM     11  C   LIG d   1       2.130  82.846 111.976  0.00  0.00     0.028 C 
ATOM     12  C   LIG d   1       1.656  81.894 113.086  0.00  0.00     0.006 C 
ENDBRANCH   8  11
ENDBRANCH   7   8
ENDBRANCH   1   7
BRANCH   6  13
ATOM     13  N   LIG d   1       2.706  84.494 116.219  0.00  0.00    -0.311 N 
ATOM     14  C   LIG d   1       2.895  83.187 116.394  0.00  0.00     0.210 C 
ATOM     15  C   LIG d   1       1.743  82.456 117.091  0.00  0.00     0.109 C 
ATOM     16  O   LIG d   1       3.920  82.570 116.068  0.00  0.00    -0.276 OA
ATOM     17  H   LIG d   1       1.859  84.918 116.543  0.00  0.00     0.149 HD
ENDBRANCH   6  13
BRANCH   5  18
ATOM     18  N   LIG d   1       4.644  86.359 117.667  0.00  0.00     0.381 N 
ATOM     19  H   LIG d   1       3.946  86.222 118.370  0.00  0.00    -0.090 HD
ATOM     20  H   LIG d   1       5.209  87.147 117.934  0.00  0.00    -0.090 HD
ATOM     21  H   LIG d   1       5.212  85.545 117.590  0.00  0.00    -0.090 HD
ENDBRANCH   5  18
BRANCH   3  22
ATOM     22  C   LIG d   1       4.863  88.993 113.673  0.00  0.00     0.382 C 
ATOM     23  O   LIG d   1       4.045  89.945 113.650  0.00  0.00    -0.241 OA
ATOM     24  O   LIG d   1       5.971  89.124 113.121  0.00  0.00    -0.241 OA
ENDBRANCH   3  22
TORSDOF 7
ENDMDL
MODEL 6
REMARK VINA RESULT:      -4.5     11.778     14.108
REMARK  7 active torsions:
REMARK  status: ('A' for Active; 'I' for Inactive)
REMARK    1  A    between atoms: C_2  and  C_3 
REMARK    2  A    between atoms: C_3  and  O_6 
REMARK    3  A    between atoms: C_3  and  C_4 
REMARK    4  A    between atoms: C_7  and  O_6 
REMARK    5  A    between atoms: C_9  and  C_10 
REMARK    6  A    between atoms: N_15  and  C_14 
REMARK    7  A    between atoms: N_20  and  C_19 
REMARK       I    between atoms: C_22  and  N_20 
ROOT
ATOM      1  C   LIG d   1      10.797  78.462 115.244  0.00  0.00     0.161 C 
ATOM      2  C   LIG d   1      11.179  79.521 114.403  0.00  0.00     0.016 C 
ATOM      3  C   LIG d   1      12.416  79.565 113.719  0.00  0.00     0.038 C 
ATOM      4  C   LIG d   1      13.297  78.473 113.710  0.00  0.00     0.028 C 
ATOM      5  C   LIG d   1      13.181  77.591 114.948  0.00  0.00    -0.047 C 
ATOM      6  C   LIG d   1      11.697  77.212 115.158  0.00  0.00     0.091 C 
ENDROOT
BRANCH   1   7
ATOM      7  O   LIG d   1       9.423  78.109 114.990  0.00  0.00    -0.368 OA
BRANCH   7   8
ATOM      8  C   LIG d   1       8.427  78.848 115.738  0.00  0.00     0.119 C 
BRANCH   8   9
ATOM      9  C   LIG d   1       8.846  78.823 117.220  0.00  0.00     0.028 C 
ATOM     10  C   LIG d   1       8.400  77.536 117.934  0.00  0.00     0.006 C 
ENDBRANCH   8   9
BRANCH   8  11
ATOM     11  C   LIG d   1       7.064  78.152 115.690  0.00  0.00     0.028 C 
ATOM     12  C   LIG d   1       5.892  79.141 115.592  0.00  0.00     0.006 C 
ENDBRANCH   8  11
ENDBRANCH   7   8
ENDBRANCH   1   7
BRANCH   6  13
ATOM     13  N   LIG d   1      11.485  76.419 116.396  0.00  0.00    -0.311 N 
ATOM     14  C   LIG d   1      11.462  75.087 116.419  0.00  0.00     0.210 C 
ATOM     15  C   LIG d   1      11.208  74.468 117.798  0.00  0.00     0.109 C 
ATOM     16  O   LIG d   1      11.660  74.359 115.435  0.00  0.00    -0.276 OA
ATOM     17  H   LIG d   1      11.347  76.929 117.247  0.00  0.00     0.149 HD
ENDBRANCH   6  13
BRANCH   5  18
ATOM     18  N   LIG d   1      14.054  76.419 114.744  0.00  0.00     0.381 N 
ATOM     19  H   LIG d   1      13.866  76.008 113.851  0.00  0.00    -0.090 HD
ATOM     20  H   LIG d   1      13.854  75.737 115.454  0.00  0.00    -0.090 HD
ATOM     21  H   LIG d   1      15.011  76.693 114.797  0.00  0.00    -0.090 HD
ENDBRANCH   5  18
BRANCH   3  22
ATOM     22  C   LIG d   1      12.799  80.726 113.066  0.00  0.00     0.382 C 
ATOM     23  O   LIG d   1      12.016  81.278 112.257  0.00  0.00    -0.241 OA
ATOM     24  O   LIG d   1      13.936  81.204 113.243  0.00  0.00    -0.241 OA
ENDBRANCH   3  22
TORSDOF 7
ENDMDL
MODEL 7
REMARK VINA RESULT:      -4.5     12.110     14.408
REMARK  7 active torsions:
REMARK  status: ('A' for Active; 'I' for Inactive)
REMARK    1  A    between atoms: C_2  and  C_3 
REMARK    2  A    between atoms: C_3  and  O_6 
REMARK    3  A    between atoms: C_3  and  C_4 
REMARK    4  A    between atoms: C_7  and  O_6 
REMARK    5  A    between atoms: C_9  and  C_10 
REMARK    6  A    between atoms: N_15  and  C_14 
REMARK    7  A    between atoms: N_20  and  C_19 
REMARK       I    between atoms: C_22  and  N_20 
ROOT
ATOM      1  C   LIG d   1      11.819  77.937 115.170  0.00  0.00     0.161 C 
ATOM      2  C   LIG d   1      13.138  77.470 115.051  0.00  0.00     0.016 C 
ATOM      3  C   LIG d   1      13.517  76.133 115.314  0.00  0.00     0.038 C 
ATOM      4  C   LIG d   1      12.570  75.131 115.569  0.00  0.00     0.028 C 
ATOM      5  C   LIG d   1      11.283  75.659 116.195  0.00  0.00    -0.047 C 
ATOM      6  C   LIG d   1      10.755  76.833 115.340  0.00  0.00     0.091 C 
ENDROOT
BRANCH   1   7
ATOM      7  O   LIG d   1      11.495  78.777 114.045  0.00  0.00    -0.368 OA
BRANCH   7   8
ATOM      8  C   LIG d   1      11.742  80.194 114.215  0.00  0.00     0.119 C 
BRANCH   8   9
ATOM      9  C   LIG d   1      10.380  80.877 114.448  0.00  0.00     0.028 C 
ATOM     10  C   LIG d   1      10.079  81.090 115.941  0.00  0.00     0.006 C 
ENDBRANCH   8   9
BRANCH   8  11
ATOM     11  C   LIG d   1      12.295  80.821 112.932  0.00  0.00     0.028 C 
ATOM     12  C   LIG d   1      11.192  81.358 112.007  0.00  0.00     0.006 C 
ENDBRANCH   8  11
ENDBRANCH   7   8
ENDBRANCH   1   7
BRANCH   6  13
ATOM     13  N   LIG d   1       9.544  77.462 115.928  0.00  0.00    -0.311 N 
ATOM     14  C   LIG d   1       8.302  77.141 115.568  0.00  0.00     0.210 C 
ATOM     15  C   LIG d   1       7.198  77.925 116.285  0.00  0.00     0.109 C 
ATOM     16  O   LIG d   1       8.010  76.260 114.746  0.00  0.00    -0.276 OA
ATOM     17  H   LIG d   1       9.688  78.166 116.625  0.00  0.00     0.149 HD
ENDBRANCH   6  13
BRANCH   5  18
ATOM     18  N   LIG d   1      10.334  74.532 116.280  0.00  0.00     0.381 N 
ATOM     19  H   LIG d   1       9.825  74.453 115.422  0.00  0.00    -0.090 HD
ATOM     20  H   LIG d   1       9.679  74.714 117.020  0.00  0.00    -0.090 HD
ATOM     21  H   LIG d   1      10.826  73.685 116.463  0.00  0.00    -0.090 HD
ENDBRANCH   5  18
BRANCH   3  22
ATOM     22  C   LIG d   1      14.862  75.797 115.361  0.00  0.00     0.382 C 
ATOM     23  O   LIG d   1      15.347  75.302 116.407  0.00  0.00    -0.241 OA
ATOM     24  O   LIG d   1      15.604  76.022 114.387  0.00  0.00    -0.241 OA
ENDBRANCH   3  22
TORSDOF 7
ENDMDL
MODEL 8
REMARK VINA RESULT:      -4.3     11.296     14.460
REMARK  7 active torsions:
REMARK  status: ('A' for Active; 'I' for Inactive)
REMARK    1  A    between atoms: C_2  and  C_3 
REMARK    2  A    between atoms: C_3  and  O_6 
REMARK    3  A    between atoms: C_3  and  C_4 
REMARK    4  A    between atoms: C_7  and  O_6 
REMARK    5  A    between atoms: C_9  and  C_10 
REMARK    6  A    between atoms: N_15  and  C_14 
REMARK    7  A    between atoms: N_20  and  C_19 
REMARK       I    between atoms: C_22  and  N_20 
ROOT
ATOM      1  C   LIG d   1       2.229  89.155 116.523  0.00  0.00     0.161 C 
ATOM      2  C   LIG d   1       2.969  90.258 116.979  0.00  0.00     0.016 C 
ATOM      3  C   LIG d   1       4.178  90.684 116.383  0.00  0.00     0.038 C 
ATOM      4  C   LIG d   1       4.653  90.124 115.188  0.00  0.00     0.028 C 
ATOM      5  C   LIG d   1       4.207  88.681 114.976  0.00  0.00    -0.047 C 
ATOM      6  C   LIG d   1       2.673  88.599 115.154  0.00  0.00     0.091 C 
ENDROOT
BRANCH   1   7
ATOM      7  O   LIG d   1       0.826  89.484 116.498  0.00  0.00    -0.368 OA
BRANCH   7   8
ATOM      8  C   LIG d   1       0.329  90.244 117.627  0.00  0.00     0.119 C 
BRANCH   8   9
ATOM      9  C   LIG d   1      -0.519  89.290 118.490  0.00  0.00     0.028 C 
ATOM     10  C   LIG d   1      -1.930  89.077 117.916  0.00  0.00     0.006 C 
ENDBRANCH   8   9
BRANCH   8  11
ATOM     11  C   LIG d   1      -0.633  91.347 117.177  0.00  0.00     0.028 C 
ATOM     12  C   LIG d   1       0.060  92.708 117.004  0.00  0.00     0.006 C 
ENDBRANCH   8  11
ENDBRANCH   7   8
ENDBRANCH   1   7
BRANCH   6  13
ATOM     13  N   LIG d   1       2.164  87.207 115.046  0.00  0.00    -0.311 N 
ATOM     14  C   LIG d   1       1.715  86.677 113.910  0.00  0.00     0.210 C 
ATOM     15  C   LIG d   1       1.217  85.233 114.023  0.00  0.00     0.109 C 
ATOM     16  O   LIG d   1       1.713  87.254 112.812  0.00  0.00    -0.276 OA
ATOM     17  H   LIG d   1       2.159  86.657 115.882  0.00  0.00     0.149 HD
ENDBRANCH   6  13
BRANCH   5  18
ATOM     18  N   LIG d   1       4.656  88.268 113.633  0.00  0.00     0.381 N 
ATOM     19  H   LIG d   1       3.949  87.712 113.196  0.00  0.00    -0.090 HD
ATOM     20  H   LIG d   1       5.486  87.708 113.726  0.00  0.00    -0.090 HD
ATOM     21  H   LIG d   1       4.850  89.071 113.077  0.00  0.00    -0.090 HD
ENDBRANCH   5  18
BRANCH   3  22
ATOM     22  C   LIG d   1       4.945  91.657 117.006  0.00  0.00     0.382 C 
ATOM     23  O   LIG d   1       6.069  91.360 117.479  0.00  0.00    -0.241 OA
ATOM     24  O   LIG d   1       4.510  92.816 117.140  0.00  0.00    -0.241 OA
ENDBRANCH   3  22
TORSDOF 7
ENDMDL
MODEL 9
REMARK VINA RESULT:      -4.1     12.770     15.045
REMARK  7 active torsions:
REMARK  status: ('A' for Active; 'I' for Inactive)
REMARK    1  A    between atoms: C_2  and  C_3 
REMARK    2  A    between atoms: C_3  and  O_6 
REMARK    3  A    between atoms: C_3  and  C_4 
REMARK    4  A    between atoms: C_7  and  O_6 
REMARK    5  A    between atoms: C_9  and  C_10 
REMARK    6  A    between atoms: N_15  and  C_14 
REMARK    7  A    between atoms: N_20  and  C_19 
REMARK       I    between atoms: C_22  and  N_20 
ROOT
ATOM      1  C   LIG d   1      12.518  78.879 115.632  0.00  0.00     0.161 C 
ATOM      2  C   LIG d   1      11.398  79.581 116.108  0.00  0.00     0.016 C 
ATOM      3  C   LIG d   1      10.614  80.435 115.300  0.00  0.00     0.038 C 
ATOM      4  C   LIG d   1      10.807  80.529 113.914  0.00  0.00     0.028 C 
ATOM      5  C   LIG d   1      12.239  80.229 113.481  0.00  0.00    -0.047 C 
ATOM      6  C   LIG d   1      12.678  78.881 114.097  0.00  0.00     0.091 C 
ENDROOT
BRANCH   1   7
ATOM      7  O   LIG d   1      12.495  77.527 116.131  0.00  0.00    -0.368 OA
BRANCH   7   8
ATOM      8  C   LIG d   1      11.753  76.567 115.338  0.00  0.00     0.119 C 
BRANCH   8   9
ATOM      9  C   LIG d   1      10.481  76.201 116.126  0.00  0.00     0.028 C 
ATOM     10  C   LIG d   1       9.205  76.762 115.475  0.00  0.00     0.006 C 
ENDBRANCH   8   9
BRANCH   8  11
ATOM     11  C   LIG d   1      12.527  75.254 115.185  0.00  0.00     0.028 C 
ATOM     12  C   LIG d   1      14.014  75.393 115.547  0.00  0.00     0.006 C 
ENDBRANCH   8  11
ENDBRANCH   7   8
ENDBRANCH   1   7
BRANCH   6  13
ATOM     13  N   LIG d   1      14.095  78.554 113.792  0.00  0.00    -0.311 N 
ATOM     14  C   LIG d   1      14.475  77.885 112.704  0.00  0.00     0.210 C 
ATOM     15  C   LIG d   1      15.982  77.635 112.593  0.00  0.00     0.109 C 
ATOM     16  O   LIG d   1      13.710  77.503 111.806  0.00  0.00    -0.276 OA
ATOM     17  H   LIG d   1      14.785  78.853 114.452  0.00  0.00     0.149 HD
ENDBRANCH   6  13
BRANCH   5  18
ATOM     18  N   LIG d   1      12.267  80.227 112.006  0.00  0.00     0.381 N 
ATOM     19  H   LIG d   1      12.933  79.556 111.681  0.00  0.00    -0.090 HD
ATOM     20  H   LIG d   1      12.551  81.136 111.685  0.00  0.00    -0.090 HD
ATOM     21  H   LIG d   1      11.363  80.009 111.648  0.00  0.00    -0.090 HD
ENDBRANCH   5  18
BRANCH   3  22
ATOM     22  C   LIG d   1       9.647  81.239 115.886  0.00  0.00     0.382 C 
ATOM     23  O   LIG d   1       8.584  80.730 116.314  0.00  0.00    -0.241 OA
ATOM     24  O   LIG d   1       9.806  82.473 115.951  0.00  0.00    -0.241 OA
ENDBRANCH   3  22
TORSDOF 7
ENDMDL
