MODEL 1
REMARK VINA RESULT:      -4.8      0.000      0.000
REMARK  7 active torsions:
REMARK  status: ('A' for Active; 'I' for Inactive)
REMARK    1  A    between atoms: C_2  and  C_3 
REMARK    2  A    between atoms: C_3  and  O_6 
REMARK    3  A    between atoms: C_3  and  C_4 
REMARK    4  A    between atoms: C_7  and  O_6 
REMARK    5  A    between atoms: C_9  and  C_10 
REMARK    6  A    between atoms: N_15  and  C_14 
REMARK    7  A    between atoms: N_20  and  C_19 
REMARK       I    between atoms: C_22  and  N_20 
ROOT
ATOM      1  C   LIG d   1       2.168  87.057 115.062  0.00  0.00     0.161 C 
ATOM      2  C   LIG d   1       1.086  86.737 115.899  0.00  0.00     0.016 C 
ATOM      3  C   LIG d   1       0.513  87.650 116.813  0.00  0.00     0.038 C 
ATOM      4  C   LIG d   1       0.888  89.002 116.845  0.00  0.00     0.028 C 
ATOM      5  C   LIG d   1       2.318  89.244 116.373  0.00  0.00    -0.047 C 
ATOM      6  C   LIG d   1       2.518  88.558 115.003  0.00  0.00     0.091 C 
ENDROOT
BRANCH   1   7
ATOM      7  O   LIG d   1       1.927  86.546 113.736  0.00  0.00    -0.368 OA
BRANCH   7   8
ATOM      8  C   LIG d   1       2.423  85.211 113.467  0.00  0.00     0.119 C 
BRANCH   8   9
ATOM      9  C   LIG d   1       3.943  85.319 113.243  0.00  0.00     0.028 C 
ATOM     10  C   LIG d   1       4.297  85.734 111.805  0.00  0.00     0.006 C 
ENDBRANCH   8   9
BRANCH   8  11
ATOM     11  C   LIG d   1       1.857  84.660 112.154  0.00  0.00     0.028 C 
ATOM     12  C   LIG d   1       0.323  84.573 112.157  0.00  0.00     0.006 C 
ENDBRANCH   8  11
ENDBRANCH   7   8
ENDBRANCH   1   7
BRANCH   6  13
ATOM     13  N   LIG d   1       3.914  88.675 114.508  0.00  0.00    -0.311 N 
ATOM     14  C   LIG d   1       4.224  89.041 113.265  0.00  0.00     0.210 C 
ATOM     15  C   LIG d   1       5.724  89.078 112.957  0.00  0.00     0.109 C 
ATOM     16  O   LIG d   1       3.400  89.368 112.398  0.00  0.00    -0.276 OA
ATOM     17  H   LIG d   1       4.647  88.458 115.155  0.00  0.00     0.149 HD
ENDBRANCH   6  13
BRANCH   5  18
ATOM     18  N   LIG d   1       2.530  90.703 116.326  0.00  0.00     0.381 N 
ATOM     19  H   LIG d   1       3.060  90.995 117.123  0.00  0.00    -0.090 HD
ATOM     20  H   LIG d   1       1.637  91.163 116.356  0.00  0.00    -0.090 HD
ATOM     21  H   LIG d   1       3.011  90.951 115.489  0.00  0.00    -0.090 HD
ENDBRANCH   5  18
BRANCH   3  22
ATOM     22  C   LIG d   1      -0.419  87.204 117.737  0.00  0.00     0.382 C 
ATOM     23  O   LIG d   1      -0.250  86.106 118.319  0.00  0.00    -0.241 OA
ATOM     24  O   LIG d   1      -1.451  87.865 117.964  0.00  0.00    -0.241 OA
ENDBRANCH   3  22
TORSDOF 7
ENDMDL
MODEL 2
REMARK VINA RESULT:      -4.8     24.937     27.260
REMARK  7 active torsions:
REMARK  status: ('A' for Active; 'I' for Inactive)
REMARK    1  A    between atoms: C_2  and  C_3 
REMARK    2  A    between atoms: C_3  and  O_6 
REMARK    3  A    between atoms: C_3  and  C_4 
REMARK    4  A    between atoms: C_7  and  O_6 
REMARK    5  A    between atoms: C_9  and  C_10 
REMARK    6  A    between atoms: N_15  and  C_14 
REMARK    7  A    between atoms: N_20  and  C_19 
REMARK       I    between atoms: C_22  and  N_20 
ROOT
ATOM      1  C   LIG d   1     -23.710  83.510 113.444  0.00  0.00     0.161 C 
ATOM      2  C   LIG d   1     -22.831  84.562 113.750  0.00  0.00     0.016 C 
ATOM      3  C   LIG d   1     -23.193  85.927 113.671  0.00  0.00     0.038 C 
ATOM      4  C   LIG d   1     -24.514  86.330 113.426  0.00  0.00     0.028 C 
ATOM      5  C   LIG d   1     -25.316  85.316 112.617  0.00  0.00    -0.047 C 
ATOM      6  C   LIG d   1     -25.186  83.927 113.282  0.00  0.00     0.091 C 
ENDROOT
BRANCH   1   7
ATOM      7  O   LIG d   1     -23.589  82.469 114.433  0.00  0.00    -0.368 OA
BRANCH   7   8
ATOM      8  C   LIG d   1     -24.469  82.574 115.580  0.00  0.00     0.119 C 
BRANCH   8   9
ATOM      9  C   LIG d   1     -23.593  82.888 116.808  0.00  0.00     0.028 C 
ATOM     10  C   LIG d   1     -22.150  82.380 116.645  0.00  0.00     0.006 C 
ENDBRANCH   8   9
BRANCH   8  11
ATOM     11  C   LIG d   1     -25.140  81.234 115.892  0.00  0.00     0.028 C 
ATOM     12  C   LIG d   1     -24.772  80.134 114.883  0.00  0.00     0.006 C 
ENDBRANCH   8  11
ENDBRANCH   7   8
ENDBRANCH   1   7
BRANCH   6  13
ATOM     13  N   LIG d   1     -25.872  82.861 112.506  0.00  0.00    -0.311 N 
ATOM     14  C   LIG d   1     -27.094  82.415 112.795  0.00  0.00     0.210 C 
ATOM     15  C   LIG d   1     -27.607  81.298 111.881  0.00  0.00     0.109 C 
ATOM     16  O   LIG d   1     -27.814  82.862 113.700  0.00  0.00    -0.276 OA
ATOM     17  H   LIG d   1     -25.372  82.464 111.735  0.00  0.00     0.149 HD
ENDBRANCH   6  13
BRANCH   5  18
ATOM     18  N   LIG d   1     -26.709  85.799 112.553  0.00  0.00     0.381 N 
ATOM     19  H   LIG d   1     -27.238  85.407 113.306  0.00  0.00    -0.090 HD
ATOM     20  H   LIG d   1     -27.119  85.495 111.687  0.00  0.00    -0.090 HD
ATOM     21  H   LIG d   1     -26.728  86.793 112.606  0.00  0.00    -0.090 HD
ENDBRANCH   5  18
BRANCH   3  22
ATOM     22  C   LIG d   1     -22.219  86.905 113.801  0.00  0.00     0.382 C 
ATOM     23  O   LIG d   1     -22.406  87.877 114.572  0.00  0.00    -0.241 OA
ATOM     24  O   LIG d   1     -21.176  86.851 113.123  0.00  0.00    -0.241 OA
ENDBRANCH   3  22
TORSDOF 7
ENDMDL
MODEL 3
REMARK VINA RESULT:      -4.7      2.262      5.225
REMARK  7 active torsions:
REMARK  status: ('A' for Active; 'I' for Inactive)
REMARK    1  A    between atoms: C_2  and  C_3 
REMARK    2  A    between atoms: C_3  and  O_6 
REMARK    3  A    between atoms: C_3  and  C_4 
REMARK    4  A    between atoms: C_7  and  O_6 
REMARK    5  A    between atoms: C_9  and  C_10 
REMARK    6  A    between atoms: N_15  and  C_14 
REMARK    7  A    between atoms: N_20  and  C_19 
REMARK       I    between atoms: C_22  and  N_20 
ROOT
ATOM      1  C   LIG d   1       3.060  87.935 115.137  0.00  0.00     0.161 C 
ATOM      2  C   LIG d   1       3.032  86.788 114.325  0.00  0.00     0.016 C 
ATOM      3  C   LIG d   1       3.808  86.647 113.151  0.00  0.00     0.038 C 
ATOM      4  C   LIG d   1       4.783  87.588 112.789  0.00  0.00     0.028 C 
ATOM      5  C   LIG d   1       4.488  88.993 113.301  0.00  0.00    -0.047 C 
ATOM      6  C   LIG d   1       4.200  88.925 114.819  0.00  0.00     0.091 C 
ENDROOT
BRANCH   1   7
ATOM      7  O   LIG d   1       3.103  87.550 116.525  0.00  0.00    -0.368 OA
BRANCH   7   8
ATOM      8  C   LIG d   1       2.043  88.069 117.364  0.00  0.00     0.119 C 
BRANCH   8   9
ATOM      9  C   LIG d   1       1.565  86.919 118.272  0.00  0.00     0.028 C 
ATOM     10  C   LIG d   1       0.631  85.942 117.538  0.00  0.00     0.006 C 
ENDBRANCH   8   9
BRANCH   8  11
ATOM     11  C   LIG d   1       0.818  88.466 116.533  0.00  0.00     0.028 C 
ATOM     12  C   LIG d   1       0.427  89.941 116.715  0.00  0.00     0.006 C 
ENDBRANCH   8  11
ENDBRANCH   7   8
ENDBRANCH   1   7
BRANCH   6  13
ATOM     13  N   LIG d   1       3.819  90.246 115.384  0.00  0.00    -0.311 N 
ATOM     14  C   LIG d   1       4.443  90.809 116.416  0.00  0.00     0.210 C 
ATOM     15  C   LIG d   1       3.878  92.164 116.853  0.00  0.00     0.109 C 
ATOM     16  O   LIG d   1       5.432  90.330 116.992  0.00  0.00    -0.276 OA
ATOM     17  H   LIG d   1       3.047  90.719 114.957  0.00  0.00     0.149 HD
ENDBRANCH   6  13
BRANCH   5  18
ATOM     18  N   LIG d   1       5.650  89.841 112.972  0.00  0.00     0.381 N 
ATOM     19  H   LIG d   1       6.303  89.321 112.420  0.00  0.00    -0.090 HD
ATOM     20  H   LIG d   1       6.105  90.115 113.825  0.00  0.00    -0.090 HD
ATOM     21  H   LIG d   1       5.351  90.649 112.471  0.00  0.00    -0.090 HD
ENDBRANCH   5  18
BRANCH   3  22
ATOM     22  C   LIG d   1       3.582  85.573 112.304  0.00  0.00     0.382 C 
ATOM     23  O   LIG d   1       4.527  84.806 111.999  0.00  0.00    -0.241 OA
ATOM     24  O   LIG d   1       2.456  85.386 111.806  0.00  0.00    -0.241 OA
ENDBRANCH   3  22
TORSDOF 7
ENDMDL
MODEL 4
REMARK VINA RESULT:      -4.6     10.921     13.027
REMARK  7 active torsions:
REMARK  status: ('A' for Active; 'I' for Inactive)
REMARK    1  A    between atoms: C_2  and  C_3 
REMARK    2  A    between atoms: C_3  and  O_6 
REMARK    3  A    between atoms: C_3  and  C_4 
REMARK    4  A    between atoms: C_7  and  O_6 
REMARK    5  A    between atoms: C_9  and  C_10 
REMARK    6  A    between atoms: N_15  and  C_14 
REMARK    7  A    between atoms: N_20  and  C_19 
REMARK       I    between atoms: C_22  and  N_20 
ROOT
ATOM      1  C   LIG d   1      10.695  79.267 114.649  0.00  0.00     0.161 C 
ATOM      2  C   LIG d   1       9.358  79.478 115.026  0.00  0.00     0.016 C 
ATOM      3  C   LIG d   1       8.541  78.472 115.593  0.00  0.00     0.038 C 
ATOM      4  C   LIG d   1       9.056  77.220 115.963  0.00  0.00     0.028 C 
ATOM      5  C   LIG d   1      10.267  76.796 115.139  0.00  0.00    -0.047 C 
ATOM      6  C   LIG d   1      11.306  77.941 115.148  0.00  0.00     0.091 C 
ENDROOT
BRANCH   1   7
ATOM      7  O   LIG d   1      11.503  80.382 115.074  0.00  0.00    -0.368 OA
BRANCH   7   8
ATOM      8  C   LIG d   1      12.039  81.219 114.019  0.00  0.00     0.119 C 
BRANCH   8   9
ATOM      9  C   LIG d   1      11.465  80.705 112.684  0.00  0.00     0.028 C 
ATOM     10  C   LIG d   1      10.807  81.824 111.859  0.00  0.00     0.006 C 
ENDBRANCH   8   9
BRANCH   8  11
ATOM     11  C   LIG d   1      13.557  81.057 113.897  0.00  0.00     0.028 C 
ATOM     12  C   LIG d   1      14.236  80.766 115.245  0.00  0.00     0.006 C 
ENDBRANCH   8  11
ENDBRANCH   7   8
ENDBRANCH   1   7
BRANCH   6  13
ATOM     13  N   LIG d   1      12.486  77.641 114.296  0.00  0.00    -0.311 N 
ATOM     14  C   LIG d   1      13.617  77.120 114.768  0.00  0.00     0.210 C 
ATOM     15  C   LIG d   1      14.717  76.909 113.723  0.00  0.00     0.109 C 
ATOM     16  O   LIG d   1      13.803  76.783 115.947  0.00  0.00    -0.276 OA
ATOM     17  H   LIG d   1      12.411  77.855 113.321  0.00  0.00     0.149 HD
ENDBRANCH   6  13
BRANCH   5  18
ATOM     18  N   LIG d   1      10.783  75.542 115.720  0.00  0.00     0.381 N 
ATOM     19  H   LIG d   1      10.796  75.611 116.718  0.00  0.00    -0.090 HD
ATOM     20  H   LIG d   1      11.726  75.401 115.402  0.00  0.00    -0.090 HD
ATOM     21  H   LIG d   1      10.212  74.776 115.440  0.00  0.00    -0.090 HD
ENDBRANCH   5  18
BRANCH   3  22
ATOM     22  C   LIG d   1       7.184  78.701 115.758  0.00  0.00     0.382 C 
ATOM     23  O   LIG d   1       6.349  77.958 115.188  0.00  0.00    -0.241 OA
ATOM     24  O   LIG d   1       6.784  79.668 116.433  0.00  0.00    -0.241 OA
ENDBRANCH   3  22
TORSDOF 7
ENDMDL
MODEL 5
REMARK VINA RESULT:      -4.5     25.658     28.042
REMARK  7 active torsions:
REMARK  status: ('A' for Active; 'I' for Inactive)
REMARK    1  A    between atoms: C_2  and  C_3 
REMARK    2  A    between atoms: C_3  and  O_6 
REMARK    3  A    between atoms: C_3  and  C_4 
REMARK    4  A    between atoms: C_7  and  O_6 
REMARK    5  A    between atoms: C_9  and  C_10 
REMARK    6  A    between atoms: N_15  and  C_14 
REMARK    7  A    between atoms: N_20  and  C_19 
REMARK       I    between atoms: C_22  and  N_20 
ROOT
ATOM      1  C   LIG d   1     -25.436  85.548 114.446  0.00  0.00     0.161 C 
ATOM      2  C   LIG d   1     -24.355  86.432 114.288  0.00  0.00     0.016 C 
ATOM      3  C   LIG d   1     -23.115  86.052 113.724  0.00  0.00     0.038 C 
ATOM      4  C   LIG d   1     -22.923  84.792 113.137  0.00  0.00     0.028 C 
ATOM      5  C   LIG d   1     -23.818  83.707 113.725  0.00  0.00    -0.047 C 
ATOM      6  C   LIG d   1     -25.283  84.201 113.710  0.00  0.00     0.091 C 
ENDROOT
BRANCH   1   7
ATOM      7  O   LIG d   1     -26.660  86.199 114.051  0.00  0.00    -0.368 OA
BRANCH   7   8
ATOM      8  C   LIG d   1     -26.526  87.285 113.102  0.00  0.00     0.119 C 
BRANCH   8   9
ATOM      9  C   LIG d   1     -27.222  88.519 113.709  0.00  0.00     0.028 C 
ATOM     10  C   LIG d   1     -28.306  88.137 114.731  0.00  0.00     0.006 C 
ENDBRANCH   8   9
BRANCH   8  11
ATOM     11  C   LIG d   1     -27.286  86.989 111.805  0.00  0.00     0.028 C 
ATOM     12  C   LIG d   1     -28.119  85.699 111.884  0.00  0.00     0.006 C 
ENDBRANCH   8  11
ENDBRANCH   7   8
ENDBRANCH   1   7
BRANCH   6  13
ATOM     13  N   LIG d   1     -26.214  83.233 114.345  0.00  0.00    -0.311 N 
ATOM     14  C   LIG d   1     -26.869  82.292 113.667  0.00  0.00     0.210 C 
ATOM     15  C   LIG d   1     -27.795  81.412 114.512  0.00  0.00     0.109 C 
ATOM     16  O   LIG d   1     -26.746  82.082 112.451  0.00  0.00    -0.276 OA
ATOM     17  H   LIG d   1     -26.349  83.311 115.335  0.00  0.00     0.149 HD
ENDBRANCH   6  13
BRANCH   5  18
ATOM     18  N   LIG d   1     -23.613  82.481 112.930  0.00  0.00     0.381 N 
ATOM     19  H   LIG d   1     -23.767  81.676 113.503  0.00  0.00    -0.090 HD
ATOM     20  H   LIG d   1     -22.663  82.460 112.604  0.00  0.00    -0.090 HD
ATOM     21  H   LIG d   1     -24.238  82.469 112.154  0.00  0.00    -0.090 HD
ENDBRANCH   5  18
BRANCH   3  22
ATOM     22  C   LIG d   1     -22.039  86.924 113.780  0.00  0.00     0.382 C 
ATOM     23  O   LIG d   1     -22.065  87.903 114.564  0.00  0.00    -0.241 OA
ATOM     24  O   LIG d   1     -21.060  86.769 113.024  0.00  0.00    -0.241 OA
ENDBRANCH   3  22
TORSDOF 7
ENDMDL
MODEL 6
REMARK VINA RESULT:      -4.3      2.244      5.008
REMARK  7 active torsions:
REMARK  status: ('A' for Active; 'I' for Inactive)
REMARK    1  A    between atoms: C_2  and  C_3 
REMARK    2  A    between atoms: C_3  and  O_6 
REMARK    3  A    between atoms: C_3  and  C_4 
REMARK    4  A    between atoms: C_7  and  O_6 
REMARK    5  A    between atoms: C_9  and  C_10 
REMARK    6  A    between atoms: N_15  and  C_14 
REMARK    7  A    between atoms: N_20  and  C_19 
REMARK       I    between atoms: C_22  and  N_20 
ROOT
ATOM      1  C   LIG d   1       2.250  86.332 114.746  0.00  0.00     0.161 C 
ATOM      2  C   LIG d   1       1.731  85.160 114.171  0.00  0.00     0.016 C 
ATOM      3  C   LIG d   1       2.136  84.665 112.910  0.00  0.00     0.038 C 
ATOM      4  C   LIG d   1       3.205  85.233 112.200  0.00  0.00     0.028 C 
ATOM      5  C   LIG d   1       3.417  86.712 112.505  0.00  0.00    -0.047 C 
ATOM      6  C   LIG d   1       3.495  86.903 114.037  0.00  0.00     0.091 C 
ENDROOT
BRANCH   1   7
ATOM      7  O   LIG d   1       2.525  86.111 116.143  0.00  0.00    -0.368 OA
BRANCH   7   8
ATOM      8  C   LIG d   1       1.678  86.821 117.080  0.00  0.00     0.119 C 
BRANCH   8   9
ATOM      9  C   LIG d   1       0.682  85.802 117.666  0.00  0.00     0.028 C 
ATOM     10  C   LIG d   1       1.254  84.375 117.701  0.00  0.00     0.006 C 
ENDBRANCH   8   9
BRANCH   8  11
ATOM     11  C   LIG d   1       0.816  87.868 116.369  0.00  0.00     0.028 C 
ATOM     12  C   LIG d   1       0.853  89.239 117.061  0.00  0.00     0.006 C 
ENDBRANCH   8  11
ENDBRANCH   7   8
ENDBRANCH   1   7
BRANCH   6  13
ATOM     13  N   LIG d   1       3.618  88.333 114.424  0.00  0.00    -0.311 N 
ATOM     14  C   LIG d   1       4.599  88.802 115.192  0.00  0.00     0.210 C 
ATOM     15  C   LIG d   1       4.527  90.304 115.488  0.00  0.00     0.109 C 
ATOM     16  O   LIG d   1       5.540  88.124 115.631  0.00  0.00    -0.276 OA
ATOM     17  H   LIG d   1       2.914  88.959 114.086  0.00  0.00     0.149 HD
ENDBRANCH   6  13
BRANCH   5  18
ATOM     18  N   LIG d   1       4.643  87.140 111.805  0.00  0.00     0.381 N 
ATOM     19  H   LIG d   1       5.013  87.961 112.241  0.00  0.00    -0.090 HD
ATOM     20  H   LIG d   1       4.413  87.364 110.853  0.00  0.00    -0.090 HD
ATOM     21  H   LIG d   1       5.321  86.410 111.828  0.00  0.00    -0.090 HD
ENDBRANCH   5  18
BRANCH   3  22
ATOM     22  C   LIG d   1       1.443  83.615 112.328  0.00  0.00     0.382 C 
ATOM     23  O   LIG d   1       2.070  82.656 111.818  0.00  0.00    -0.241 OA
ATOM     24  O   LIG d   1       0.199  83.637 112.267  0.00  0.00    -0.241 OA
ENDBRANCH   3  22
TORSDOF 7
ENDMDL
MODEL 7
REMARK VINA RESULT:      -4.2     29.125     31.811
REMARK  7 active torsions:
REMARK  status: ('A' for Active; 'I' for Inactive)
REMARK    1  A    between atoms: C_2  and  C_3 
REMARK    2  A    between atoms: C_3  and  O_6 
REMARK    3  A    between atoms: C_3  and  C_4 
REMARK    4  A    between atoms: C_7  and  O_6 
REMARK    5  A    between atoms: C_9  and  C_10 
REMARK    6  A    between atoms: N_15  and  C_14 
REMARK    7  A    between atoms: N_20  and  C_19 
REMARK       I    between atoms: C_22  and  N_20 
ROOT
ATOM      1  C   LIG d   1     -18.810  63.986 116.729  0.00  0.00     0.161 C 
ATOM      2  C   LIG d   1     -17.858  65.012 116.603  0.00  0.00     0.016 C 
ATOM      3  C   LIG d   1     -16.755  64.945 115.721  0.00  0.00     0.038 C 
ATOM      4  C   LIG d   1     -16.612  63.906 114.789  0.00  0.00     0.028 C 
ATOM      5  C   LIG d   1     -17.272  62.603 115.229  0.00  0.00    -0.047 C 
ATOM      6  C   LIG d   1     -18.733  62.895 115.642  0.00  0.00     0.091 C 
ENDROOT
BRANCH   1   7
ATOM      7  O   LIG d   1     -20.134  64.553 116.778  0.00  0.00    -0.368 OA
BRANCH   7   8
ATOM      8  C   LIG d   1     -20.439  65.549 115.771  0.00  0.00     0.119 C 
BRANCH   8   9
ATOM      9  C   LIG d   1     -21.248  66.667 116.457  0.00  0.00     0.028 C 
ATOM     10  C   LIG d   1     -20.446  67.382 117.557  0.00  0.00     0.006 C 
ENDBRANCH   8   9
BRANCH   8  11
ATOM     11  C   LIG d   1     -21.364  64.984 114.689  0.00  0.00     0.028 C 
ATOM     12  C   LIG d   1     -20.691  64.912 113.309  0.00  0.00     0.006 C 
ENDBRANCH   8  11
ENDBRANCH   7   8
ENDBRANCH   1   7
BRANCH   6  13
ATOM     13  N   LIG d   1     -19.425  61.688 116.165  0.00  0.00    -0.311 N 
ATOM     14  C   LIG d   1     -20.451  61.106 115.547  0.00  0.00     0.210 C 
ATOM     15  C   LIG d   1     -21.032  59.885 116.268  0.00  0.00     0.109 C 
ATOM     16  O   LIG d   1     -20.915  61.465 114.454  0.00  0.00    -0.276 OA
ATOM     17  H   LIG d   1     -19.094  61.312 117.032  0.00  0.00     0.149 HD
ENDBRANCH   6  13
BRANCH   5  18
ATOM     18  N   LIG d   1     -17.167  61.650 114.108  0.00  0.00     0.381 N 
ATOM     19  H   LIG d   1     -17.834  60.914 114.226  0.00  0.00    -0.090 HD
ATOM     20  H   LIG d   1     -16.247  61.246 114.111  0.00  0.00    -0.090 HD
ATOM     21  H   LIG d   1     -17.328  62.120 113.245  0.00  0.00    -0.090 HD
ENDBRANCH   5  18
BRANCH   3  22
ATOM     22  C   LIG d   1     -15.758  65.906 115.793  0.00  0.00     0.382 C 
ATOM     23  O   LIG d   1     -15.414  66.532 114.762  0.00  0.00    -0.241 OA
ATOM     24  O   LIG d   1     -15.167  66.124 116.868  0.00  0.00    -0.241 OA
ENDBRANCH   3  22
TORSDOF 7
ENDMDL
MODEL 8
REMARK VINA RESULT:      -4.1     29.326     32.035
REMARK  7 active torsions:
REMARK  status: ('A' for Active; 'I' for Inactive)
REMARK    1  A    between atoms: C_2  and  C_3 
REMARK    2  A    between atoms: C_3  and  O_6 
REMARK    3  A    between atoms: C_3  and  C_4 
REMARK    4  A    between atoms: C_7  and  O_6 
REMARK    5  A    between atoms: C_9  and  C_10 
REMARK    6  A    between atoms: N_15  and  C_14 
REMARK    7  A    between atoms: N_20  and  C_19 
REMARK       I    between atoms: C_22  and  N_20 
ROOT
ATOM      1  C   LIG d   1     -17.595  62.596 115.637  0.00  0.00     0.161 C 
ATOM      2  C   LIG d   1     -16.814  63.569 114.991  0.00  0.00     0.016 C 
ATOM      3  C   LIG d   1     -17.167  64.153 113.753  0.00  0.00     0.038 C 
ATOM      4  C   LIG d   1     -18.408  63.912 113.146  0.00  0.00     0.028 C 
ATOM      5  C   LIG d   1     -19.006  62.556 113.506  0.00  0.00    -0.047 C 
ATOM      6  C   LIG d   1     -19.007  62.402 115.044  0.00  0.00     0.091 C 
ENDROOT
BRANCH   1   7
ATOM      7  O   LIG d   1     -17.679  62.892 117.045  0.00  0.00    -0.368 OA
BRANCH   7   8
ATOM      8  C   LIG d   1     -17.513  64.283 117.415  0.00  0.00     0.119 C 
BRANCH   8   9
ATOM      9  C   LIG d   1     -16.478  64.338 118.555  0.00  0.00     0.028 C 
ATOM     10  C   LIG d   1     -15.450  65.465 118.360  0.00  0.00     0.006 C 
ENDBRANCH   8   9
BRANCH   8  11
ATOM     11  C   LIG d   1     -18.801  64.859 118.008  0.00  0.00     0.028 C 
ATOM     12  C   LIG d   1     -19.520  65.822 117.050  0.00  0.00     0.006 C 
ENDBRANCH   8  11
ENDBRANCH   7   8
ENDBRANCH   1   7
BRANCH   6  13
ATOM     13  N   LIG d   1     -19.497  61.068 115.480  0.00  0.00    -0.311 N 
ATOM     14  C   LIG d   1     -20.772  60.815 115.770  0.00  0.00     0.210 C 
ATOM     15  C   LIG d   1     -21.061  59.379 116.218  0.00  0.00     0.109 C 
ATOM     16  O   LIG d   1     -21.697  61.635 115.669  0.00  0.00    -0.276 OA
ATOM     17  H   LIG d   1     -18.819  60.336 115.559  0.00  0.00     0.149 HD
ENDBRANCH   6  13
BRANCH   5  18
ATOM     18  N   LIG d   1     -20.357  62.494 112.918  0.00  0.00     0.381 N 
ATOM     19  H   LIG d   1     -20.357  61.870 112.136  0.00  0.00    -0.090 HD
ATOM     20  H   LIG d   1     -20.612  63.409 112.591  0.00  0.00    -0.090 HD
ATOM     21  H   LIG d   1     -21.012  62.182 113.601  0.00  0.00    -0.090 HD
ENDBRANCH   5  18
BRANCH   3  22
ATOM     22  C   LIG d   1     -16.255  64.959 113.089  0.00  0.00     0.382 C 
ATOM     23  O   LIG d   1     -15.799  65.984 113.651  0.00  0.00    -0.241 OA
ATOM     24  O   LIG d   1     -15.916  64.699 111.919  0.00  0.00    -0.241 OA
ENDBRANCH   3  22
TORSDOF 7
ENDMDL
MODEL 9
REMARK VINA RESULT:      -4.0     10.887     13.258
REMARK  7 active torsions:
REMARK  status: ('A' for Active; 'I' for Inactive)
REMARK    1  A    between atoms: C_2  and  C_3 
REMARK    2  A    between atoms: C_3  and  O_6 
REMARK    3  A    between atoms: C_3  and  C_4 
REMARK    4  A    between atoms: C_7  and  O_6 
REMARK    5  A    between atoms: C_9  and  C_10 
REMARK    6  A    between atoms: N_15  and  C_14 
REMARK    7  A    between atoms: N_20  and  C_19 
REMARK       I    between atoms: C_22  and  N_20 
ROOT
ATOM      1  C   LIG d   1      10.890  78.721 116.002  0.00  0.00     0.161 C 
ATOM      2  C   LIG d   1      10.497  79.958 115.464  0.00  0.00     0.016 C 
ATOM      3  C   LIG d   1      10.932  80.433 114.205  0.00  0.00     0.038 C 
ATOM      4  C   LIG d   1      11.676  79.631 113.327  0.00  0.00     0.028 C 
ATOM      5  C   LIG d   1      12.516  78.574 114.037  0.00  0.00    -0.047 C 
ATOM      6  C   LIG d   1      11.612  77.785 115.011  0.00  0.00     0.091 C 
ENDROOT
BRANCH   1   7
ATOM      7  O   LIG d   1       9.750  78.056 116.581  0.00  0.00    -0.368 OA
BRANCH   7   8
ATOM      8  C   LIG d   1       8.478  78.735 116.444  0.00  0.00     0.119 C 
BRANCH   8   9
ATOM      9  C   LIG d   1       7.826  78.781 117.840  0.00  0.00     0.028 C 
ATOM     10  C   LIG d   1       7.865  77.418 118.551  0.00  0.00     0.006 C 
ENDBRANCH   8   9
BRANCH   8  11
ATOM     11  C   LIG d   1       7.509  77.934 115.570  0.00  0.00     0.028 C 
ATOM     12  C   LIG d   1       6.121  78.585 115.468  0.00  0.00     0.006 C 
ENDBRANCH   8  11
ENDBRANCH   7   8
ENDBRANCH   1   7
BRANCH   6  13
ATOM     13  N   LIG d   1      12.372  76.787 115.807  0.00  0.00    -0.311 N 
ATOM     14  C   LIG d   1      12.042  75.498 115.874  0.00  0.00     0.210 C 
ATOM     15  C   LIG d   1      12.948  74.645 116.768  0.00  0.00     0.109 C 
ATOM     16  O   LIG d   1      11.105  74.974 115.253  0.00  0.00    -0.276 OA
ATOM     17  H   LIG d   1      13.166  77.120 116.318  0.00  0.00     0.149 HD
ENDBRANCH   6  13
BRANCH   5  18
ATOM     18  N   LIG d   1      13.130  77.723 113.000  0.00  0.00     0.381 N 
ATOM     19  H   LIG d   1      13.168  78.220 112.132  0.00  0.00    -0.090 HD
ATOM     20  H   LIG d   1      12.560  76.906 112.870  0.00  0.00    -0.090 HD
ATOM     21  H   LIG d   1      14.049  77.456 113.278  0.00  0.00    -0.090 HD
ENDBRANCH   5  18
BRANCH   3  22
ATOM     22  C   LIG d   1      10.657  81.739 113.831  0.00  0.00     0.382 C 
ATOM     23  O   LIG d   1       9.736  82.374 114.400  0.00  0.00    -0.241 OA
ATOM     24  O   LIG d   1      11.288  82.276 112.901  0.00  0.00    -0.241 OA
ENDBRANCH   3  22
TORSDOF 7
ENDMDL
