MODEL 1
REMARK VINA RESULT:      -5.4      0.000      0.000
REMARK  7 active torsions:
REMARK  status: ('A' for Active; 'I' for Inactive)
REMARK    1  A    between atoms: C_2  and  C_3 
REMARK    2  A    between atoms: C_3  and  O_6 
REMARK    3  A    between atoms: C_3  and  C_4 
REMARK    4  A    between atoms: C_7  and  O_6 
REMARK    5  A    between atoms: C_9  and  C_10 
REMARK    6  A    between atoms: N_15  and  C_14 
REMARK    7  A    between atoms: N_20  and  C_19 
REMARK       I    between atoms: C_22  and  N_20 
ROOT
ATOM      1  C   LIG d   1      -6.312  74.773 117.878  0.00  0.00     0.161 C 
ATOM      2  C   LIG d   1      -6.397  73.400 117.593  0.00  0.00     0.016 C 
ATOM      3  C   LIG d   1      -7.528  72.799 116.994  0.00  0.00     0.038 C 
ATOM      4  C   LIG d   1      -8.598  73.560 116.499  0.00  0.00     0.028 C 
ATOM      5  C   LIG d   1      -8.777  74.892 117.218  0.00  0.00    -0.047 C 
ATOM      6  C   LIG d   1      -7.423  75.636 117.244  0.00  0.00     0.091 C 
ENDROOT
BRANCH   1   7
ATOM      7  O   LIG d   1      -5.013  75.270 117.500  0.00  0.00    -0.368 OA
BRANCH   7   8
ATOM      8  C   LIG d   1      -4.269  74.459 116.558  0.00  0.00     0.119 C 
BRANCH   8   9
ATOM      9  C   LIG d   1      -2.825  74.348 117.082  0.00  0.00     0.028 C 
ATOM     10  C   LIG d   1      -1.785  74.379 115.948  0.00  0.00     0.006 C 
ENDBRANCH   8   9
BRANCH   8  11
ATOM     11  C   LIG d   1      -4.155  75.150 115.196  0.00  0.00     0.028 C 
ATOM     12  C   LIG d   1      -5.317  74.803 114.252  0.00  0.00     0.006 C 
ENDBRANCH   8  11
ENDBRANCH   7   8
ENDBRANCH   1   7
BRANCH   6  13
ATOM     13  N   LIG d   1      -7.490  76.911 118.004  0.00  0.00    -0.311 N 
ATOM     14  C   LIG d   1      -6.878  78.029 117.616  0.00  0.00     0.210 C 
ATOM     15  C   LIG d   1      -7.061  79.225 118.555  0.00  0.00     0.109 C 
ATOM     16  O   LIG d   1      -6.227  78.152 116.567  0.00  0.00    -0.276 OA
ATOM     17  H   LIG d   1      -8.023  76.910 118.851  0.00  0.00     0.149 HD
ENDBRANCH   6  13
BRANCH   5  18
ATOM     18  N   LIG d   1      -9.835  75.641 116.513  0.00  0.00     0.381 N 
ATOM     19  H   LIG d   1      -9.494  76.545 116.253  0.00  0.00    -0.090 HD
ATOM     20  H   LIG d   1     -10.615  75.765 117.134  0.00  0.00    -0.090 HD
ATOM     21  H   LIG d   1     -10.123  75.140 115.701  0.00  0.00    -0.090 HD
ENDBRANCH   5  18
BRANCH   3  22
ATOM     22  C   LIG d   1      -7.615  71.417 116.922  0.00  0.00     0.382 C 
ATOM     23  O   LIG d   1      -6.785  70.772 116.237  0.00  0.00    -0.241 OA
ATOM     24  O   LIG d   1      -8.538  70.811 117.498  0.00  0.00    -0.241 OA
ENDBRANCH   3  22
TORSDOF 7
ENDMDL
MODEL 2
REMARK VINA RESULT:      -5.3      4.281      7.724
REMARK  7 active torsions:
REMARK  status: ('A' for Active; 'I' for Inactive)
REMARK    1  A    between atoms: C_2  and  C_3 
REMARK    2  A    between atoms: C_3  and  O_6 
REMARK    3  A    between atoms: C_3  and  C_4 
REMARK    4  A    between atoms: C_7  and  O_6 
REMARK    5  A    between atoms: C_9  and  C_10 
REMARK    6  A    between atoms: N_15  and  C_14 
REMARK    7  A    between atoms: N_20  and  C_19 
REMARK       I    between atoms: C_22  and  N_20 
ROOT
ATOM      1  C   LIG d   1      -2.672  77.313 115.325  0.00  0.00     0.161 C 
ATOM      2  C   LIG d   1      -2.929  78.460 114.556  0.00  0.00     0.016 C 
ATOM      3  C   LIG d   1      -2.180  78.814 113.411  0.00  0.00     0.038 C 
ATOM      4  C   LIG d   1      -1.211  77.958 112.865  0.00  0.00     0.028 C 
ATOM      5  C   LIG d   1      -0.573  77.031 113.894  0.00  0.00    -0.047 C 
ATOM      6  C   LIG d   1      -1.691  76.310 114.681  0.00  0.00     0.091 C 
ENDROOT
BRANCH   1   7
ATOM      7  O   LIG d   1      -3.912  76.658 115.656  0.00  0.00    -0.368 OA
BRANCH   7   8
ATOM      8  C   LIG d   1      -4.264  75.510 114.845  0.00  0.00     0.119 C 
BRANCH   8   9
ATOM      9  C   LIG d   1      -5.491  75.898 113.999  0.00  0.00     0.028 C 
ATOM     10  C   LIG d   1      -6.783  75.956 114.832  0.00  0.00     0.006 C 
ENDBRANCH   8   9
BRANCH   8  11
ATOM     11  C   LIG d   1      -4.725  74.335 115.713  0.00  0.00     0.028 C 
ATOM     12  C   LIG d   1      -4.314  74.485 117.186  0.00  0.00     0.006 C 
ENDBRANCH   8  11
ENDBRANCH   7   8
ENDBRANCH   1   7
BRANCH   6  13
ATOM     13  N   LIG d   1      -1.155  75.446 115.765  0.00  0.00    -0.311 N 
ATOM     14  C   LIG d   1      -0.873  74.155 115.602  0.00  0.00     0.210 C 
ATOM     15  C   LIG d   1      -0.349  73.445 116.854  0.00  0.00     0.109 C 
ATOM     16  O   LIG d   1      -0.976  73.538 114.531  0.00  0.00    -0.276 OA
ATOM     17  H   LIG d   1      -1.011  75.873 116.660  0.00  0.00     0.149 HD
ENDBRANCH   6  13
BRANCH   5  18
ATOM     18  N   LIG d   1       0.314  76.103 113.169  0.00  0.00     0.381 N 
ATOM     19  H   LIG d   1       0.984  76.621 112.636  0.00  0.00    -0.090 HD
ATOM     20  H   LIG d   1      -0.239  75.555 112.532  0.00  0.00    -0.090 HD
ATOM     21  H   LIG d   1       0.782  75.504 113.813  0.00  0.00    -0.090 HD
ENDBRANCH   5  18
BRANCH   3  22
ATOM     22  C   LIG d   1      -2.369  80.054 112.821  0.00  0.00     0.382 C 
ATOM     23  O   LIG d   1      -3.341  80.770 113.165  0.00  0.00    -0.241 OA
ATOM     24  O   LIG d   1      -1.607  80.448 111.919  0.00  0.00    -0.241 OA
ENDBRANCH   3  22
TORSDOF 7
ENDMDL
MODEL 3
REMARK VINA RESULT:      -5.3      2.987      3.945
REMARK  7 active torsions:
REMARK  status: ('A' for Active; 'I' for Inactive)
REMARK    1  A    between atoms: C_2  and  C_3 
REMARK    2  A    between atoms: C_3  and  O_6 
REMARK    3  A    between atoms: C_3  and  C_4 
REMARK    4  A    between atoms: C_7  and  O_6 
REMARK    5  A    between atoms: C_9  and  C_10 
REMARK    6  A    between atoms: N_15  and  C_14 
REMARK    7  A    between atoms: N_20  and  C_19 
REMARK       I    between atoms: C_22  and  N_20 
ROOT
ATOM      1  C   LIG d   1      -3.580  75.437 116.739  0.00  0.00     0.161 C 
ATOM      2  C   LIG d   1      -4.317  74.337 117.210  0.00  0.00     0.016 C 
ATOM      3  C   LIG d   1      -5.401  73.768 116.504  0.00  0.00     0.038 C 
ATOM      4  C   LIG d   1      -5.728  74.167 115.199  0.00  0.00     0.028 C 
ATOM      5  C   LIG d   1      -5.336  75.608 114.890  0.00  0.00    -0.047 C 
ATOM      6  C   LIG d   1      -3.851  75.815 115.268  0.00  0.00     0.091 C 
ENDROOT
BRANCH   1   7
ATOM      7  O   LIG d   1      -2.172  75.206 116.946  0.00  0.00    -0.368 OA
BRANCH   7   8
ATOM      8  C   LIG d   1      -1.618  74.031 116.305  0.00  0.00     0.119 C 
BRANCH   8   9
ATOM      9  C   LIG d   1      -0.824  73.253 117.371  0.00  0.00     0.028 C 
ATOM     10  C   LIG d   1      -0.232  74.175 118.451  0.00  0.00     0.006 C 
ENDBRANCH   8   9
BRANCH   8  11
ATOM     11  C   LIG d   1      -0.592  74.413 115.233  0.00  0.00     0.028 C 
ATOM     12  C   LIG d   1       0.120  73.193 114.629  0.00  0.00     0.006 C 
ENDBRANCH   8  11
ENDBRANCH   7   8
ENDBRANCH   1   7
BRANCH   6  13
ATOM     13  N   LIG d   1      -3.408  77.221 115.076  0.00  0.00    -0.311 N 
ATOM     14  C   LIG d   1      -2.831  77.661 113.959  0.00  0.00     0.210 C 
ATOM     15  C   LIG d   1      -2.434  79.141 113.977  0.00  0.00     0.109 C 
ATOM     16  O   LIG d   1      -2.640  76.975 112.944  0.00  0.00    -0.276 OA
ATOM     17  H   LIG d   1      -3.554  77.853 115.838  0.00  0.00     0.149 HD
ENDBRANCH   6  13
BRANCH   5  18
ATOM     18  N   LIG d   1      -5.607  75.847 113.460  0.00  0.00     0.381 N 
ATOM     19  H   LIG d   1      -6.493  76.300 113.355  0.00  0.00    -0.090 HD
ATOM     20  H   LIG d   1      -5.647  74.962 112.985  0.00  0.00    -0.090 HD
ATOM     21  H   LIG d   1      -4.888  76.412 113.066  0.00  0.00    -0.090 HD
ENDBRANCH   5  18
BRANCH   3  22
ATOM     22  C   LIG d   1      -6.197  72.814 117.120  0.00  0.00     0.382 C 
ATOM     23  O   LIG d   1      -6.439  72.897 118.348  0.00  0.00    -0.241 OA
ATOM     24  O   LIG d   1      -6.640  71.846 116.472  0.00  0.00    -0.241 OA
ENDBRANCH   3  22
TORSDOF 7
ENDMDL
MODEL 4
REMARK VINA RESULT:      -5.1      4.079      7.383
REMARK  7 active torsions:
REMARK  status: ('A' for Active; 'I' for Inactive)
REMARK    1  A    between atoms: C_2  and  C_3 
REMARK    2  A    between atoms: C_3  and  O_6 
REMARK    3  A    between atoms: C_3  and  C_4 
REMARK    4  A    between atoms: C_7  and  O_6 
REMARK    5  A    between atoms: C_9  and  C_10 
REMARK    6  A    between atoms: N_15  and  C_14 
REMARK    7  A    between atoms: N_20  and  C_19 
REMARK       I    between atoms: C_22  and  N_20 
ROOT
ATOM      1  C   LIG d   1      -2.796  76.019 115.165  0.00  0.00     0.161 C 
ATOM      2  C   LIG d   1      -2.979  77.009 114.185  0.00  0.00     0.016 C 
ATOM      3  C   LIG d   1      -1.920  77.559 113.427  0.00  0.00     0.038 C 
ATOM      4  C   LIG d   1      -0.617  77.043 113.492  0.00  0.00     0.028 C 
ATOM      5  C   LIG d   1      -0.290  76.388 114.829  0.00  0.00    -0.047 C 
ATOM      6  C   LIG d   1      -1.398  75.366 115.171  0.00  0.00     0.091 C 
ENDROOT
BRANCH   1   7
ATOM      7  O   LIG d   1      -3.820  75.012 115.038  0.00  0.00    -0.368 OA
BRANCH   7   8
ATOM      8  C   LIG d   1      -4.937  75.120 115.954  0.00  0.00     0.119 C 
BRANCH   8   9
ATOM      9  C   LIG d   1      -4.768  74.023 117.023  0.00  0.00     0.028 C 
ATOM     10  C   LIG d   1      -5.957  73.047 117.055  0.00  0.00     0.006 C 
ENDBRANCH   8   9
BRANCH   8  11
ATOM     11  C   LIG d   1      -6.263  74.804 115.254  0.00  0.00     0.028 C 
ATOM     12  C   LIG d   1      -7.215  76.010 115.210  0.00  0.00     0.006 C 
ENDBRANCH   8  11
ENDBRANCH   7   8
ENDBRANCH   1   7
BRANCH   6  13
ATOM     13  N   LIG d   1      -1.200  74.740 116.504  0.00  0.00    -0.311 N 
ATOM     14  C   LIG d   1      -0.635  73.546 116.677  0.00  0.00     0.210 C 
ATOM     15  C   LIG d   1      -0.546  73.078 118.133  0.00  0.00     0.109 C 
ATOM     16  O   LIG d   1      -0.170  72.845 115.766  0.00  0.00    -0.276 OA
ATOM     17  H   LIG d   1      -1.521  75.254 117.302  0.00  0.00     0.149 HD
ENDBRANCH   6  13
BRANCH   5  18
ATOM     18  N   LIG d   1       1.046  75.774 114.710  0.00  0.00     0.381 N 
ATOM     19  H   LIG d   1       1.668  76.405 114.246  0.00  0.00    -0.090 HD
ATOM     20  H   LIG d   1       0.972  74.939 114.157  0.00  0.00    -0.090 HD
ATOM     21  H   LIG d   1       1.400  75.552 115.615  0.00  0.00    -0.090 HD
ENDBRANCH   5  18
BRANCH   3  22
ATOM     22  C   LIG d   1      -2.152  78.663 112.621  0.00  0.00     0.382 C 
ATOM     23  O   LIG d   1      -1.227  79.128 111.913  0.00  0.00    -0.241 OA
ATOM     24  O   LIG d   1      -3.263  79.227 112.628  0.00  0.00    -0.241 OA
ENDBRANCH   3  22
TORSDOF 7
ENDMDL
MODEL 5
REMARK VINA RESULT:      -4.8      1.759      5.254
REMARK  7 active torsions:
REMARK  status: ('A' for Active; 'I' for Inactive)
REMARK    1  A    between atoms: C_2  and  C_3 
REMARK    2  A    between atoms: C_3  and  O_6 
REMARK    3  A    between atoms: C_3  and  C_4 
REMARK    4  A    between atoms: C_7  and  O_6 
REMARK    5  A    between atoms: C_9  and  C_10 
REMARK    6  A    between atoms: N_15  and  C_14 
REMARK    7  A    between atoms: N_20  and  C_19 
REMARK       I    between atoms: C_22  and  N_20 
ROOT
ATOM      1  C   LIG d   1      -6.529  76.892 117.014  0.00  0.00     0.161 C 
ATOM      2  C   LIG d   1      -6.496  78.272 117.275  0.00  0.00     0.016 C 
ATOM      3  C   LIG d   1      -7.606  78.999 117.764  0.00  0.00     0.038 C 
ATOM      4  C   LIG d   1      -8.788  78.362 118.170  0.00  0.00     0.028 C 
ATOM      5  C   LIG d   1      -9.042  77.041 117.451  0.00  0.00    -0.047 C 
ATOM      6  C   LIG d   1      -7.775  76.161 117.555  0.00  0.00     0.091 C 
ENDROOT
BRANCH   1   7
ATOM      7  O   LIG d   1      -5.328  76.271 117.513  0.00  0.00    -0.368 OA
BRANCH   7   8
ATOM      8  C   LIG d   1      -4.359  75.864 116.515  0.00  0.00     0.119 C 
BRANCH   8   9
ATOM      9  C   LIG d   1      -5.067  75.888 115.146  0.00  0.00     0.028 C 
ATOM     10  C   LIG d   1      -5.114  74.500 114.485  0.00  0.00     0.006 C 
ENDBRANCH   8   9
BRANCH   8  11
ATOM     11  C   LIG d   1      -3.925  74.410 116.722  0.00  0.00     0.028 C 
ATOM     12  C   LIG d   1      -2.446  74.281 117.119  0.00  0.00     0.006 C 
ENDBRANCH   8  11
ENDBRANCH   7   8
ENDBRANCH   1   7
BRANCH   6  13
ATOM     13  N   LIG d   1      -7.909  74.885 116.807  0.00  0.00    -0.311 N 
ATOM     14  C   LIG d   1      -7.548  73.703 117.303  0.00  0.00     0.210 C 
ATOM     15  C   LIG d   1      -7.751  72.515 116.357  0.00  0.00     0.109 C 
ATOM     16  O   LIG d   1      -7.109  73.521 118.448  0.00  0.00    -0.276 OA
ATOM     17  H   LIG d   1      -8.285  74.936 115.880  0.00  0.00     0.149 HD
ENDBRANCH   6  13
BRANCH   5  18
ATOM     18  N   LIG d   1     -10.230  76.420 118.067  0.00  0.00     0.381 N 
ATOM     19  H   LIG d   1      -9.981  76.012 118.946  0.00  0.00    -0.090 HD
ATOM     20  H   LIG d   1     -10.565  75.689 117.463  0.00  0.00    -0.090 HD
ATOM     21  H   LIG d   1     -10.942  77.104 118.200  0.00  0.00    -0.090 HD
ENDBRANCH   5  18
BRANCH   3  22
ATOM     22  C   LIG d   1      -7.554  80.383 117.813  0.00  0.00     0.382 C 
ATOM     23  O   LIG d   1      -8.344  81.015 118.555  0.00  0.00    -0.241 OA
ATOM     24  O   LIG d   1      -6.756  81.011 117.091  0.00  0.00    -0.241 OA
ENDBRANCH   3  22
TORSDOF 7
ENDMDL
MODEL 6
REMARK VINA RESULT:      -4.7     20.390     22.996
REMARK  7 active torsions:
REMARK  status: ('A' for Active; 'I' for Inactive)
REMARK    1  A    between atoms: C_2  and  C_3 
REMARK    2  A    between atoms: C_3  and  O_6 
REMARK    3  A    between atoms: C_3  and  C_4 
REMARK    4  A    between atoms: C_7  and  O_6 
REMARK    5  A    between atoms: C_9  and  C_10 
REMARK    6  A    between atoms: N_15  and  C_14 
REMARK    7  A    between atoms: N_20  and  C_19 
REMARK       I    between atoms: C_22  and  N_20 
ROOT
ATOM      1  C   LIG d   1     -25.928  85.449 113.590  0.00  0.00     0.161 C 
ATOM      2  C   LIG d   1     -24.858  86.358 113.530  0.00  0.00     0.016 C 
ATOM      3  C   LIG d   1     -23.504  85.975 113.665  0.00  0.00     0.038 C 
ATOM      4  C   LIG d   1     -23.115  84.628 113.718  0.00  0.00     0.028 C 
ATOM      5  C   LIG d   1     -24.191  83.710 114.288  0.00  0.00    -0.047 C 
ATOM      6  C   LIG d   1     -25.517  83.962 113.535  0.00  0.00     0.091 C 
ENDROOT
BRANCH   1   7
ATOM      7  O   LIG d   1     -26.878  85.744 112.547  0.00  0.00    -0.368 OA
BRANCH   7   8
ATOM      8  C   LIG d   1     -27.914  86.701 112.882  0.00  0.00     0.119 C 
BRANCH   8   9
ATOM      9  C   LIG d   1     -29.259  85.950 112.867  0.00  0.00     0.028 C 
ATOM     10  C   LIG d   1     -29.300  84.839 111.805  0.00  0.00     0.006 C 
ENDBRANCH   8   9
BRANCH   8  11
ATOM     11  C   LIG d   1     -28.042  87.783 111.805  0.00  0.00     0.028 C 
ATOM     12  C   LIG d   1     -27.083  88.963 112.029  0.00  0.00     0.006 C 
ENDBRANCH   8  11
ENDBRANCH   7   8
ENDBRANCH   1   7
BRANCH   6  13
ATOM     13  N   LIG d   1     -26.643  83.164 114.087  0.00  0.00    -0.311 N 
ATOM     14  C   LIG d   1     -27.332  82.277 113.372  0.00  0.00     0.210 C 
ATOM     15  C   LIG d   1     -28.466  81.578 114.129  0.00  0.00     0.109 C 
ATOM     16  O   LIG d   1     -27.091  81.978 112.193  0.00  0.00    -0.276 OA
ATOM     17  H   LIG d   1     -26.886  83.321 115.046  0.00  0.00     0.149 HD
ENDBRANCH   6  13
BRANCH   5  18
ATOM     18  N   LIG d   1     -23.707  82.322 114.157  0.00  0.00     0.381 N 
ATOM     19  H   LIG d   1     -24.420  81.686 114.454  0.00  0.00    -0.090 HD
ATOM     20  H   LIG d   1     -22.907  82.199 114.753  0.00  0.00    -0.090 HD
ATOM     21  H   LIG d   1     -23.458  82.136 113.211  0.00  0.00    -0.090 HD
ENDBRANCH   5  18
BRANCH   3  22
ATOM     22  C   LIG d   1     -22.524  86.948 113.788  0.00  0.00     0.382 C 
ATOM     23  O   LIG d   1     -21.448  86.840 113.151  0.00  0.00    -0.241 OA
ATOM     24  O   LIG d   1     -22.683  87.911 114.563  0.00  0.00    -0.241 OA
ENDBRANCH   3  22
TORSDOF 7
ENDMDL
MODEL 7
REMARK VINA RESULT:      -4.7      1.971      2.684
REMARK  7 active torsions:
REMARK  status: ('A' for Active; 'I' for Inactive)
REMARK    1  A    between atoms: C_2  and  C_3 
REMARK    2  A    between atoms: C_3  and  O_6 
REMARK    3  A    between atoms: C_3  and  C_4 
REMARK    4  A    between atoms: C_7  and  O_6 
REMARK    5  A    between atoms: C_9  and  C_10 
REMARK    6  A    between atoms: N_15  and  C_14 
REMARK    7  A    between atoms: N_20  and  C_19 
REMARK       I    between atoms: C_22  and  N_20 
ROOT
ATOM      1  C   LIG d   1      -4.449  74.798 116.773  0.00  0.00     0.161 C 
ATOM      2  C   LIG d   1      -5.256  73.685 116.485  0.00  0.00     0.016 C 
ATOM      3  C   LIG d   1      -6.667  73.745 116.414  0.00  0.00     0.038 C 
ATOM      4  C   LIG d   1      -7.361  74.962 116.477  0.00  0.00     0.028 C 
ATOM      5  C   LIG d   1      -6.627  76.038 117.269  0.00  0.00    -0.047 C 
ATOM      6  C   LIG d   1      -5.181  76.156 116.735  0.00  0.00     0.091 C 
ENDROOT
BRANCH   1   7
ATOM      7  O   LIG d   1      -3.311  74.818 115.889  0.00  0.00    -0.368 OA
BRANCH   7   8
ATOM      8  C   LIG d   1      -2.114  74.162 116.375  0.00  0.00     0.119 C 
BRANCH   8   9
ATOM      9  C   LIG d   1      -1.817  74.723 117.780  0.00  0.00     0.028 C 
ATOM     10  C   LIG d   1      -0.873  75.936 117.740  0.00  0.00     0.006 C 
ENDBRANCH   8   9
BRANCH   8  11
ATOM     11  C   LIG d   1      -0.893  74.528 115.526  0.00  0.00     0.028 C 
ATOM     12  C   LIG d   1      -0.014  73.313 115.192  0.00  0.00     0.006 C 
ENDBRANCH   8  11
ENDBRANCH   7   8
ENDBRANCH   1   7
BRANCH   6  13
ATOM     13  N   LIG d   1      -4.368  77.128 117.511  0.00  0.00    -0.311 N 
ATOM     14  C   LIG d   1      -3.791  78.199 116.968  0.00  0.00     0.210 C 
ATOM     15  C   LIG d   1      -2.980  79.060 117.942  0.00  0.00     0.109 C 
ATOM     16  O   LIG d   1      -3.900  78.535 115.779  0.00  0.00    -0.276 OA
ATOM     17  H   LIG d   1      -4.253  76.949 118.489  0.00  0.00     0.149 HD
ENDBRANCH   6  13
BRANCH   5  18
ATOM     18  N   LIG d   1      -7.396  77.290 117.138  0.00  0.00     0.381 N 
ATOM     19  H   LIG d   1      -6.867  78.053 117.512  0.00  0.00    -0.090 HD
ATOM     20  H   LIG d   1      -8.246  77.207 117.666  0.00  0.00    -0.090 HD
ATOM     21  H   LIG d   1      -7.607  77.462 116.179  0.00  0.00    -0.090 HD
ENDBRANCH   5  18
BRANCH   3  22
ATOM     22  C   LIG d   1      -7.400  72.572 116.317  0.00  0.00     0.382 C 
ATOM     23  O   LIG d   1      -6.823  71.493 116.041  0.00  0.00    -0.241 OA
ATOM     24  O   LIG d   1      -8.637  72.587 116.459  0.00  0.00    -0.241 OA
ENDBRANCH   3  22
TORSDOF 7
ENDMDL
MODEL 8
REMARK VINA RESULT:      -4.7     12.935     15.899
REMARK  7 active torsions:
REMARK  status: ('A' for Active; 'I' for Inactive)
REMARK    1  A    between atoms: C_2  and  C_3 
REMARK    2  A    between atoms: C_3  and  O_6 
REMARK    3  A    between atoms: C_3  and  C_4 
REMARK    4  A    between atoms: C_7  and  O_6 
REMARK    5  A    between atoms: C_9  and  C_10 
REMARK    6  A    between atoms: N_15  and  C_14 
REMARK    7  A    between atoms: N_20  and  C_19 
REMARK       I    between atoms: C_22  and  N_20 
ROOT
ATOM      1  C   LIG d   1       3.691  85.447 113.538  0.00  0.00     0.161 C 
ATOM      2  C   LIG d   1       4.108  86.696 113.048  0.00  0.00     0.016 C 
ATOM      3  C   LIG d   1       4.531  87.757 113.881  0.00  0.00     0.038 C 
ATOM      4  C   LIG d   1       4.711  87.588 115.262  0.00  0.00     0.028 C 
ATOM      5  C   LIG d   1       3.823  86.503 115.861  0.00  0.00    -0.047 C 
ATOM      6  C   LIG d   1       3.987  85.207 115.034  0.00  0.00     0.091 C 
ENDROOT
BRANCH   1   7
ATOM      7  O   LIG d   1       4.264  84.393 112.739  0.00  0.00    -0.368 OA
BRANCH   7   8
ATOM      8  C   LIG d   1       3.340  83.648 111.908  0.00  0.00     0.119 C 
BRANCH   8   9
ATOM      9  C   LIG d   1       1.914  84.080 112.301  0.00  0.00     0.028 C 
ATOM     10  C   LIG d   1       1.046  82.895 112.756  0.00  0.00     0.006 C 
ENDBRANCH   8   9
BRANCH   8  11
ATOM     11  C   LIG d   1       3.406  82.148 112.208  0.00  0.00     0.028 C 
ATOM     12  C   LIG d   1       4.784  81.703 112.722  0.00  0.00     0.006 C 
ENDBRANCH   8  11
ENDBRANCH   7   8
ENDBRANCH   1   7
BRANCH   6  13
ATOM     13  N   LIG d   1       3.089  84.119 115.501  0.00  0.00    -0.311 N 
ATOM     14  C   LIG d   1       3.532  82.960 115.983  0.00  0.00     0.210 C 
ATOM     15  C   LIG d   1       2.437  81.968 116.390  0.00  0.00     0.109 C 
ATOM     16  O   LIG d   1       4.727  82.671 116.143  0.00  0.00    -0.276 OA
ATOM     17  H   LIG d   1       2.103  84.282 115.436  0.00  0.00     0.149 HD
ENDBRANCH   6  13
BRANCH   5  18
ATOM     18  N   LIG d   1       4.211  86.339 117.275  0.00  0.00     0.381 N 
ATOM     19  H   LIG d   1       3.455  85.934 117.789  0.00  0.00    -0.090 HD
ATOM     20  H   LIG d   1       4.409  87.243 117.665  0.00  0.00    -0.090 HD
ATOM     21  H   LIG d   1       5.017  85.757 117.342  0.00  0.00    -0.090 HD
ENDBRANCH   5  18
BRANCH   3  22
ATOM     22  C   LIG d   1       4.741  89.015 113.339  0.00  0.00     0.382 C 
ATOM     23  O   LIG d   1       5.883  89.342 112.936  0.00  0.00    -0.241 OA
ATOM     24  O   LIG d   1       3.812  89.844 113.287  0.00  0.00    -0.241 OA
ENDBRANCH   3  22
TORSDOF 7
ENDMDL
MODEL 9
REMARK VINA RESULT:      -4.6     18.966     21.245
REMARK  7 active torsions:
REMARK  status: ('A' for Active; 'I' for Inactive)
REMARK    1  A    between atoms: C_2  and  C_3 
REMARK    2  A    between atoms: C_3  and  O_6 
REMARK    3  A    between atoms: C_3  and  C_4 
REMARK    4  A    between atoms: C_7  and  O_6 
REMARK    5  A    between atoms: C_9  and  C_10 
REMARK    6  A    between atoms: N_15  and  C_14 
REMARK    7  A    between atoms: N_20  and  C_19 
REMARK       I    between atoms: C_22  and  N_20 
ROOT
ATOM      1  C   LIG d   1     -24.046  83.552 113.527  0.00  0.00     0.161 C 
ATOM      2  C   LIG d   1     -23.108  84.580 113.726  0.00  0.00     0.016 C 
ATOM      3  C   LIG d   1     -23.461  85.945 113.833  0.00  0.00     0.038 C 
ATOM      4  C   LIG d   1     -24.799  86.362 113.899  0.00  0.00     0.028 C 
ATOM      5  C   LIG d   1     -25.765  85.414 113.197  0.00  0.00    -0.047 C 
ATOM      6  C   LIG d   1     -25.518  83.976 113.709  0.00  0.00     0.091 C 
ENDROOT
BRANCH   1   7
ATOM      7  O   LIG d   1     -23.736  82.436 114.385  0.00  0.00    -0.368 OA
BRANCH   7   8
ATOM      8  C   LIG d   1     -24.129  82.571 115.773  0.00  0.00     0.119 C 
BRANCH   8   9
ATOM      9  C   LIG d   1     -22.847  82.512 116.626  0.00  0.00     0.028 C 
ATOM     10  C   LIG d   1     -22.623  83.798 117.439  0.00  0.00     0.006 C 
ENDBRANCH   8   9
BRANCH   8  11
ATOM     11  C   LIG d   1     -24.975  81.379 116.231  0.00  0.00     0.028 C 
ATOM     12  C   LIG d   1     -25.047  80.261 115.179  0.00  0.00     0.006 C 
ENDBRANCH   8  11
ENDBRANCH   7   8
ENDBRANCH   1   7
BRANCH   6  13
ATOM     13  N   LIG d   1     -26.364  82.973 113.011  0.00  0.00    -0.311 N 
ATOM     14  C   LIG d   1     -27.512  82.512 113.505  0.00  0.00     0.210 C 
ATOM     15  C   LIG d   1     -28.217  81.467 112.634  0.00  0.00     0.109 C 
ATOM     16  O   LIG d   1     -28.029  82.892 114.567  0.00  0.00    -0.276 OA
ATOM     17  H   LIG d   1     -26.035  82.634 112.129  0.00  0.00     0.149 HD
ENDBRANCH   6  13
BRANCH   5  18
ATOM     18  N   LIG d   1     -27.133  85.895 113.462  0.00  0.00     0.381 N 
ATOM     19  H   LIG d   1     -27.241  86.090 114.437  0.00  0.00    -0.090 HD
ATOM     20  H   LIG d   1     -27.786  85.174 113.211  0.00  0.00    -0.090 HD
ATOM     21  H   LIG d   1     -27.315  86.717 112.929  0.00  0.00    -0.090 HD
ENDBRANCH   5  18
BRANCH   3  22
ATOM     22  C   LIG d   1     -22.468  86.913 113.834  0.00  0.00     0.382 C 
ATOM     23  O   LIG d   1     -22.609  87.955 114.518  0.00  0.00    -0.241 OA
ATOM     24  O   LIG d   1     -21.453  86.778 113.124  0.00  0.00    -0.241 OA
ENDBRANCH   3  22
TORSDOF 7
ENDMDL
