MODEL 1
REMARK VINA RESULT:      -5.4      0.000      0.000
REMARK  7 active torsions:
REMARK  status: ('A' for Active; 'I' for Inactive)
REMARK    1  A    between atoms: C_2  and  C_3 
REMARK    2  A    between atoms: C_3  and  O_6 
REMARK    3  A    between atoms: C_3  and  C_4 
REMARK    4  A    between atoms: C_7  and  O_6 
REMARK    5  A    between atoms: C_9  and  C_10 
REMARK    6  A    between atoms: N_15  and  C_14 
REMARK    7  A    between atoms: N_20  and  C_19 
REMARK       I    between atoms: C_22  and  N_20 
ROOT
ATOM      1  C   LIG d   1      -6.882  77.221 117.574  0.00  0.00     0.161 C 
ATOM      2  C   LIG d   1      -8.055  76.456 117.683  0.00  0.00     0.016 C 
ATOM      3  C   LIG d   1      -9.319  77.010 117.991  0.00  0.00     0.038 C 
ATOM      4  C   LIG d   1      -9.524  78.396 118.063  0.00  0.00     0.028 C 
ATOM      5  C   LIG d   1      -8.273  79.173 118.460  0.00  0.00    -0.047 C 
ATOM      6  C   LIG d   1      -7.105  78.747 117.541  0.00  0.00     0.091 C 
ENDROOT
BRANCH   1   7
ATOM      7  O   LIG d   1      -6.128  76.799 116.420  0.00  0.00    -0.368 OA
BRANCH   7   8
ATOM      8  C   LIG d   1      -6.678  75.688 115.671  0.00  0.00     0.119 C 
BRANCH   8   9
ATOM      9  C   LIG d   1      -5.880  74.428 116.059  0.00  0.00     0.028 C 
ATOM     10  C   LIG d   1      -6.792  73.232 116.381  0.00  0.00     0.006 C 
ENDBRANCH   8   9
BRANCH   8  11
ATOM     11  C   LIG d   1      -6.453  75.864 114.167  0.00  0.00     0.028 C 
ATOM     12  C   LIG d   1      -5.281  75.021 113.638  0.00  0.00     0.006 C 
ENDBRANCH   8  11
ENDBRANCH   7   8
ENDBRANCH   1   7
BRANCH   6  13
ATOM     13  N   LIG d   1      -5.823  79.398 117.915  0.00  0.00    -0.311 N 
ATOM     14  C   LIG d   1      -5.409  80.554 117.400  0.00  0.00     0.210 C 
ATOM     15  C   LIG d   1      -4.048  81.039 117.908  0.00  0.00     0.109 C 
ATOM     16  O   LIG d   1      -6.055  81.241 116.594  0.00  0.00    -0.276 OA
ATOM     17  H   LIG d   1      -5.250  78.925 118.587  0.00  0.00     0.149 HD
ENDBRANCH   6  13
BRANCH   5  18
ATOM     18  N   LIG d   1      -8.591  80.610 118.363  0.00  0.00     0.381 N 
ATOM     19  H   LIG d   1      -9.582  80.734 118.306  0.00  0.00    -0.090 HD
ATOM     20  H   LIG d   1      -8.179  80.978 117.524  0.00  0.00    -0.090 HD
ATOM     21  H   LIG d   1      -8.234  81.093 119.157  0.00  0.00    -0.090 HD
ENDBRANCH   5  18
BRANCH   3  22
ATOM     22  C   LIG d   1     -10.387  76.171 118.269  0.00  0.00     0.382 C 
ATOM     23  O   LIG d   1     -10.181  74.965 118.549  0.00  0.00    -0.241 OA
ATOM     24  O   LIG d   1     -11.557  76.594 118.201  0.00  0.00    -0.241 OA
ENDBRANCH   3  22
TORSDOF 7
ENDMDL
MODEL 2
REMARK VINA RESULT:      -4.9      2.866      4.583
REMARK  7 active torsions:
REMARK  status: ('A' for Active; 'I' for Inactive)
REMARK    1  A    between atoms: C_2  and  C_3 
REMARK    2  A    between atoms: C_3  and  O_6 
REMARK    3  A    between atoms: C_3  and  C_4 
REMARK    4  A    between atoms: C_7  and  O_6 
REMARK    5  A    between atoms: C_9  and  C_10 
REMARK    6  A    between atoms: N_15  and  C_14 
REMARK    7  A    between atoms: N_20  and  C_19 
REMARK       I    between atoms: C_22  and  N_20 
ROOT
ATOM      1  C   LIG d   1      -4.885  75.938 117.636  0.00  0.00     0.161 C 
ATOM      2  C   LIG d   1      -5.996  76.796 117.691  0.00  0.00     0.016 C 
ATOM      3  C   LIG d   1      -5.980  78.123 117.202  0.00  0.00     0.038 C 
ATOM      4  C   LIG d   1      -4.890  78.634 116.482  0.00  0.00     0.028 C 
ATOM      5  C   LIG d   1      -3.563  77.976 116.844  0.00  0.00    -0.047 C 
ATOM      6  C   LIG d   1      -3.723  76.441 116.755  0.00  0.00     0.091 C 
ENDROOT
BRANCH   1   7
ATOM      7  O   LIG d   1      -5.303  74.625 117.213  0.00  0.00    -0.368 OA
BRANCH   7   8
ATOM      8  C   LIG d   1      -6.495  74.569 116.391  0.00  0.00     0.119 C 
BRANCH   8   9
ATOM      9  C   LIG d   1      -7.366  73.413 116.918  0.00  0.00     0.028 C 
ATOM     10  C   LIG d   1      -7.226  72.138 116.070  0.00  0.00     0.006 C 
ENDBRANCH   8   9
BRANCH   8  11
ATOM     11  C   LIG d   1      -6.158  74.196 114.945  0.00  0.00     0.028 C 
ATOM     12  C   LIG d   1      -5.991  75.425 114.036  0.00  0.00     0.006 C 
ENDBRANCH   8  11
ENDBRANCH   7   8
ENDBRANCH   1   7
BRANCH   6  13
ATOM     13  N   LIG d   1      -2.495  75.718 117.175  0.00  0.00    -0.311 N 
ATOM     14  C   LIG d   1      -1.899  74.790 116.428  0.00  0.00     0.210 C 
ATOM     15  C   LIG d   1      -0.656  74.153 117.057  0.00  0.00     0.109 C 
ATOM     16  O   LIG d   1      -2.263  74.457 115.290  0.00  0.00    -0.276 OA
ATOM     17  H   LIG d   1      -2.113  75.949 118.071  0.00  0.00     0.149 HD
ENDBRANCH   6  13
BRANCH   5  18
ATOM     18  N   LIG d   1      -2.538  78.506 115.925  0.00  0.00     0.381 N 
ATOM     19  H   LIG d   1      -2.564  78.000 115.062  0.00  0.00    -0.090 HD
ATOM     20  H   LIG d   1      -1.632  78.376 116.339  0.00  0.00    -0.090 HD
ATOM     21  H   LIG d   1      -2.699  79.474 115.756  0.00  0.00    -0.090 HD
ENDBRANCH   5  18
BRANCH   3  22
ATOM     22  C   LIG d   1      -7.049  78.966 117.466  0.00  0.00     0.382 C 
ATOM     23  O   LIG d   1      -8.068  78.522 118.049  0.00  0.00    -0.241 OA
ATOM     24  O   LIG d   1      -7.026  80.152 117.089  0.00  0.00    -0.241 OA
ENDBRANCH   3  22
TORSDOF 7
ENDMDL
MODEL 3
REMARK VINA RESULT:      -4.8      6.198      8.860
REMARK  7 active torsions:
REMARK  status: ('A' for Active; 'I' for Inactive)
REMARK    1  A    between atoms: C_2  and  C_3 
REMARK    2  A    between atoms: C_3  and  O_6 
REMARK    3  A    between atoms: C_3  and  C_4 
REMARK    4  A    between atoms: C_7  and  O_6 
REMARK    5  A    between atoms: C_9  and  C_10 
REMARK    6  A    between atoms: N_15  and  C_14 
REMARK    7  A    between atoms: N_20  and  C_19 
REMARK       I    between atoms: C_22  and  N_20 
ROOT
ATOM      1  C   LIG d   1      -2.779  81.789 112.952  0.00  0.00     0.161 C 
ATOM      2  C   LIG d   1      -3.073  80.415 112.978  0.00  0.00     0.016 C 
ATOM      3  C   LIG d   1      -2.104  79.408 112.760  0.00  0.00     0.038 C 
ATOM      4  C   LIG d   1      -0.737  79.705 112.650  0.00  0.00     0.028 C 
ATOM      5  C   LIG d   1      -0.463  81.106 112.115  0.00  0.00    -0.047 C 
ATOM      6  C   LIG d   1      -1.274  82.128 112.944  0.00  0.00     0.091 C 
ENDROOT
BRANCH   1   7
ATOM      7  O   LIG d   1      -3.436  82.450 114.051  0.00  0.00    -0.368 OA
BRANCH   7   8
ATOM      8  C   LIG d   1      -3.004  82.062 115.378  0.00  0.00     0.119 C 
BRANCH   8   9
ATOM      9  C   LIG d   1      -4.268  81.797 116.218  0.00  0.00     0.028 C 
ATOM     10  C   LIG d   1      -4.520  80.296 116.443  0.00  0.00     0.006 C 
ENDBRANCH   8   9
BRANCH   8  11
ATOM     11  C   LIG d   1      -2.280  83.211 116.087  0.00  0.00     0.028 C 
ATOM     12  C   LIG d   1      -2.775  84.594 115.636  0.00  0.00     0.006 C 
ENDBRANCH   8  11
ENDBRANCH   7   8
ENDBRANCH   1   7
BRANCH   6  13
ATOM     13  N   LIG d   1      -1.129  83.516 112.432  0.00  0.00    -0.311 N 
ATOM     14  C   LIG d   1      -0.273  84.400 112.943  0.00  0.00     0.210 C 
ATOM     15  C   LIG d   1      -0.298  85.781 112.280  0.00  0.00     0.109 C 
ATOM     16  O   LIG d   1       0.526  84.162 113.861  0.00  0.00    -0.276 OA
ATOM     17  H   LIG d   1      -1.717  83.785 111.668  0.00  0.00     0.149 HD
ENDBRANCH   6  13
BRANCH   5  18
ATOM     18  N   LIG d   1       0.993  81.332 112.182  0.00  0.00     0.381 N 
ATOM     19  H   LIG d   1       1.225  82.187 111.716  0.00  0.00    -0.090 HD
ATOM     20  H   LIG d   1       1.461  80.578 111.710  0.00  0.00    -0.090 HD
ATOM     21  H   LIG d   1       1.288  81.373 113.133  0.00  0.00    -0.090 HD
ENDBRANCH   5  18
BRANCH   3  22
ATOM     22  C   LIG d   1      -2.506  78.090 112.610  0.00  0.00     0.382 C 
ATOM     23  O   LIG d   1      -1.767  77.160 113.016  0.00  0.00    -0.241 OA
ATOM     24  O   LIG d   1      -3.576  77.817 112.035  0.00  0.00    -0.241 OA
ENDBRANCH   3  22
TORSDOF 7
ENDMDL
MODEL 4
REMARK VINA RESULT:      -4.8     14.104     16.983
REMARK  7 active torsions:
REMARK  status: ('A' for Active; 'I' for Inactive)
REMARK    1  A    between atoms: C_2  and  C_3 
REMARK    2  A    between atoms: C_3  and  O_6 
REMARK    3  A    between atoms: C_3  and  C_4 
REMARK    4  A    between atoms: C_7  and  O_6 
REMARK    5  A    between atoms: C_9  and  C_10 
REMARK    6  A    between atoms: N_15  and  C_14 
REMARK    7  A    between atoms: N_20  and  C_19 
REMARK       I    between atoms: C_22  and  N_20 
ROOT
ATOM      1  C   LIG d   1     -17.322  64.084 115.889  0.00  0.00     0.161 C 
ATOM      2  C   LIG d   1     -16.387  64.600 116.801  0.00  0.00     0.016 C 
ATOM      3  C   LIG d   1     -15.481  65.638 116.483  0.00  0.00     0.038 C 
ATOM      4  C   LIG d   1     -15.553  66.339 115.270  0.00  0.00     0.028 C 
ATOM      5  C   LIG d   1     -16.148  65.518 114.130  0.00  0.00    -0.047 C 
ATOM      6  C   LIG d   1     -17.490  64.911 114.597  0.00  0.00     0.091 C 
ENDROOT
BRANCH   1   7
ATOM      7  O   LIG d   1     -18.596  63.910 116.542  0.00  0.00    -0.368 OA
BRANCH   7   8
ATOM      8  C   LIG d   1     -19.476  65.060 116.538  0.00  0.00     0.119 C 
BRANCH   8   9
ATOM      9  C   LIG d   1     -19.515  65.617 117.975  0.00  0.00     0.028 C 
ATOM     10  C   LIG d   1     -18.878  67.013 118.080  0.00  0.00     0.006 C 
ENDBRANCH   8   9
BRANCH   8  11
ATOM     11  C   LIG d   1     -20.919  64.657 116.221  0.00  0.00     0.028 C 
ATOM     12  C   LIG d   1     -21.054  63.173 115.844  0.00  0.00     0.006 C 
ENDBRANCH   8  11
ENDBRANCH   7   8
ENDBRANCH   1   7
BRANCH   6  13
ATOM     13  N   LIG d   1     -18.098  64.024 113.571  0.00  0.00    -0.311 N 
ATOM     14  C   LIG d   1     -19.192  64.343 112.881  0.00  0.00     0.210 C 
ATOM     15  C   LIG d   1     -19.663  63.277 111.887  0.00  0.00     0.109 C 
ATOM     16  O   LIG d   1     -19.798  65.421 112.975  0.00  0.00    -0.276 OA
ATOM     17  H   LIG d   1     -17.652  63.142 113.409  0.00  0.00     0.149 HD
ENDBRANCH   6  13
BRANCH   5  18
ATOM     18  N   LIG d   1     -16.291  66.411 112.965  0.00  0.00     0.381 N 
ATOM     19  H   LIG d   1     -17.081  67.011 113.094  0.00  0.00    -0.090 HD
ATOM     20  H   LIG d   1     -16.450  65.852 112.145  0.00  0.00    -0.090 HD
ATOM     21  H   LIG d   1     -15.465  66.956 112.850  0.00  0.00    -0.090 HD
ENDBRANCH   5  18
BRANCH   3  22
ATOM     22  C   LIG d   1     -14.464  65.959 117.369  0.00  0.00     0.382 C 
ATOM     23  O   LIG d   1     -13.468  66.609 116.972  0.00  0.00    -0.241 OA
ATOM     24  O   LIG d   1     -14.509  65.567 118.551  0.00  0.00    -0.241 OA
ENDBRANCH   3  22
TORSDOF 7
ENDMDL
MODEL 5
REMARK VINA RESULT:      -4.8      3.348      5.007
REMARK  7 active torsions:
REMARK  status: ('A' for Active; 'I' for Inactive)
REMARK    1  A    between atoms: C_2  and  C_3 
REMARK    2  A    between atoms: C_3  and  O_6 
REMARK    3  A    between atoms: C_3  and  C_4 
REMARK    4  A    between atoms: C_7  and  O_6 
REMARK    5  A    between atoms: C_9  and  C_10 
REMARK    6  A    between atoms: N_15  and  C_14 
REMARK    7  A    between atoms: N_20  and  C_19 
REMARK       I    between atoms: C_22  and  N_20 
ROOT
ATOM      1  C   LIG d   1      -4.851  77.591 116.201  0.00  0.00     0.161 C 
ATOM      2  C   LIG d   1      -5.767  78.532 116.698  0.00  0.00     0.016 C 
ATOM      3  C   LIG d   1      -5.479  79.911 116.817  0.00  0.00     0.038 C 
ATOM      4  C   LIG d   1      -4.299  80.469 116.302  0.00  0.00     0.028 C 
ATOM      5  C   LIG d   1      -3.136  79.484 116.250  0.00  0.00    -0.047 C 
ATOM      6  C   LIG d   1      -3.600  78.197 115.531  0.00  0.00     0.091 C 
ENDROOT
BRANCH   1   7
ATOM      7  O   LIG d   1      -5.518  76.691 115.294  0.00  0.00    -0.368 OA
BRANCH   7   8
ATOM      8  C   LIG d   1      -5.425  75.281 115.611  0.00  0.00     0.119 C 
BRANCH   8   9
ATOM      9  C   LIG d   1      -5.555  74.499 114.289  0.00  0.00     0.028 C 
ATOM     10  C   LIG d   1      -5.520  75.419 113.058  0.00  0.00     0.006 C 
ENDBRANCH   8   9
BRANCH   8  11
ATOM     11  C   LIG d   1      -6.607  74.823 116.471  0.00  0.00     0.028 C 
ATOM     12  C   LIG d   1      -6.841  73.306 116.404  0.00  0.00     0.006 C 
ENDBRANCH   8  11
ENDBRANCH   7   8
ENDBRANCH   1   7
BRANCH   6  13
ATOM     13  N   LIG d   1      -2.547  77.148 115.511  0.00  0.00    -0.311 N 
ATOM     14  C   LIG d   1      -2.052  76.628 114.389  0.00  0.00     0.210 C 
ATOM     15  C   LIG d   1      -0.989  75.544 114.593  0.00  0.00     0.109 C 
ATOM     16  O   LIG d   1      -2.370  76.983 113.244  0.00  0.00    -0.276 OA
ATOM     17  H   LIG d   1      -2.210  76.824 116.396  0.00  0.00     0.149 HD
ENDBRANCH   6  13
BRANCH   5  18
ATOM     18  N   LIG d   1      -2.014  80.156 115.567  0.00  0.00     0.381 N 
ATOM     19  H   LIG d   1      -2.318  80.508 114.682  0.00  0.00    -0.090 HD
ATOM     20  H   LIG d   1      -1.284  79.485 115.405  0.00  0.00    -0.090 HD
ATOM     21  H   LIG d   1      -1.670  80.902 116.130  0.00  0.00    -0.090 HD
ENDBRANCH   5  18
BRANCH   3  22
ATOM     22  C   LIG d   1      -6.359  80.742 117.493  0.00  0.00     0.382 C 
ATOM     23  O   LIG d   1      -5.954  81.431 118.460  0.00  0.00    -0.241 OA
ATOM     24  O   LIG d   1      -7.564  80.777 117.177  0.00  0.00    -0.241 OA
ENDBRANCH   3  22
TORSDOF 7
ENDMDL
MODEL 6
REMARK VINA RESULT:      -4.8      5.438      7.625
REMARK  7 active torsions:
REMARK  status: ('A' for Active; 'I' for Inactive)
REMARK    1  A    between atoms: C_2  and  C_3 
REMARK    2  A    between atoms: C_3  and  O_6 
REMARK    3  A    between atoms: C_3  and  C_4 
REMARK    4  A    between atoms: C_7  and  O_6 
REMARK    5  A    between atoms: C_9  and  C_10 
REMARK    6  A    between atoms: N_15  and  C_14 
REMARK    7  A    between atoms: N_20  and  C_19 
REMARK       I    between atoms: C_22  and  N_20 
ROOT
ATOM      1  C   LIG d   1      -1.145  77.002 114.618  0.00  0.00     0.161 C 
ATOM      2  C   LIG d   1      -2.381  76.755 113.997  0.00  0.00     0.016 C 
ATOM      3  C   LIG d   1      -3.175  75.617 114.268  0.00  0.00     0.038 C 
ATOM      4  C   LIG d   1      -2.857  74.720 115.298  0.00  0.00     0.028 C 
ATOM      5  C   LIG d   1      -1.365  74.655 115.606  0.00  0.00    -0.047 C 
ATOM      6  C   LIG d   1      -0.835  76.091 115.825  0.00  0.00     0.091 C 
ENDROOT
BRANCH   1   7
ATOM      7  O   LIG d   1      -1.060  78.388 115.002  0.00  0.00    -0.368 OA
BRANCH   7   8
ATOM      8  C   LIG d   1      -2.166  79.231 114.597  0.00  0.00     0.119 C 
BRANCH   8   9
ATOM      9  C   LIG d   1      -1.596  80.336 113.686  0.00  0.00     0.028 C 
ATOM     10  C   LIG d   1      -2.683  81.012 112.833  0.00  0.00     0.006 C 
ENDBRANCH   8   9
BRANCH   8  11
ATOM     11  C   LIG d   1      -2.774  79.967 115.795  0.00  0.00     0.028 C 
ATOM     12  C   LIG d   1      -4.121  79.374 116.237  0.00  0.00     0.006 C 
ENDBRANCH   8  11
ENDBRANCH   7   8
ENDBRANCH   1   7
BRANCH   6  13
ATOM     13  N   LIG d   1       0.634  76.125 116.048  0.00  0.00    -0.311 N 
ATOM     14  C   LIG d   1       1.191  76.163 117.258  0.00  0.00     0.210 C 
ATOM     15  C   LIG d   1       2.722  76.215 117.263  0.00  0.00     0.109 C 
ATOM     16  O   LIG d   1       0.563  76.127 118.327  0.00  0.00    -0.276 OA
ATOM     17  H   LIG d   1       1.219  76.126 115.236  0.00  0.00     0.149 HD
ENDBRANCH   6  13
BRANCH   5  18
ATOM     18  N   LIG d   1      -1.190  73.789 116.787  0.00  0.00     0.381 N 
ATOM     19  H   LIG d   1      -0.508  73.084 116.592  0.00  0.00    -0.090 HD
ATOM     20  H   LIG d   1      -2.064  73.335 116.989  0.00  0.00    -0.090 HD
ATOM     21  H   LIG d   1      -0.902  74.333 117.570  0.00  0.00    -0.090 HD
ENDBRANCH   5  18
BRANCH   3  22
ATOM     22  C   LIG d   1      -4.282  75.347 113.478  0.00  0.00     0.382 C 
ATOM     23  O   LIG d   1      -4.665  74.163 113.319  0.00  0.00    -0.241 OA
ATOM     24  O   LIG d   1      -4.875  76.269 112.886  0.00  0.00    -0.241 OA
ENDBRANCH   3  22
TORSDOF 7
ENDMDL
MODEL 7
REMARK VINA RESULT:      -4.7      3.803      6.582
REMARK  7 active torsions:
REMARK  status: ('A' for Active; 'I' for Inactive)
REMARK    1  A    between atoms: C_2  and  C_3 
REMARK    2  A    between atoms: C_3  and  O_6 
REMARK    3  A    between atoms: C_3  and  C_4 
REMARK    4  A    between atoms: C_7  and  O_6 
REMARK    5  A    between atoms: C_9  and  C_10 
REMARK    6  A    between atoms: N_15  and  C_14 
REMARK    7  A    between atoms: N_20  and  C_19 
REMARK       I    between atoms: C_22  and  N_20 
ROOT
ATOM      1  C   LIG d   1      -3.610  75.504 115.651  0.00  0.00     0.161 C 
ATOM      2  C   LIG d   1      -2.848  74.632 114.854  0.00  0.00     0.016 C 
ATOM      3  C   LIG d   1      -1.443  74.724 114.725  0.00  0.00     0.038 C 
ATOM      4  C   LIG d   1      -0.683  75.606 115.507  0.00  0.00     0.028 C 
ATOM      5  C   LIG d   1      -1.455  76.845 115.948  0.00  0.00    -0.047 C 
ATOM      6  C   LIG d   1      -2.786  76.401 116.598  0.00  0.00     0.091 C 
ENDROOT
BRANCH   1   7
ATOM      7  O   LIG d   1      -4.589  74.754 116.397  0.00  0.00    -0.368 OA
BRANCH   7   8
ATOM      8  C   LIG d   1      -5.824  74.450 115.702  0.00  0.00     0.119 C 
BRANCH   8   9
ATOM      9  C   LIG d   1      -6.501  75.789 115.355  0.00  0.00     0.028 C 
ATOM     10  C   LIG d   1      -7.169  76.443 116.576  0.00  0.00     0.006 C 
ENDBRANCH   8   9
BRANCH   8  11
ATOM     11  C   LIG d   1      -6.812  73.720 116.617  0.00  0.00     0.028 C 
ATOM     12  C   LIG d   1      -7.178  72.319 116.102  0.00  0.00     0.006 C 
ENDBRANCH   8  11
ENDBRANCH   7   8
ENDBRANCH   1   7
BRANCH   6  13
ATOM     13  N   LIG d   1      -3.642  77.554 116.982  0.00  0.00    -0.311 N 
ATOM     14  C   LIG d   1      -4.055  78.480 116.118  0.00  0.00     0.210 C 
ATOM     15  C   LIG d   1      -4.912  79.595 116.726  0.00  0.00     0.109 C 
ATOM     16  O   LIG d   1      -3.821  78.466 114.901  0.00  0.00    -0.276 OA
ATOM     17  H   LIG d   1      -3.905  77.626 117.945  0.00  0.00     0.149 HD
ENDBRANCH   6  13
BRANCH   5  18
ATOM     18  N   LIG d   1      -0.589  77.606 116.868  0.00  0.00     0.381 N 
ATOM     19  H   LIG d   1       0.321  77.712 116.466  0.00  0.00    -0.090 HD
ATOM     20  H   LIG d   1      -0.497  77.094 117.727  0.00  0.00    -0.090 HD
ATOM     21  H   LIG d   1      -0.987  78.502 117.048  0.00  0.00    -0.090 HD
ENDBRANCH   5  18
BRANCH   3  22
ATOM     22  C   LIG d   1      -0.789  73.955 113.775  0.00  0.00     0.382 C 
ATOM     23  O   LIG d   1      -0.821  72.703 113.851  0.00  0.00    -0.241 OA
ATOM     24  O   LIG d   1      -0.130  74.497 112.868  0.00  0.00    -0.241 OA
ENDBRANCH   3  22
TORSDOF 7
ENDMDL
MODEL 8
REMARK VINA RESULT:      -4.7      5.312      7.444
REMARK  7 active torsions:
REMARK  status: ('A' for Active; 'I' for Inactive)
REMARK    1  A    between atoms: C_2  and  C_3 
REMARK    2  A    between atoms: C_3  and  O_6 
REMARK    3  A    between atoms: C_3  and  C_4 
REMARK    4  A    between atoms: C_7  and  O_6 
REMARK    5  A    between atoms: C_9  and  C_10 
REMARK    6  A    between atoms: N_15  and  C_14 
REMARK    7  A    between atoms: N_20  and  C_19 
REMARK       I    between atoms: C_22  and  N_20 
ROOT
ATOM      1  C   LIG d   1      -2.283  76.330 115.867  0.00  0.00     0.161 C 
ATOM      2  C   LIG d   1      -3.440  76.187 115.083  0.00  0.00     0.016 C 
ATOM      3  C   LIG d   1      -3.623  75.140 114.151  0.00  0.00     0.038 C 
ATOM      4  C   LIG d   1      -2.719  74.073 114.047  0.00  0.00     0.028 C 
ATOM      5  C   LIG d   1      -1.297  74.441 114.456  0.00  0.00    -0.047 C 
ATOM      6  C   LIG d   1      -1.334  75.114 115.848  0.00  0.00     0.091 C 
ENDROOT
BRANCH   1   7
ATOM      7  O   LIG d   1      -2.648  76.660 117.222  0.00  0.00    -0.368 OA
BRANCH   7   8
ATOM      8  C   LIG d   1      -2.406  78.028 117.632  0.00  0.00     0.119 C 
BRANCH   8   9
ATOM      9  C   LIG d   1      -3.763  78.758 117.629  0.00  0.00     0.028 C 
ATOM     10  C   LIG d   1      -3.927  79.688 116.415  0.00  0.00     0.006 C 
ENDBRANCH   8   9
BRANCH   8  11
ATOM     11  C   LIG d   1      -1.543  78.772 116.610  0.00  0.00     0.028 C 
ATOM     12  C   LIG d   1      -0.154  79.137 117.156  0.00  0.00     0.006 C 
ENDBRANCH   8  11
ENDBRANCH   7   8
ENDBRANCH   1   7
BRANCH   6  13
ATOM     13  N   LIG d   1       0.007  75.582 116.286  0.00  0.00    -0.311 N 
ATOM     14  C   LIG d   1       0.493  75.372 117.509  0.00  0.00     0.210 C 
ATOM     15  C   LIG d   1       1.887  75.956 117.759  0.00  0.00     0.109 C 
ATOM     16  O   LIG d   1      -0.085  74.729 118.398  0.00  0.00    -0.276 OA
ATOM     17  H   LIG d   1       0.556  76.085 115.617  0.00  0.00     0.149 HD
ENDBRANCH   6  13
BRANCH   5  18
ATOM     18  N   LIG d   1      -0.492  73.206 114.432  0.00  0.00     0.381 N 
ATOM     19  H   LIG d   1      -0.135  73.052 113.510  0.00  0.00    -0.090 HD
ATOM     20  H   LIG d   1      -1.081  72.429 114.676  0.00  0.00    -0.090 HD
ATOM     21  H   LIG d   1       0.262  73.277 115.080  0.00  0.00    -0.090 HD
ENDBRANCH   5  18
BRANCH   3  22
ATOM     22  C   LIG d   1      -4.703  75.176 113.281  0.00  0.00     0.382 C 
ATOM     23  O   LIG d   1      -5.270  74.109 112.941  0.00  0.00    -0.241 OA
ATOM     24  O   LIG d   1      -5.088  76.257 112.797  0.00  0.00    -0.241 OA
ENDBRANCH   3  22
TORSDOF 7
ENDMDL
MODEL 9
REMARK VINA RESULT:      -4.6      3.382      6.353
REMARK  7 active torsions:
REMARK  status: ('A' for Active; 'I' for Inactive)
REMARK    1  A    between atoms: C_2  and  C_3 
REMARK    2  A    between atoms: C_3  and  O_6 
REMARK    3  A    between atoms: C_3  and  C_4 
REMARK    4  A    between atoms: C_7  and  O_6 
REMARK    5  A    between atoms: C_9  and  C_10 
REMARK    6  A    between atoms: N_15  and  C_14 
REMARK    7  A    between atoms: N_20  and  C_19 
REMARK       I    between atoms: C_22  and  N_20 
ROOT
ATOM      1  C   LIG d   1      -3.998  78.088 116.150  0.00  0.00     0.161 C 
ATOM      2  C   LIG d   1      -4.408  79.425 116.284  0.00  0.00     0.016 C 
ATOM      3  C   LIG d   1      -3.639  80.523 115.835  0.00  0.00     0.038 C 
ATOM      4  C   LIG d   1      -2.470  80.350 115.079  0.00  0.00     0.028 C 
ATOM      5  C   LIG d   1      -1.759  79.030 115.358  0.00  0.00    -0.047 C 
ATOM      6  C   LIG d   1      -2.778  77.875 115.230  0.00  0.00     0.091 C 
ENDROOT
BRANCH   1   7
ATOM      7  O   LIG d   1      -5.106  77.279 115.708  0.00  0.00    -0.368 OA
BRANCH   7   8
ATOM      8  C   LIG d   1      -5.430  76.135 116.536  0.00  0.00     0.119 C 
BRANCH   8   9
ATOM      9  C   LIG d   1      -6.239  75.150 115.669  0.00  0.00     0.028 C 
ATOM     10  C   LIG d   1      -6.138  75.471 114.168  0.00  0.00     0.006 C 
ENDBRANCH   8   9
BRANCH   8  11
ATOM     11  C   LIG d   1      -6.364  76.525 117.685  0.00  0.00     0.028 C 
ATOM     12  C   LIG d   1      -7.825  76.689 117.236  0.00  0.00     0.006 C 
ENDBRANCH   8  11
ENDBRANCH   7   8
ENDBRANCH   1   7
BRANCH   6  13
ATOM     13  N   LIG d   1      -2.184  76.555 115.569  0.00  0.00    -0.311 N 
ATOM     14  C   LIG d   1      -2.211  75.507 114.748  0.00  0.00     0.210 C 
ATOM     15  C   LIG d   1      -1.558  74.236 115.301  0.00  0.00     0.109 C 
ATOM     16  O   LIG d   1      -2.684  75.517 113.602  0.00  0.00    -0.276 OA
ATOM     17  H   LIG d   1      -1.751  76.467 116.467  0.00  0.00     0.149 HD
ENDBRANCH   6  13
BRANCH   5  18
ATOM     18  N   LIG d   1      -0.637  78.919 114.407  0.00  0.00     0.381 N 
ATOM     19  H   LIG d   1      -0.908  79.291 113.518  0.00  0.00    -0.090 HD
ATOM     20  H   LIG d   1      -0.408  77.948 114.285  0.00  0.00    -0.090 HD
ATOM     21  H   LIG d   1       0.155  79.414 114.754  0.00  0.00    -0.090 HD
ENDBRANCH   5  18
BRANCH   3  22
ATOM     22  C   LIG d   1      -4.019  81.813 116.175  0.00  0.00     0.382 C 
ATOM     23  O   LIG d   1      -5.204  82.184 115.998  0.00  0.00    -0.241 OA
ATOM     24  O   LIG d   1      -3.181  82.623 116.615  0.00  0.00    -0.241 OA
ENDBRANCH   3  22
TORSDOF 7
ENDMDL
