MODEL 1
REMARK VINA RESULT:      -4.6      0.000      0.000
REMARK  7 active torsions:
REMARK  status: ('A' for Active; 'I' for Inactive)
REMARK    1  A    between atoms: C_2  and  C_3 
REMARK    2  A    between atoms: C_3  and  O_6 
REMARK    3  A    between atoms: C_3  and  C_4 
REMARK    4  A    between atoms: C_7  and  O_6 
REMARK    5  A    between atoms: C_9  and  C_10 
REMARK    6  A    between atoms: N_15  and  C_14 
REMARK    7  A    between atoms: N_20  and  C_19 
REMARK       I    between atoms: C_22  and  N_20 
ROOT
ATOM      1  C   LIG d   1      11.370  79.359 114.255  0.00  0.00     0.161 C 
ATOM      2  C   LIG d   1      10.079  79.688 114.702  0.00  0.00     0.016 C 
ATOM      3  C   LIG d   1       9.153  78.730 115.175  0.00  0.00     0.038 C 
ATOM      4  C   LIG d   1       9.510  77.389 115.377  0.00  0.00     0.028 C 
ATOM      5  C   LIG d   1      10.640  76.920 114.466  0.00  0.00    -0.047 C 
ATOM      6  C   LIG d   1      11.816  77.917 114.571  0.00  0.00     0.091 C 
ENDROOT
BRANCH   1   7
ATOM      7  O   LIG d   1      12.323  80.305 114.777  0.00  0.00    -0.368 OA
BRANCH   7   8
ATOM      8  C   LIG d   1      12.756  80.086 116.143  0.00  0.00     0.119 C 
BRANCH   8   9
ATOM      9  C   LIG d   1      12.340  81.322 116.964  0.00  0.00     0.028 C 
ATOM     10  C   LIG d   1      11.218  81.008 117.969  0.00  0.00     0.006 C 
ENDBRANCH   8   9
BRANCH   8  11
ATOM     11  C   LIG d   1      14.283  80.029 116.241  0.00  0.00     0.028 C 
ATOM     12  C   LIG d   1      14.978  80.332 114.904  0.00  0.00     0.006 C 
ENDBRANCH   8  11
ENDBRANCH   7   8
ENDBRANCH   1   7
BRANCH   6  13
ATOM     13  N   LIG d   1      12.931  77.578 113.648  0.00  0.00    -0.311 N 
ATOM     14  C   LIG d   1      14.013  76.898 114.024  0.00  0.00     0.210 C 
ATOM     15  C   LIG d   1      15.051  76.673 112.919  0.00  0.00     0.109 C 
ATOM     16  O   LIG d   1      14.197  76.431 115.158  0.00  0.00    -0.276 OA
ATOM     17  H   LIG d   1      12.849  77.891 112.701  0.00  0.00     0.149 HD
ENDBRANCH   6  13
BRANCH   5  18
ATOM     18  N   LIG d   1      11.004  75.550 114.877  0.00  0.00     0.381 N 
ATOM     19  H   LIG d   1      11.579  75.584 115.695  0.00  0.00    -0.090 HD
ATOM     20  H   LIG d   1      11.530  75.119 114.138  0.00  0.00    -0.090 HD
ATOM     21  H   LIG d   1      10.181  75.020 115.062  0.00  0.00    -0.090 HD
ENDBRANCH   5  18
BRANCH   3  22
ATOM     22  C   LIG d   1       7.839  79.105 115.415  0.00  0.00     0.382 C 
ATOM     23  O   LIG d   1       6.926  78.711 114.651  0.00  0.00    -0.241 OA
ATOM     24  O   LIG d   1       7.563  79.868 116.360  0.00  0.00    -0.241 OA
ENDBRANCH   3  22
TORSDOF 7
ENDMDL
MODEL 2
REMARK VINA RESULT:      -4.5     34.057     36.535
REMARK  7 active torsions:
REMARK  status: ('A' for Active; 'I' for Inactive)
REMARK    1  A    between atoms: C_2  and  C_3 
REMARK    2  A    between atoms: C_3  and  O_6 
REMARK    3  A    between atoms: C_3  and  C_4 
REMARK    4  A    between atoms: C_7  and  O_6 
REMARK    5  A    between atoms: C_9  and  C_10 
REMARK    6  A    between atoms: N_15  and  C_14 
REMARK    7  A    between atoms: N_20  and  C_19 
REMARK       I    between atoms: C_22  and  N_20 
ROOT
ATOM      1  C   LIG d   1     -23.620  83.509 113.954  0.00  0.00     0.161 C 
ATOM      2  C   LIG d   1     -22.728  84.572 114.169  0.00  0.00     0.016 C 
ATOM      3  C   LIG d   1     -23.123  85.930 114.181  0.00  0.00     0.038 C 
ATOM      4  C   LIG d   1     -24.473  86.309 114.129  0.00  0.00     0.028 C 
ATOM      5  C   LIG d   1     -25.358  85.300 113.405  0.00  0.00    -0.047 C 
ATOM      6  C   LIG d   1     -25.112  83.896 114.005  0.00  0.00     0.091 C 
ENDROOT
BRANCH   1   7
ATOM      7  O   LIG d   1     -23.346  82.445 114.887  0.00  0.00    -0.368 OA
BRANCH   7   8
ATOM      8  C   LIG d   1     -24.102  82.470 116.123  0.00  0.00     0.119 C 
BRANCH   8   9
ATOM      9  C   LIG d   1     -23.104  82.719 117.270  0.00  0.00     0.028 C 
ATOM     10  C   LIG d   1     -21.660  82.363 116.880  0.00  0.00     0.006 C 
ENDBRANCH   8   9
BRANCH   8  11
ATOM     11  C   LIG d   1     -24.730  81.106 116.420  0.00  0.00     0.028 C 
ATOM     12  C   LIG d   1     -24.365  80.041 115.373  0.00  0.00     0.006 C 
ENDBRANCH   8  11
ENDBRANCH   7   8
ENDBRANCH   1   7
BRANCH   6  13
ATOM     13  N   LIG d   1     -25.877  82.836 113.299  0.00  0.00    -0.311 N 
ATOM     14  C   LIG d   1     -27.046  82.364 113.729  0.00  0.00     0.210 C 
ATOM     15  C   LIG d   1     -27.656  81.258 112.862  0.00  0.00     0.109 C 
ATOM     16  O   LIG d   1     -27.651  82.779 114.729  0.00  0.00    -0.276 OA
ATOM     17  H   LIG d   1     -25.474  82.465 112.461  0.00  0.00     0.149 HD
ENDBRANCH   6  13
BRANCH   5  18
ATOM     18  N   LIG d   1     -26.755  85.752 113.545  0.00  0.00     0.381 N 
ATOM     19  H   LIG d   1     -26.906  86.107 114.468  0.00  0.00    -0.090 HD
ATOM     20  H   LIG d   1     -27.366  84.966 113.406  0.00  0.00    -0.090 HD
ATOM     21  H   LIG d   1     -26.953  86.459 112.872  0.00  0.00    -0.090 HD
ENDBRANCH   5  18
BRANCH   3  22
ATOM     22  C   LIG d   1     -22.160  86.926 114.207  0.00  0.00     0.382 C 
ATOM     23  O   LIG d   1     -22.319  87.934 114.938  0.00  0.00    -0.241 OA
ATOM     24  O   LIG d   1     -21.155  86.852 113.474  0.00  0.00    -0.241 OA
ENDBRANCH   3  22
TORSDOF 7
ENDMDL
MODEL 3
REMARK VINA RESULT:      -4.4     10.184     12.102
REMARK  7 active torsions:
REMARK  status: ('A' for Active; 'I' for Inactive)
REMARK    1  A    between atoms: C_2  and  C_3 
REMARK    2  A    between atoms: C_3  and  O_6 
REMARK    3  A    between atoms: C_3  and  C_4 
REMARK    4  A    between atoms: C_7  and  O_6 
REMARK    5  A    between atoms: C_9  and  C_10 
REMARK    6  A    between atoms: N_15  and  C_14 
REMARK    7  A    between atoms: N_20  and  C_19 
REMARK       I    between atoms: C_22  and  N_20 
ROOT
ATOM      1  C   LIG d   1       2.790  85.809 113.867  0.00  0.00     0.161 C 
ATOM      2  C   LIG d   1       3.233  86.992 113.253  0.00  0.00     0.016 C 
ATOM      3  C   LIG d   1       3.976  87.989 113.927  0.00  0.00     0.038 C 
ATOM      4  C   LIG d   1       4.458  87.798 115.231  0.00  0.00     0.028 C 
ATOM      5  C   LIG d   1       3.608  86.839 116.057  0.00  0.00    -0.047 C 
ATOM      6  C   LIG d   1       3.401  85.534 115.256  0.00  0.00     0.091 C 
ENDROOT
BRANCH   1   7
ATOM      7  O   LIG d   1       3.015  84.689 112.989  0.00  0.00    -0.368 OA
BRANCH   7   8
ATOM      8  C   LIG d   1       1.833  84.088 112.405  0.00  0.00     0.119 C 
BRANCH   8   9
ATOM      9  C   LIG d   1       0.606  84.792 113.018  0.00  0.00     0.028 C 
ATOM     10  C   LIG d   1      -0.327  83.812 113.750  0.00  0.00     0.006 C 
ENDBRANCH   8   9
BRANCH   8  11
ATOM     11  C   LIG d   1       1.699  82.617 112.807  0.00  0.00     0.028 C 
ATOM     12  C   LIG d   1       2.367  81.662 111.805  0.00  0.00     0.006 C 
ENDBRANCH   8  11
ENDBRANCH   7   8
ENDBRANCH   1   7
BRANCH   6  13
ATOM     13  N   LIG d   1       2.510  84.573 115.958  0.00  0.00    -0.311 N 
ATOM     14  C   LIG d   1       2.863  83.322 116.248  0.00  0.00     0.210 C 
ATOM     15  C   LIG d   1       1.787  82.494 116.956  0.00  0.00     0.109 C 
ATOM     16  O   LIG d   1       3.977  82.830 116.014  0.00  0.00    -0.276 OA
ATOM     17  H   LIG d   1       1.598  84.900 116.212  0.00  0.00     0.149 HD
ENDBRANCH   6  13
BRANCH   5  18
ATOM     18  N   LIG d   1       4.299  86.626 117.343  0.00  0.00     0.381 N 
ATOM     19  H   LIG d   1       3.743  86.989 118.091  0.00  0.00    -0.090 HD
ATOM     20  H   LIG d   1       5.172  87.123 117.329  0.00  0.00    -0.090 HD
ATOM     21  H   LIG d   1       4.465  85.654 117.484  0.00  0.00    -0.090 HD
ENDBRANCH   5  18
BRANCH   3  22
ATOM     22  C   LIG d   1       4.209  89.208 113.310  0.00  0.00     0.382 C 
ATOM     23  O   LIG d   1       3.407  90.158 113.477  0.00  0.00    -0.241 OA
ATOM     24  O   LIG d   1       5.187  89.357 112.554  0.00  0.00    -0.241 OA
ENDBRANCH   3  22
TORSDOF 7
ENDMDL
MODEL 4
REMARK VINA RESULT:      -4.4     34.628     37.736
REMARK  7 active torsions:
REMARK  status: ('A' for Active; 'I' for Inactive)
REMARK    1  A    between atoms: C_2  and  C_3 
REMARK    2  A    between atoms: C_3  and  O_6 
REMARK    3  A    between atoms: C_3  and  C_4 
REMARK    4  A    between atoms: C_7  and  O_6 
REMARK    5  A    between atoms: C_9  and  C_10 
REMARK    6  A    between atoms: N_15  and  C_14 
REMARK    7  A    between atoms: N_20  and  C_19 
REMARK       I    between atoms: C_22  and  N_20 
ROOT
ATOM      1  C   LIG d   1     -25.540  85.281 113.782  0.00  0.00     0.161 C 
ATOM      2  C   LIG d   1     -24.514  86.241 113.807  0.00  0.00     0.016 C 
ATOM      3  C   LIG d   1     -23.148  85.915 113.972  0.00  0.00     0.038 C 
ATOM      4  C   LIG d   1     -22.697  84.587 113.972  0.00  0.00     0.028 C 
ATOM      5  C   LIG d   1     -23.746  83.591 114.457  0.00  0.00    -0.047 C 
ATOM      6  C   LIG d   1     -25.056  83.820 113.670  0.00  0.00     0.091 C 
ENDROOT
BRANCH   1   7
ATOM      7  O   LIG d   1     -26.468  85.585 112.722  0.00  0.00    -0.368 OA
BRANCH   7   8
ATOM      8  C   LIG d   1     -27.437  86.625 113.002  0.00  0.00     0.119 C 
BRANCH   8   9
ATOM      9  C   LIG d   1     -28.836  85.981 112.942  0.00  0.00     0.028 C 
ATOM     10  C   LIG d   1     -29.827  86.808 112.105  0.00  0.00     0.006 C 
ENDBRANCH   8   9
BRANCH   8  11
ATOM     11  C   LIG d   1     -27.436  87.697 111.908  0.00  0.00     0.028 C 
ATOM     12  C   LIG d   1     -26.795  89.016 112.367  0.00  0.00     0.006 C 
ENDBRANCH   8  11
ENDBRANCH   7   8
ENDBRANCH   1   7
BRANCH   6  13
ATOM     13  N   LIG d   1     -26.160  82.944 114.140  0.00  0.00    -0.311 N 
ATOM     14  C   LIG d   1     -26.431  81.754 113.605  0.00  0.00     0.210 C 
ATOM     15  C   LIG d   1     -27.625  81.022 114.226  0.00  0.00     0.109 C 
ATOM     16  O   LIG d   1     -25.776  81.222 112.696  0.00  0.00    -0.276 OA
ATOM     17  H   LIG d   1     -26.723  83.284 114.895  0.00  0.00     0.149 HD
ENDBRANCH   6  13
BRANCH   5  18
ATOM     18  N   LIG d   1     -23.191  82.237 114.275  0.00  0.00     0.381 N 
ATOM     19  H   LIG d   1     -22.195  82.285 114.202  0.00  0.00    -0.090 HD
ATOM     20  H   LIG d   1     -23.551  81.850 113.420  0.00  0.00    -0.090 HD
ATOM     21  H   LIG d   1     -23.448  81.657 115.044  0.00  0.00    -0.090 HD
ENDBRANCH   5  18
BRANCH   3  22
ATOM     22  C   LIG d   1     -22.221  86.926 114.179  0.00  0.00     0.382 C 
ATOM     23  O   LIG d   1     -22.488  87.872 114.959  0.00  0.00    -0.241 OA
ATOM     24  O   LIG d   1     -21.139  86.926 113.562  0.00  0.00    -0.241 OA
ENDBRANCH   3  22
TORSDOF 7
ENDMDL
MODEL 5
REMARK VINA RESULT:      -4.3      1.886      3.704
REMARK  7 active torsions:
REMARK  status: ('A' for Active; 'I' for Inactive)
REMARK    1  A    between atoms: C_2  and  C_3 
REMARK    2  A    between atoms: C_3  and  O_6 
REMARK    3  A    between atoms: C_3  and  C_4 
REMARK    4  A    between atoms: C_7  and  O_6 
REMARK    5  A    between atoms: C_9  and  C_10 
REMARK    6  A    between atoms: N_15  and  C_14 
REMARK    7  A    between atoms: N_20  and  C_19 
REMARK       I    between atoms: C_22  and  N_20 
ROOT
ATOM      1  C   LIG d   1      11.536  78.417 114.805  0.00  0.00     0.161 C 
ATOM      2  C   LIG d   1      10.135  78.313 114.818  0.00  0.00     0.016 C 
ATOM      3  C   LIG d   1       9.284  79.324 115.322  0.00  0.00     0.038 C 
ATOM      4  C   LIG d   1       9.774  80.579 115.711  0.00  0.00     0.028 C 
ATOM      5  C   LIG d   1      11.222  80.544 116.187  0.00  0.00    -0.047 C 
ATOM      6  C   LIG d   1      12.082  79.825 115.123  0.00  0.00     0.091 C 
ENDROOT
BRANCH   1   7
ATOM      7  O   LIG d   1      12.049  77.955 113.540  0.00  0.00    -0.368 OA
BRANCH   7   8
ATOM      8  C   LIG d   1      12.765  76.695 113.565  0.00  0.00     0.119 C 
BRANCH   8   9
ATOM      9  C   LIG d   1      12.869  76.251 115.037  0.00  0.00     0.028 C 
ATOM     10  C   LIG d   1      14.323  76.014 115.478  0.00  0.00     0.006 C 
ENDBRANCH   8   9
BRANCH   8  11
ATOM     11  C   LIG d   1      14.211  76.867 113.091  0.00  0.00     0.028 C 
ATOM     12  C   LIG d   1      14.322  77.712 111.811  0.00  0.00     0.006 C 
ENDBRANCH   8  11
ENDBRANCH   7   8
ENDBRANCH   1   7
BRANCH   6  13
ATOM     13  N   LIG d   1      13.498  79.673 115.548  0.00  0.00    -0.311 N 
ATOM     14  C   LIG d   1      14.534  80.028 114.789  0.00  0.00     0.210 C 
ATOM     15  C   LIG d   1      15.910  79.767 115.410  0.00  0.00     0.109 C 
ATOM     16  O   LIG d   1      14.443  80.565 113.675  0.00  0.00    -0.276 OA
ATOM     17  H   LIG d   1      13.663  79.274 116.451  0.00  0.00     0.149 HD
ENDBRANCH   6  13
BRANCH   5  18
ATOM     18  N   LIG d   1      11.645  81.936 116.429  0.00  0.00     0.381 N 
ATOM     19  H   LIG d   1      12.272  82.230 115.706  0.00  0.00    -0.090 HD
ATOM     20  H   LIG d   1      12.133  81.979 117.306  0.00  0.00    -0.090 HD
ATOM     21  H   LIG d   1      10.850  82.535 116.453  0.00  0.00    -0.090 HD
ENDBRANCH   5  18
BRANCH   3  22
ATOM     22  C   LIG d   1       7.930  79.067 115.477  0.00  0.00     0.382 C 
ATOM     23  O   LIG d   1       7.249  79.757 116.274  0.00  0.00    -0.241 OA
ATOM     24  O   LIG d   1       7.391  78.126 114.865  0.00  0.00    -0.241 OA
ENDBRANCH   3  22
TORSDOF 7
ENDMDL
MODEL 6
REMARK VINA RESULT:      -4.2      1.787      2.525
REMARK  7 active torsions:
REMARK  status: ('A' for Active; 'I' for Inactive)
REMARK    1  A    between atoms: C_2  and  C_3 
REMARK    2  A    between atoms: C_3  and  O_6 
REMARK    3  A    between atoms: C_3  and  C_4 
REMARK    4  A    between atoms: C_7  and  O_6 
REMARK    5  A    between atoms: C_9  and  C_10 
REMARK    6  A    between atoms: N_15  and  C_14 
REMARK    7  A    between atoms: N_20  and  C_19 
REMARK       I    between atoms: C_22  and  N_20 
ROOT
ATOM      1  C   LIG d   1      12.023  78.342 114.311  0.00  0.00     0.161 C 
ATOM      2  C   LIG d   1      10.787  78.954 114.578  0.00  0.00     0.016 C 
ATOM      3  C   LIG d   1       9.673  78.260 115.105  0.00  0.00     0.038 C 
ATOM      4  C   LIG d   1       9.767  76.931 115.544  0.00  0.00     0.028 C 
ATOM      5  C   LIG d   1      10.849  76.131 114.827  0.00  0.00    -0.047 C 
ATOM      6  C   LIG d   1      12.178  76.919 114.887  0.00  0.00     0.091 C 
ENDROOT
BRANCH   1   7
ATOM      7  O   LIG d   1      13.097  79.188 114.768  0.00  0.00    -0.368 OA
BRANCH   7   8
ATOM      8  C   LIG d   1      13.816  79.916 113.743  0.00  0.00     0.119 C 
BRANCH   8   9
ATOM      9  C   LIG d   1      13.476  79.265 112.388  0.00  0.00     0.028 C 
ATOM     10  C   LIG d   1      14.658  78.472 111.805  0.00  0.00     0.006 C 
ENDBRANCH   8   9
BRANCH   8  11
ATOM     11  C   LIG d   1      15.330  79.754 113.902  0.00  0.00     0.028 C 
ATOM     12  C   LIG d   1      16.034  81.067 114.279  0.00  0.00     0.006 C 
ENDBRANCH   8  11
ENDBRANCH   7   8
ENDBRANCH   1   7
BRANCH   6  13
ATOM     13  N   LIG d   1      13.270  76.246 114.137  0.00  0.00    -0.311 N 
ATOM     14  C   LIG d   1      14.168  75.446 114.709  0.00  0.00     0.210 C 
ATOM     15  C   LIG d   1      15.221  74.870 113.757  0.00  0.00     0.109 C 
ATOM     16  O   LIG d   1      14.174  75.132 115.909  0.00  0.00    -0.276 OA
ATOM     17  H   LIG d   1      13.322  76.420 113.152  0.00  0.00     0.149 HD
ENDBRANCH   6  13
BRANCH   5  18
ATOM     18  N   LIG d   1      10.931  74.810 115.477  0.00  0.00     0.381 N 
ATOM     19  H   LIG d   1      11.048  74.098 114.784  0.00  0.00    -0.090 HD
ATOM     20  H   LIG d   1      10.071  74.634 115.966  0.00  0.00    -0.090 HD
ATOM     21  H   LIG d   1      11.695  74.790 116.116  0.00  0.00    -0.090 HD
ENDBRANCH   5  18
BRANCH   3  22
ATOM     22  C   LIG d   1       8.437  78.886 115.159  0.00  0.00     0.382 C 
ATOM     23  O   LIG d   1       8.345  80.055 115.607  0.00  0.00    -0.241 OA
ATOM     24  O   LIG d   1       7.407  78.281 114.807  0.00  0.00    -0.241 OA
ENDBRANCH   3  22
TORSDOF 7
ENDMDL
MODEL 7
REMARK VINA RESULT:      -4.2      2.571      5.767
REMARK  7 active torsions:
REMARK  status: ('A' for Active; 'I' for Inactive)
REMARK    1  A    between atoms: C_2  and  C_3 
REMARK    2  A    between atoms: C_3  and  O_6 
REMARK    3  A    between atoms: C_3  and  C_4 
REMARK    4  A    between atoms: C_7  and  O_6 
REMARK    5  A    between atoms: C_9  and  C_10 
REMARK    6  A    between atoms: N_15  and  C_14 
REMARK    7  A    between atoms: N_20  and  C_19 
REMARK       I    between atoms: C_22  and  N_20 
ROOT
ATOM      1  C   LIG d   1      13.230  76.322 114.182  0.00  0.00     0.161 C 
ATOM      2  C   LIG d   1      14.247  75.366 114.027  0.00  0.00     0.016 C 
ATOM      3  C   LIG d   1      14.108  74.012 114.412  0.00  0.00     0.038 C 
ATOM      4  C   LIG d   1      12.881  73.486 114.841  0.00  0.00     0.028 C 
ATOM      5  C   LIG d   1      11.970  74.523 115.488  0.00  0.00    -0.047 C 
ATOM      6  C   LIG d   1      11.847  75.742 114.545  0.00  0.00     0.091 C 
ENDROOT
BRANCH   1   7
ATOM      7  O   LIG d   1      13.137  77.132 112.994  0.00  0.00    -0.368 OA
BRANCH   7   8
ATOM      8  C   LIG d   1      13.969  78.318 112.964  0.00  0.00     0.119 C 
BRANCH   8   9
ATOM      9  C   LIG d   1      13.054  79.519 112.658  0.00  0.00     0.028 C 
ATOM     10  C   LIG d   1      12.141  79.878 113.842  0.00  0.00     0.006 C 
ENDBRANCH   8   9
BRANCH   8  11
ATOM     11  C   LIG d   1      14.971  78.266 111.807  0.00  0.00     0.028 C 
ATOM     12  C   LIG d   1      16.398  78.642 112.237  0.00  0.00     0.006 C 
ENDBRANCH   8  11
ENDBRANCH   7   8
ENDBRANCH   1   7
BRANCH   6  13
ATOM     13  N   LIG d   1      11.040  76.840 115.139  0.00  0.00    -0.311 N 
ATOM     14  C   LIG d   1       9.736  76.994 114.917  0.00  0.00     0.210 C 
ATOM     15  C   LIG d   1       9.101  78.203 115.611  0.00  0.00     0.109 C 
ATOM     16  O   LIG d   1       9.038  76.225 114.238  0.00  0.00    -0.276 OA
ATOM     17  H   LIG d   1      11.521  77.491 115.728  0.00  0.00     0.149 HD
ENDBRANCH   6  13
BRANCH   5  18
ATOM     18  N   LIG d   1      10.675  73.871 115.762  0.00  0.00     0.381 N 
ATOM     19  H   LIG d   1       9.961  74.565 115.863  0.00  0.00    -0.090 HD
ATOM     20  H   LIG d   1      10.744  73.361 116.625  0.00  0.00    -0.090 HD
ATOM     21  H   LIG d   1      10.442  73.250 115.019  0.00  0.00    -0.090 HD
ENDBRANCH   5  18
BRANCH   3  22
ATOM     22  C   LIG d   1      15.216  73.179 114.407  0.00  0.00     0.382 C 
ATOM     23  O   LIG d   1      15.621  72.680 113.329  0.00  0.00    -0.241 OA
ATOM     24  O   LIG d   1      15.790  72.884 115.473  0.00  0.00    -0.241 OA
ENDBRANCH   3  22
TORSDOF 7
ENDMDL
MODEL 8
REMARK VINA RESULT:      -4.1      2.386      4.508
REMARK  7 active torsions:
REMARK  status: ('A' for Active; 'I' for Inactive)
REMARK    1  A    between atoms: C_2  and  C_3 
REMARK    2  A    between atoms: C_3  and  O_6 
REMARK    3  A    between atoms: C_3  and  C_4 
REMARK    4  A    between atoms: C_7  and  O_6 
REMARK    5  A    between atoms: C_9  and  C_10 
REMARK    6  A    between atoms: N_15  and  C_14 
REMARK    7  A    between atoms: N_20  and  C_19 
REMARK       I    between atoms: C_22  and  N_20 
ROOT
ATOM      1  C   LIG d   1      11.323  76.711 115.275  0.00  0.00     0.161 C 
ATOM      2  C   LIG d   1       9.986  77.136 115.332  0.00  0.00     0.016 C 
ATOM      3  C   LIG d   1       9.575  78.455 115.030  0.00  0.00     0.038 C 
ATOM      4  C   LIG d   1      10.461  79.405 114.500  0.00  0.00     0.028 C 
ATOM      5  C   LIG d   1      11.912  79.170 114.904  0.00  0.00    -0.047 C 
ATOM      6  C   LIG d   1      12.288  77.703 114.592  0.00  0.00     0.091 C 
ENDROOT
BRANCH   1   7
ATOM      7  O   LIG d   1      11.399  75.420 114.638  0.00  0.00    -0.368 OA
BRANCH   7   8
ATOM      8  C   LIG d   1      12.132  74.398 115.356  0.00  0.00     0.119 C 
BRANCH   8   9
ATOM      9  C   LIG d   1      12.917  73.575 114.316  0.00  0.00     0.028 C 
ATOM     10  C   LIG d   1      12.541  72.084 114.342  0.00  0.00     0.006 C 
ENDBRANCH   8   9
BRANCH   8  11
ATOM     11  C   LIG d   1      11.184  73.401 116.030  0.00  0.00     0.028 C 
ATOM     12  C   LIG d   1      10.884  73.761 117.494  0.00  0.00     0.006 C 
ENDBRANCH   8  11
ENDBRANCH   7   8
ENDBRANCH   1   7
BRANCH   6  13
ATOM     13  N   LIG d   1      13.667  77.365 115.034  0.00  0.00    -0.311 N 
ATOM     14  C   LIG d   1      14.596  76.866 114.220  0.00  0.00     0.210 C 
ATOM     15  C   LIG d   1      15.944  76.570 114.883  0.00  0.00     0.109 C 
ATOM     16  O   LIG d   1      14.441  76.671 113.005  0.00  0.00    -0.276 OA
ATOM     17  H   LIG d   1      13.888  77.522 115.998  0.00  0.00     0.149 HD
ENDBRANCH   6  13
BRANCH   5  18
ATOM     18  N   LIG d   1      12.742  80.147 114.173  0.00  0.00     0.381 N 
ATOM     19  H   LIG d   1      12.186  80.617 113.487  0.00  0.00    -0.090 HD
ATOM     20  H   LIG d   1      13.480  79.657 113.699  0.00  0.00    -0.090 HD
ATOM     21  H   LIG d   1      13.128  80.810 114.809  0.00  0.00    -0.090 HD
ENDBRANCH   5  18
BRANCH   3  22
ATOM     22  C   LIG d   1       8.271  78.846 115.295  0.00  0.00     0.382 C 
ATOM     23  O   LIG d   1       7.311  78.183 114.834  0.00  0.00    -0.241 OA
ATOM     24  O   LIG d   1       8.043  79.880 115.952  0.00  0.00    -0.241 OA
ENDBRANCH   3  22
TORSDOF 7
ENDMDL
MODEL 9
REMARK VINA RESULT:      -4.1      2.533      4.812
REMARK  7 active torsions:
REMARK  status: ('A' for Active; 'I' for Inactive)
REMARK    1  A    between atoms: C_2  and  C_3 
REMARK    2  A    between atoms: C_3  and  O_6 
REMARK    3  A    between atoms: C_3  and  C_4 
REMARK    4  A    between atoms: C_7  and  O_6 
REMARK    5  A    between atoms: C_9  and  C_10 
REMARK    6  A    between atoms: N_15  and  C_14 
REMARK    7  A    between atoms: N_20  and  C_19 
REMARK       I    between atoms: C_22  and  N_20 
ROOT
ATOM      1  C   LIG d   1      11.876  77.593 115.979  0.00  0.00     0.161 C 
ATOM      2  C   LIG d   1      12.341  78.471 114.985  0.00  0.00     0.016 C 
ATOM      3  C   LIG d   1      12.898  78.035 113.761  0.00  0.00     0.038 C 
ATOM      4  C   LIG d   1      12.890  76.685 113.382  0.00  0.00     0.028 C 
ATOM      5  C   LIG d   1      12.893  75.723 114.565  0.00  0.00    -0.047 C 
ATOM      6  C   LIG d   1      11.758  76.120 115.537  0.00  0.00     0.091 C 
ENDROOT
BRANCH   1   7
ATOM      7  O   LIG d   1      10.616  78.064 116.496  0.00  0.00    -0.368 OA
BRANCH   7   8
ATOM      8  C   LIG d   1       9.778  78.794 115.567  0.00  0.00     0.119 C 
BRANCH   8   9
ATOM      9  C   LIG d   1       9.303  80.075 116.280  0.00  0.00     0.028 C 
ATOM     10  C   LIG d   1      10.169  81.297 115.931  0.00  0.00     0.006 C 
ENDBRANCH   8   9
BRANCH   8  11
ATOM     11  C   LIG d   1       8.501  78.015 115.238  0.00  0.00     0.028 C 
ATOM     12  C   LIG d   1       7.238  78.888 115.300  0.00  0.00     0.006 C 
ENDBRANCH   8  11
ENDBRANCH   7   8
ENDBRANCH   1   7
BRANCH   6  13
ATOM     13  N   LIG d   1      11.743  75.282 116.764  0.00  0.00    -0.311 N 
ATOM     14  C   LIG d   1      11.001  74.183 116.892  0.00  0.00     0.210 C 
ATOM     15  C   LIG d   1      11.119  73.478 118.247  0.00  0.00     0.109 C 
ATOM     16  O   LIG d   1      10.281  73.708 116.002  0.00  0.00    -0.276 OA
ATOM     17  H   LIG d   1      12.322  75.577 117.525  0.00  0.00     0.149 HD
ENDBRANCH   6  13
BRANCH   5  18
ATOM     18  N   LIG d   1      12.745  74.357 114.030  0.00  0.00     0.381 N 
ATOM     19  H   LIG d   1      11.790  74.192 113.782  0.00  0.00    -0.090 HD
ATOM     20  H   LIG d   1      13.003  73.698 114.743  0.00  0.00    -0.090 HD
ATOM     21  H   LIG d   1      13.328  74.238 113.231  0.00  0.00    -0.090 HD
ENDBRANCH   5  18
BRANCH   3  22
ATOM     22  C   LIG d   1      13.508  78.952 112.918  0.00  0.00     0.382 C 
ATOM     23  O   LIG d   1      14.426  78.582 112.148  0.00  0.00    -0.241 OA
ATOM     24  O   LIG d   1      13.182  80.154 112.951  0.00  0.00    -0.241 OA
ENDBRANCH   3  22
TORSDOF 7
ENDMDL
