MODEL 1
REMARK VINA RESULT:      -5.6      0.000      0.000
REMARK  7 active torsions:
REMARK  status: ('A' for Active; 'I' for Inactive)
REMARK    1  A    between atoms: C_2  and  C_3 
REMARK    2  A    between atoms: C_3  and  O_6 
REMARK    3  A    between atoms: C_3  and  C_4 
REMARK    4  A    between atoms: C_7  and  O_6 
REMARK    5  A    between atoms: C_9  and  C_10 
REMARK    6  A    between atoms: N_15  and  C_14 
REMARK    7  A    between atoms: N_20  and  C_19 
REMARK       I    between atoms: C_22  and  N_20 
ROOT
ATOM      1  C   LIG d   1      -2.652  76.772 115.337  0.00  0.00     0.161 C 
ATOM      2  C   LIG d   1      -2.838  77.869 114.479  0.00  0.00     0.016 C 
ATOM      3  C   LIG d   1      -2.075  78.079 113.307  0.00  0.00     0.038 C 
ATOM      4  C   LIG d   1      -1.170  77.119 112.830  0.00  0.00     0.028 C 
ATOM      5  C   LIG d   1      -0.588  76.237 113.929  0.00  0.00    -0.047 C 
ATOM      6  C   LIG d   1      -1.746  75.657 114.773  0.00  0.00     0.091 C 
ENDROOT
BRANCH   1   7
ATOM      7  O   LIG d   1      -3.931  76.231 115.722  0.00  0.00    -0.368 OA
BRANCH   7   8
ATOM      8  C   LIG d   1      -4.798  75.812 114.640  0.00  0.00     0.119 C 
BRANCH   8   9
ATOM      9  C   LIG d   1      -6.231  76.250 114.999  0.00  0.00     0.028 C 
ATOM     10  C   LIG d   1      -6.295  77.013 116.333  0.00  0.00     0.006 C 
ENDBRANCH   8   9
BRANCH   8  11
ATOM     11  C   LIG d   1      -4.856  74.285 114.532  0.00  0.00     0.028 C 
ATOM     12  C   LIG d   1      -5.040  73.598 115.894  0.00  0.00     0.006 C 
ENDBRANCH   8  11
ENDBRANCH   7   8
ENDBRANCH   1   7
BRANCH   6  13
ATOM     13  N   LIG d   1      -1.260  74.849 115.922  0.00  0.00    -0.311 N 
ATOM     14  C   LIG d   1      -1.036  73.538 115.853  0.00  0.00     0.210 C 
ATOM     15  C   LIG d   1      -0.558  72.894 117.158  0.00  0.00     0.109 C 
ATOM     16  O   LIG d   1      -1.158  72.853 114.827  0.00  0.00    -0.276 OA
ATOM     17  H   LIG d   1      -1.106  75.331 116.786  0.00  0.00     0.149 HD
ENDBRANCH   6  13
BRANCH   5  18
ATOM     18  N   LIG d   1       0.229  75.196 113.278  0.00  0.00     0.381 N 
ATOM     19  H   LIG d   1       0.895  75.622 112.664  0.00  0.00    -0.090 HD
ATOM     20  H   LIG d   1      -0.372  74.605 112.730  0.00  0.00    -0.090 HD
ATOM     21  H   LIG d   1       0.702  74.653 113.966  0.00  0.00    -0.090 HD
ENDBRANCH   5  18
BRANCH   3  22
ATOM     22  C   LIG d   1      -2.185  79.279 112.621  0.00  0.00     0.382 C 
ATOM     23  O   LIG d   1      -1.295  79.619 111.805  0.00  0.00    -0.241 OA
ATOM     24  O   LIG d   1      -3.142  80.047 112.841  0.00  0.00    -0.241 OA
ENDBRANCH   3  22
TORSDOF 7
ENDMDL
MODEL 2
REMARK VINA RESULT:      -4.7      9.367     11.670
REMARK  7 active torsions:
REMARK  status: ('A' for Active; 'I' for Inactive)
REMARK    1  A    between atoms: C_2  and  C_3 
REMARK    2  A    between atoms: C_3  and  O_6 
REMARK    3  A    between atoms: C_3  and  C_4 
REMARK    4  A    between atoms: C_7  and  O_6 
REMARK    5  A    between atoms: C_9  and  C_10 
REMARK    6  A    between atoms: N_15  and  C_14 
REMARK    7  A    between atoms: N_20  and  C_19 
REMARK       I    between atoms: C_22  and  N_20 
ROOT
ATOM      1  C   LIG d   1       3.595  86.117 115.239  0.00  0.00     0.161 C 
ATOM      2  C   LIG d   1       4.089  87.326 114.722  0.00  0.00     0.016 C 
ATOM      3  C   LIG d   1       4.072  87.648 113.345  0.00  0.00     0.038 C 
ATOM      4  C   LIG d   1       3.418  86.841 112.403  0.00  0.00     0.028 C 
ATOM      5  C   LIG d   1       3.349  85.372 112.808  0.00  0.00    -0.047 C 
ATOM      6  C   LIG d   1       2.776  85.273 114.240  0.00  0.00     0.091 C 
ENDROOT
BRANCH   1   7
ATOM      7  O   LIG d   1       2.822  86.375 116.428  0.00  0.00    -0.368 OA
BRANCH   7   8
ATOM      8  C   LIG d   1       1.512  86.960 116.223  0.00  0.00     0.119 C 
BRANCH   8   9
ATOM      9  C   LIG d   1       1.442  88.245 117.070  0.00  0.00     0.028 C 
ATOM     10  C   LIG d   1       1.476  89.519 116.208  0.00  0.00     0.006 C 
ENDBRANCH   8   9
BRANCH   8  11
ATOM     11  C   LIG d   1       0.405  86.053 116.769  0.00  0.00     0.028 C 
ATOM     12  C   LIG d   1       0.926  85.018 117.778  0.00  0.00     0.006 C 
ENDBRANCH   8  11
ENDBRANCH   7   8
ENDBRANCH   1   7
BRANCH   6  13
ATOM     13  N   LIG d   1       2.753  83.875 114.746  0.00  0.00    -0.311 N 
ATOM     14  C   LIG d   1       1.691  83.078 114.650  0.00  0.00     0.210 C 
ATOM     15  C   LIG d   1       1.873  81.682 115.253  0.00  0.00     0.109 C 
ATOM     16  O   LIG d   1       0.625  83.384 114.094  0.00  0.00    -0.276 OA
ATOM     17  H   LIG d   1       3.587  83.535 115.184  0.00  0.00     0.149 HD
ENDBRANCH   6  13
BRANCH   5  18
ATOM     18  N   LIG d   1       2.523  84.672 111.805  0.00  0.00     0.381 N 
ATOM     19  H   LIG d   1       2.595  83.683 111.938  0.00  0.00    -0.090 HD
ATOM     20  H   LIG d   1       2.869  84.893 110.888  0.00  0.00    -0.090 HD
ATOM     21  H   LIG d   1       1.572  84.957 111.888  0.00  0.00    -0.090 HD
ENDBRANCH   5  18
BRANCH   3  22
ATOM     22  C   LIG d   1       4.750  88.770 112.893  0.00  0.00     0.382 C 
ATOM     23  O   LIG d   1       5.793  88.639 112.208  0.00  0.00    -0.241 OA
ATOM     24  O   LIG d   1       4.357  89.912 113.199  0.00  0.00    -0.241 OA
ENDBRANCH   3  22
TORSDOF 7
ENDMDL
MODEL 3
REMARK VINA RESULT:      -4.7     15.860     18.725
REMARK  7 active torsions:
REMARK  status: ('A' for Active; 'I' for Inactive)
REMARK    1  A    between atoms: C_2  and  C_3 
REMARK    2  A    between atoms: C_3  and  O_6 
REMARK    3  A    between atoms: C_3  and  C_4 
REMARK    4  A    between atoms: C_7  and  O_6 
REMARK    5  A    between atoms: C_9  and  C_10 
REMARK    6  A    between atoms: N_15  and  C_14 
REMARK    7  A    between atoms: N_20  and  C_19 
REMARK       I    between atoms: C_22  and  N_20 
ROOT
ATOM      1  C   LIG d   1     -16.304  64.609 114.321  0.00  0.00     0.161 C 
ATOM      2  C   LIG d   1     -16.067  63.856 115.483  0.00  0.00     0.016 C 
ATOM      3  C   LIG d   1     -16.087  64.406 116.785  0.00  0.00     0.038 C 
ATOM      4  C   LIG d   1     -16.498  65.725 117.026  0.00  0.00     0.028 C 
ATOM      5  C   LIG d   1     -16.258  66.660 115.845  0.00  0.00    -0.047 C 
ATOM      6  C   LIG d   1     -16.863  66.025 114.572  0.00  0.00     0.091 C 
ENDROOT
BRANCH   1   7
ATOM      7  O   LIG d   1     -17.172  63.878 113.433  0.00  0.00    -0.368 OA
BRANCH   7   8
ATOM      8  C   LIG d   1     -18.592  63.980 113.703  0.00  0.00     0.119 C 
BRANCH   8   9
ATOM      9  C   LIG d   1     -19.113  62.558 113.989  0.00  0.00     0.028 C 
ATOM     10  C   LIG d   1     -19.440  62.341 115.476  0.00  0.00     0.006 C 
ENDBRANCH   8   9
BRANCH   8  11
ATOM     11  C   LIG d   1     -19.361  64.452 112.466  0.00  0.00     0.028 C 
ATOM     12  C   LIG d   1     -20.790  64.914 112.793  0.00  0.00     0.006 C 
ENDBRANCH   8  11
ENDBRANCH   7   8
ENDBRANCH   1   7
BRANCH   6  13
ATOM     13  N   LIG d   1     -16.599  66.835 113.355  0.00  0.00    -0.311 N 
ATOM     14  C   LIG d   1     -15.461  67.494 113.145  0.00  0.00     0.210 C 
ATOM     15  C   LIG d   1     -15.403  68.284 111.834  0.00  0.00     0.109 C 
ATOM     16  O   LIG d   1     -14.481  67.473 113.906  0.00  0.00    -0.276 OA
ATOM     17  H   LIG d   1     -17.329  66.882 112.670  0.00  0.00     0.149 HD
ENDBRANCH   6  13
BRANCH   5  18
ATOM     18  N   LIG d   1     -16.857  67.965 116.181  0.00  0.00     0.381 N 
ATOM     19  H   LIG d   1     -17.613  67.836 116.824  0.00  0.00    -0.090 HD
ATOM     20  H   LIG d   1     -17.224  68.380 115.343  0.00  0.00    -0.090 HD
ATOM     21  H   LIG d   1     -16.168  68.563 116.582  0.00  0.00    -0.090 HD
ENDBRANCH   5  18
BRANCH   3  22
ATOM     22  C   LIG d   1     -15.655  63.644 117.860  0.00  0.00     0.382 C 
ATOM     23  O   LIG d   1     -14.448  63.672 118.203  0.00  0.00    -0.241 OA
ATOM     24  O   LIG d   1     -16.447  62.896 118.463  0.00  0.00    -0.241 OA
ENDBRANCH   3  22
TORSDOF 7
ENDMDL
MODEL 4
REMARK VINA RESULT:      -4.6      8.829     11.091
REMARK  7 active torsions:
REMARK  status: ('A' for Active; 'I' for Inactive)
REMARK    1  A    between atoms: C_2  and  C_3 
REMARK    2  A    between atoms: C_3  and  O_6 
REMARK    3  A    between atoms: C_3  and  C_4 
REMARK    4  A    between atoms: C_7  and  O_6 
REMARK    5  A    between atoms: C_9  and  C_10 
REMARK    6  A    between atoms: N_15  and  C_14 
REMARK    7  A    between atoms: N_20  and  C_19 
REMARK       I    between atoms: C_22  and  N_20 
ROOT
ATOM      1  C   LIG d   1       2.953  85.513 113.832  0.00  0.00     0.161 C 
ATOM      2  C   LIG d   1       3.516  86.603 113.146  0.00  0.00     0.016 C 
ATOM      3  C   LIG d   1       4.345  87.567 113.765  0.00  0.00     0.038 C 
ATOM      4  C   LIG d   1       4.793  87.421 115.086  0.00  0.00     0.028 C 
ATOM      5  C   LIG d   1       3.845  86.608 115.961  0.00  0.00    -0.047 C 
ATOM      6  C   LIG d   1       3.521  85.276 115.247  0.00  0.00     0.091 C 
ENDROOT
BRANCH   1   7
ATOM      7  O   LIG d   1       3.078  84.318 113.035  0.00  0.00    -0.368 OA
BRANCH   7   8
ATOM      8  C   LIG d   1       1.940  83.987 112.201  0.00  0.00     0.119 C 
BRANCH   8   9
ATOM      9  C   LIG d   1       0.671  84.172 113.055  0.00  0.00     0.028 C 
ATOM     10  C   LIG d   1      -0.430  84.945 112.310  0.00  0.00     0.006 C 
ENDBRANCH   8   9
BRANCH   8  11
ATOM     11  C   LIG d   1       1.951  82.507 111.806  0.00  0.00     0.028 C 
ATOM     12  C   LIG d   1       1.401  81.591 112.910  0.00  0.00     0.006 C 
ENDBRANCH   8  11
ENDBRANCH   7   8
ENDBRANCH   1   7
BRANCH   6  13
ATOM     13  N   LIG d   1       2.533  84.457 115.996  0.00  0.00    -0.311 N 
ATOM     14  C   LIG d   1       2.620  83.134 116.119  0.00  0.00     0.210 C 
ATOM     15  C   LIG d   1       1.486  82.482 116.916  0.00  0.00     0.109 C 
ATOM     16  O   LIG d   1       3.547  82.442 115.671  0.00  0.00    -0.276 OA
ATOM     17  H   LIG d   1       1.765  84.942 116.418  0.00  0.00     0.149 HD
ENDBRANCH   6  13
BRANCH   5  18
ATOM     18  N   LIG d   1       4.499  86.418 117.270  0.00  0.00     0.381 N 
ATOM     19  H   LIG d   1       3.950  85.802 117.836  0.00  0.00    -0.090 HD
ATOM     20  H   LIG d   1       4.558  87.306 117.736  0.00  0.00    -0.090 HD
ATOM     21  H   LIG d   1       5.412  86.040 117.143  0.00  0.00    -0.090 HD
ENDBRANCH   5  18
BRANCH   3  22
ATOM     22  C   LIG d   1       4.702  88.713 113.071  0.00  0.00     0.382 C 
ATOM     23  O   LIG d   1       5.622  88.669 112.219  0.00  0.00    -0.241 OA
ATOM     24  O   LIG d   1       4.147  89.800 113.318  0.00  0.00    -0.241 OA
ENDBRANCH   3  22
TORSDOF 7
ENDMDL
MODEL 5
REMARK VINA RESULT:      -4.6      2.525      5.809
REMARK  7 active torsions:
REMARK  status: ('A' for Active; 'I' for Inactive)
REMARK    1  A    between atoms: C_2  and  C_3 
REMARK    2  A    between atoms: C_3  and  O_6 
REMARK    3  A    between atoms: C_3  and  C_4 
REMARK    4  A    between atoms: C_7  and  O_6 
REMARK    5  A    between atoms: C_9  and  C_10 
REMARK    6  A    between atoms: N_15  and  C_14 
REMARK    7  A    between atoms: N_20  and  C_19 
REMARK       I    between atoms: C_22  and  N_20 
ROOT
ATOM      1  C   LIG d   1      -2.359  76.652 116.240  0.00  0.00     0.161 C 
ATOM      2  C   LIG d   1      -1.580  75.530 115.911  0.00  0.00     0.016 C 
ATOM      3  C   LIG d   1      -2.107  74.223 115.794  0.00  0.00     0.038 C 
ATOM      4  C   LIG d   1      -3.486  73.972 115.850  0.00  0.00     0.028 C 
ATOM      5  C   LIG d   1      -4.254  74.995 116.680  0.00  0.00    -0.047 C 
ATOM      6  C   LIG d   1      -3.883  76.415 116.196  0.00  0.00     0.091 C 
ENDROOT
BRANCH   1   7
ATOM      7  O   LIG d   1      -1.999  77.762 115.394  0.00  0.00    -0.368 OA
BRANCH   7   8
ATOM      8  C   LIG d   1      -1.516  77.424 114.071  0.00  0.00     0.119 C 
BRANCH   8   9
ATOM      9  C   LIG d   1      -0.385  78.413 113.725  0.00  0.00     0.028 C 
ATOM     10  C   LIG d   1       0.721  78.436 114.793  0.00  0.00     0.006 C 
ENDBRANCH   8   9
BRANCH   8  11
ATOM     11  C   LIG d   1      -2.594  77.654 113.008  0.00  0.00     0.028 C 
ATOM     12  C   LIG d   1      -2.103  78.523 111.839  0.00  0.00     0.006 C 
ENDBRANCH   8  11
ENDBRANCH   7   8
ENDBRANCH   1   7
BRANCH   6  13
ATOM     13  N   LIG d   1      -4.527  77.478 117.011  0.00  0.00    -0.311 N 
ATOM     14  C   LIG d   1      -5.750  77.948 116.770  0.00  0.00     0.210 C 
ATOM     15  C   LIG d   1      -6.215  79.057 117.718  0.00  0.00     0.109 C 
ATOM     16  O   LIG d   1      -6.506  77.528 115.880  0.00  0.00    -0.276 OA
ATOM     17  H   LIG d   1      -3.996  77.854 117.773  0.00  0.00     0.149 HD
ENDBRANCH   6  13
BRANCH   5  18
ATOM     18  N   LIG d   1      -5.691  74.693 116.541  0.00  0.00     0.381 N 
ATOM     19  H   LIG d   1      -6.007  74.174 117.335  0.00  0.00    -0.090 HD
ATOM     20  H   LIG d   1      -5.826  74.128 115.721  0.00  0.00    -0.090 HD
ATOM     21  H   LIG d   1      -6.211  75.539 116.459  0.00  0.00    -0.090 HD
ENDBRANCH   5  18
BRANCH   3  22
ATOM     22  C   LIG d   1      -1.246  73.145 115.658  0.00  0.00     0.382 C 
ATOM     23  O   LIG d   1      -0.833  72.812 114.521  0.00  0.00    -0.241 OA
ATOM     24  O   LIG d   1      -0.912  72.473 116.652  0.00  0.00    -0.241 OA
ENDBRANCH   3  22
TORSDOF 7
ENDMDL
MODEL 6
REMARK VINA RESULT:      -4.6     15.920     18.316
REMARK  7 active torsions:
REMARK  status: ('A' for Active; 'I' for Inactive)
REMARK    1  A    between atoms: C_2  and  C_3 
REMARK    2  A    between atoms: C_3  and  O_6 
REMARK    3  A    between atoms: C_3  and  C_4 
REMARK    4  A    between atoms: C_7  and  O_6 
REMARK    5  A    between atoms: C_9  and  C_10 
REMARK    6  A    between atoms: N_15  and  C_14 
REMARK    7  A    between atoms: N_20  and  C_19 
REMARK       I    between atoms: C_22  and  N_20 
ROOT
ATOM      1  C   LIG d   1     -17.196  65.067 114.353  0.00  0.00     0.161 C 
ATOM      2  C   LIG d   1     -16.664  66.014 113.462  0.00  0.00     0.016 C 
ATOM      3  C   LIG d   1     -15.721  66.996 113.841  0.00  0.00     0.038 C 
ATOM      4  C   LIG d   1     -15.127  67.002 115.112  0.00  0.00     0.028 C 
ATOM      5  C   LIG d   1     -16.004  66.380 116.193  0.00  0.00    -0.047 C 
ATOM      6  C   LIG d   1     -16.477  64.987 115.716  0.00  0.00     0.091 C 
ENDROOT
BRANCH   1   7
ATOM      7  O   LIG d   1     -17.226  63.769 113.726  0.00  0.00    -0.368 OA
BRANCH   7   8
ATOM      8  C   LIG d   1     -18.519  63.321 113.250  0.00  0.00     0.119 C 
BRANCH   8   9
ATOM      9  C   LIG d   1     -19.564  64.358 113.706  0.00  0.00     0.028 C 
ATOM     10  C   LIG d   1     -20.688  64.551 112.674  0.00  0.00     0.006 C 
ENDBRANCH   8   9
BRANCH   8  11
ATOM     11  C   LIG d   1     -18.934  62.006 113.916  0.00  0.00     0.028 C 
ATOM     12  C   LIG d   1     -17.757  61.283 114.590  0.00  0.00     0.006 C 
ENDBRANCH   8  11
ENDBRANCH   7   8
ENDBRANCH   1   7
BRANCH   6  13
ATOM     13  N   LIG d   1     -17.409  64.344 116.679  0.00  0.00    -0.311 N 
ATOM     14  C   LIG d   1     -17.020  63.461 117.597  0.00  0.00     0.210 C 
ATOM     15  C   LIG d   1     -18.145  62.904 118.476  0.00  0.00     0.109 C 
ATOM     16  O   LIG d   1     -15.846  63.109 117.788  0.00  0.00    -0.276 OA
ATOM     17  H   LIG d   1     -18.376  64.596 116.615  0.00  0.00     0.149 HD
ENDBRANCH   6  13
BRANCH   5  18
ATOM     18  N   LIG d   1     -15.211  66.326 117.435  0.00  0.00     0.381 N 
ATOM     19  H   LIG d   1     -15.641  65.700 118.086  0.00  0.00    -0.090 HD
ATOM     20  H   LIG d   1     -15.189  67.243 117.847  0.00  0.00    -0.090 HD
ATOM     21  H   LIG d   1     -14.283  66.023 117.235  0.00  0.00    -0.090 HD
ENDBRANCH   5  18
BRANCH   3  22
ATOM     22  C   LIG d   1     -15.392  68.011 112.956  0.00  0.00     0.382 C 
ATOM     23  O   LIG d   1     -15.892  68.026 111.805  0.00  0.00    -0.241 OA
ATOM     24  O   LIG d   1     -14.567  68.887 113.278  0.00  0.00    -0.241 OA
ENDBRANCH   3  22
TORSDOF 7
ENDMDL
MODEL 7
REMARK VINA RESULT:      -4.6      2.786      5.353
REMARK  7 active torsions:
REMARK  status: ('A' for Active; 'I' for Inactive)
REMARK    1  A    between atoms: C_2  and  C_3 
REMARK    2  A    between atoms: C_3  and  O_6 
REMARK    3  A    between atoms: C_3  and  C_4 
REMARK    4  A    between atoms: C_7  and  O_6 
REMARK    5  A    between atoms: C_9  and  C_10 
REMARK    6  A    between atoms: N_15  and  C_14 
REMARK    7  A    between atoms: N_20  and  C_19 
REMARK       I    between atoms: C_22  and  N_20 
ROOT
ATOM      1  C   LIG d   1      -1.441  75.967 116.849  0.00  0.00     0.161 C 
ATOM      2  C   LIG d   1      -0.124  76.279 117.227  0.00  0.00     0.016 C 
ATOM      3  C   LIG d   1       0.792  75.320 117.719  0.00  0.00     0.038 C 
ATOM      4  C   LIG d   1       0.499  73.949 117.724  0.00  0.00     0.028 C 
ATOM      5  C   LIG d   1      -0.993  73.649 117.826  0.00  0.00    -0.047 C 
ATOM      6  C   LIG d   1      -1.743  74.458 116.743  0.00  0.00     0.091 C 
ENDROOT
BRANCH   1   7
ATOM      7  O   LIG d   1      -1.764  76.631 115.612  0.00  0.00    -0.368 OA
BRANCH   7   8
ATOM      8  C   LIG d   1      -0.652  76.897 114.721  0.00  0.00     0.119 C 
BRANCH   8   9
ATOM      9  C   LIG d   1      -0.814  78.336 114.196  0.00  0.00     0.028 C 
ATOM     10  C   LIG d   1      -1.062  78.383 112.679  0.00  0.00     0.006 C 
ENDBRANCH   8   9
BRANCH   8  11
ATOM     11  C   LIG d   1      -0.707  76.003 113.479  0.00  0.00     0.028 C 
ATOM     12  C   LIG d   1       0.253  74.806 113.563  0.00  0.00     0.006 C 
ENDBRANCH   8  11
ENDBRANCH   7   8
ENDBRANCH   1   7
BRANCH   6  13
ATOM     13  N   LIG d   1      -3.217  74.287 116.827  0.00  0.00    -0.311 N 
ATOM     14  C   LIG d   1      -3.995  74.100 115.763  0.00  0.00     0.210 C 
ATOM     15  C   LIG d   1      -5.490  73.967 116.070  0.00  0.00     0.109 C 
ATOM     16  O   LIG d   1      -3.586  73.999 114.597  0.00  0.00    -0.276 OA
ATOM     17  H   LIG d   1      -3.629  74.324 117.739  0.00  0.00     0.149 HD
ENDBRANCH   6  13
BRANCH   5  18
ATOM     18  N   LIG d   1      -1.165  72.191 117.682  0.00  0.00     0.381 N 
ATOM     19  H   LIG d   1      -0.270  71.744 117.666  0.00  0.00    -0.090 HD
ATOM     20  H   LIG d   1      -1.627  72.003 116.809  0.00  0.00    -0.090 HD
ATOM     21  H   LIG d   1      -1.709  71.835 118.437  0.00  0.00    -0.090 HD
ENDBRANCH   5  18
BRANCH   3  22
ATOM     22  C   LIG d   1       2.003  75.737 118.250  0.00  0.00     0.382 C 
ATOM     23  O   LIG d   1       2.878  74.891 118.555  0.00  0.00    -0.241 OA
ATOM     24  O   LIG d   1       2.215  76.945 118.469  0.00  0.00    -0.241 OA
ENDBRANCH   3  22
TORSDOF 7
ENDMDL
MODEL 8
REMARK VINA RESULT:      -4.5      2.782      4.740
REMARK  7 active torsions:
REMARK  status: ('A' for Active; 'I' for Inactive)
REMARK    1  A    between atoms: C_2  and  C_3 
REMARK    2  A    between atoms: C_3  and  O_6 
REMARK    3  A    between atoms: C_3  and  C_4 
REMARK    4  A    between atoms: C_7  and  O_6 
REMARK    5  A    between atoms: C_9  and  C_10 
REMARK    6  A    between atoms: N_15  and  C_14 
REMARK    7  A    between atoms: N_20  and  C_19 
REMARK       I    between atoms: C_22  and  N_20 
ROOT
ATOM      1  C   LIG d   1      -2.459  77.349 116.031  0.00  0.00     0.161 C 
ATOM      2  C   LIG d   1      -3.435  76.533 115.436  0.00  0.00     0.016 C 
ATOM      3  C   LIG d   1      -3.487  76.269 114.048  0.00  0.00     0.038 C 
ATOM      4  C   LIG d   1      -2.471  76.685 113.175  0.00  0.00     0.028 C 
ATOM      5  C   LIG d   1      -1.739  77.935 113.651  0.00  0.00    -0.047 C 
ATOM      6  C   LIG d   1      -1.278  77.722 115.111  0.00  0.00     0.091 C 
ENDROOT
BRANCH   1   7
ATOM      7  O   LIG d   1      -1.976  76.732 117.241  0.00  0.00    -0.368 OA
BRANCH   7   8
ATOM      8  C   LIG d   1      -0.924  75.749 117.078  0.00  0.00     0.119 C 
BRANCH   8   9
ATOM      9  C   LIG d   1      -1.482  74.392 117.549  0.00  0.00     0.028 C 
ATOM     10  C   LIG d   1      -1.453  73.328 116.438  0.00  0.00     0.006 C 
ENDBRANCH   8   9
BRANCH   8  11
ATOM     11  C   LIG d   1       0.260  76.043 118.003  0.00  0.00     0.028 C 
ATOM     12  C   LIG d   1       1.573  75.417 117.507  0.00  0.00     0.006 C 
ENDBRANCH   8  11
ENDBRANCH   7   8
ENDBRANCH   1   7
BRANCH   6  13
ATOM     13  N   LIG d   1      -0.626  78.929 115.682  0.00  0.00    -0.311 N 
ATOM     14  C   LIG d   1       0.694  79.092 115.738  0.00  0.00     0.210 C 
ATOM     15  C   LIG d   1       1.158  80.402 116.384  0.00  0.00     0.109 C 
ATOM     16  O   LIG d   1       1.526  78.291 115.285  0.00  0.00    -0.276 OA
ATOM     17  H   LIG d   1      -1.227  79.644 116.044  0.00  0.00     0.149 HD
ENDBRANCH   6  13
BRANCH   5  18
ATOM     18  N   LIG d   1      -0.619  78.177 112.721  0.00  0.00     0.381 N 
ATOM     19  H   LIG d   1      -0.958  78.622 111.892  0.00  0.00    -0.090 HD
ATOM     20  H   LIG d   1      -0.215  77.294 112.463  0.00  0.00    -0.090 HD
ATOM     21  H   LIG d   1       0.069  78.751 113.157  0.00  0.00    -0.090 HD
ENDBRANCH   5  18
BRANCH   3  22
ATOM     22  C   LIG d   1      -4.587  75.615 113.514  0.00  0.00     0.382 C 
ATOM     23  O   LIG d   1      -4.821  74.423 113.828  0.00  0.00    -0.241 OA
ATOM     24  O   LIG d   1      -5.322  76.187 112.687  0.00  0.00    -0.241 OA
ENDBRANCH   3  22
TORSDOF 7
ENDMDL
MODEL 9
REMARK VINA RESULT:      -4.4      2.586      4.887
REMARK  7 active torsions:
REMARK  status: ('A' for Active; 'I' for Inactive)
REMARK    1  A    between atoms: C_2  and  C_3 
REMARK    2  A    between atoms: C_3  and  O_6 
REMARK    3  A    between atoms: C_3  and  C_4 
REMARK    4  A    between atoms: C_7  and  O_6 
REMARK    5  A    between atoms: C_9  and  C_10 
REMARK    6  A    between atoms: N_15  and  C_14 
REMARK    7  A    between atoms: N_20  and  C_19 
REMARK       I    between atoms: C_22  and  N_20 
ROOT
ATOM      1  C   LIG d   1      -1.616  75.832 116.215  0.00  0.00     0.161 C 
ATOM      2  C   LIG d   1      -0.265  76.174 116.389  0.00  0.00     0.016 C 
ATOM      3  C   LIG d   1       0.683  75.317 116.994  0.00  0.00     0.038 C 
ATOM      4  C   LIG d   1       0.374  73.992 117.333  0.00  0.00     0.028 C 
ATOM      5  C   LIG d   1      -1.104  73.774 117.639  0.00  0.00    -0.047 C 
ATOM      6  C   LIG d   1      -1.947  74.348 116.478  0.00  0.00     0.091 C 
ENDROOT
BRANCH   1   7
ATOM      7  O   LIG d   1      -2.052  76.217 114.896  0.00  0.00    -0.368 OA
BRANCH   7   8
ATOM      8  C   LIG d   1      -2.960  77.344 114.828  0.00  0.00     0.119 C 
BRANCH   8   9
ATOM      9  C   LIG d   1      -2.209  78.504 114.147  0.00  0.00     0.028 C 
ATOM     10  C   LIG d   1      -1.161  78.010 113.135  0.00  0.00     0.006 C 
ENDBRANCH   8   9
BRANCH   8  11
ATOM     11  C   LIG d   1      -3.316  77.857 116.227  0.00  0.00     0.028 C 
ATOM     12  C   LIG d   1      -4.816  77.740 116.540  0.00  0.00     0.006 C 
ENDBRANCH   8  11
ENDBRANCH   7   8
ENDBRANCH   1   7
BRANCH   6  13
ATOM     13  N   LIG d   1      -3.407  74.252 116.736  0.00  0.00    -0.311 N 
ATOM     14  C   LIG d   1      -4.304  73.997 115.785  0.00  0.00     0.210 C 
ATOM     15  C   LIG d   1      -5.760  73.960 116.262  0.00  0.00     0.109 C 
ATOM     16  O   LIG d   1      -4.030  73.765 114.598  0.00  0.00    -0.276 OA
ATOM     17  H   LIG d   1      -3.715  74.395 117.678  0.00  0.00     0.149 HD
ENDBRANCH   6  13
BRANCH   5  18
ATOM     18  N   LIG d   1      -1.308  72.327 117.841  0.00  0.00     0.381 N 
ATOM     19  H   LIG d   1      -0.427  71.878 117.990  0.00  0.00    -0.090 HD
ATOM     20  H   LIG d   1      -1.724  71.938 117.013  0.00  0.00    -0.090 HD
ATOM     21  H   LIG d   1      -1.904  72.173 118.625  0.00  0.00    -0.090 HD
ENDBRANCH   5  18
BRANCH   3  22
ATOM     22  C   LIG d   1       1.946  75.799 117.303  0.00  0.00     0.382 C 
ATOM     23  O   LIG d   1       2.096  77.000 117.635  0.00  0.00    -0.241 OA
ATOM     24  O   LIG d   1       2.944  75.059 117.210  0.00  0.00    -0.241 OA
ENDBRANCH   3  22
TORSDOF 7
ENDMDL
