MODEL 1
REMARK VINA RESULT:      -5.3      0.000      0.000
REMARK  7 active torsions:
REMARK  status: ('A' for Active; 'I' for Inactive)
REMARK    1  A    between atoms: C_2  and  C_3 
REMARK    2  A    between atoms: C_3  and  O_6 
REMARK    3  A    between atoms: C_3  and  C_4 
REMARK    4  A    between atoms: C_7  and  O_6 
REMARK    5  A    between atoms: C_9  and  C_10 
REMARK    6  A    between atoms: N_15  and  C_14 
REMARK    7  A    between atoms: N_20  and  C_19 
REMARK       I    between atoms: C_22  and  N_20 
ROOT
ATOM      1  C   LIG d   1     -16.763  65.454 114.500  0.00  0.00     0.161 C 
ATOM      2  C   LIG d   1     -16.419  66.546 113.687  0.00  0.00     0.016 C 
ATOM      3  C   LIG d   1     -15.396  67.466 114.013  0.00  0.00     0.038 C 
ATOM      4  C   LIG d   1     -14.541  67.267 115.107  0.00  0.00     0.028 C 
ATOM      5  C   LIG d   1     -15.175  66.456 116.232  0.00  0.00    -0.047 C 
ATOM      6  C   LIG d   1     -15.768  65.157 115.641  0.00  0.00     0.091 C 
ENDROOT
BRANCH   1   7
ATOM      7  O   LIG d   1     -16.955  64.280 113.685  0.00  0.00    -0.368 OA
BRANCH   7   8
ATOM      8  C   LIG d   1     -18.309  63.770 113.611  0.00  0.00     0.119 C 
BRANCH   8   9
ATOM      9  C   LIG d   1     -19.225  64.782 114.328  0.00  0.00     0.028 C 
ATOM     10  C   LIG d   1     -20.265  65.405 113.381  0.00  0.00     0.006 C 
ENDBRANCH   8   9
BRANCH   8  11
ATOM     11  C   LIG d   1     -18.456  62.463 114.396  0.00  0.00     0.028 C 
ATOM     12  C   LIG d   1     -19.442  62.581 115.569  0.00  0.00     0.006 C 
ENDBRANCH   8  11
ENDBRANCH   7   8
ENDBRANCH   1   7
BRANCH   6  13
ATOM     13  N   LIG d   1     -16.482  64.345 116.661  0.00  0.00    -0.311 N 
ATOM     14  C   LIG d   1     -15.912  63.347 117.333  0.00  0.00     0.210 C 
ATOM     15  C   LIG d   1     -16.831  62.626 118.324  0.00  0.00     0.109 C 
ATOM     16  O   LIG d   1     -14.723  63.010 117.227  0.00  0.00    -0.276 OA
ATOM     17  H   LIG d   1     -17.442  64.570 116.833  0.00  0.00     0.149 HD
ENDBRANCH   6  13
BRANCH   5  18
ATOM     18  N   LIG d   1     -14.132  66.208 117.245  0.00  0.00     0.381 N 
ATOM     19  H   LIG d   1     -13.670  65.342 117.049  0.00  0.00    -0.090 HD
ATOM     20  H   LIG d   1     -14.567  66.136 118.148  0.00  0.00    -0.090 HD
ATOM     21  H   LIG d   1     -13.471  66.953 117.244  0.00  0.00    -0.090 HD
ENDBRANCH   5  18
BRANCH   3  22
ATOM     22  C   LIG d   1     -15.246  68.622 113.262  0.00  0.00     0.382 C 
ATOM     23  O   LIG d   1     -14.127  69.185 113.194  0.00  0.00    -0.241 OA
ATOM     24  O   LIG d   1     -16.226  69.133 112.687  0.00  0.00    -0.241 OA
ENDBRANCH   3  22
TORSDOF 7
ENDMDL
MODEL 2
REMARK VINA RESULT:      -5.1      0.535      1.556
REMARK  7 active torsions:
REMARK  status: ('A' for Active; 'I' for Inactive)
REMARK    1  A    between atoms: C_2  and  C_3 
REMARK    2  A    between atoms: C_3  and  O_6 
REMARK    3  A    between atoms: C_3  and  C_4 
REMARK    4  A    between atoms: C_7  and  O_6 
REMARK    5  A    between atoms: C_9  and  C_10 
REMARK    6  A    between atoms: N_15  and  C_14 
REMARK    7  A    between atoms: N_20  and  C_19 
REMARK       I    between atoms: C_22  and  N_20 
ROOT
ATOM      1  C   LIG d   1     -17.149  65.648 114.601  0.00  0.00     0.161 C 
ATOM      2  C   LIG d   1     -16.708  66.702 113.784  0.00  0.00     0.016 C 
ATOM      3  C   LIG d   1     -15.553  67.469 114.060  0.00  0.00     0.038 C 
ATOM      4  C   LIG d   1     -14.670  67.134 115.097  0.00  0.00     0.028 C 
ATOM      5  C   LIG d   1     -15.342  66.392 116.248  0.00  0.00    -0.047 C 
ATOM      6  C   LIG d   1     -16.138  65.196 115.676  0.00  0.00     0.091 C 
ENDROOT
BRANCH   1   7
ATOM      7  O   LIG d   1     -17.544  64.528 113.784  0.00  0.00    -0.368 OA
BRANCH   7   8
ATOM      8  C   LIG d   1     -18.882  64.018 114.006  0.00  0.00     0.119 C 
BRANCH   8   9
ATOM      9  C   LIG d   1     -18.779  62.486 114.129  0.00  0.00     0.028 C 
ATOM     10  C   LIG d   1     -19.529  61.943 115.356  0.00  0.00     0.006 C 
ENDBRANCH   8   9
BRANCH   8  11
ATOM     11  C   LIG d   1     -19.782  64.268 112.792  0.00  0.00     0.028 C 
ATOM     12  C   LIG d   1     -20.819  65.376 113.036  0.00  0.00     0.006 C 
ENDBRANCH   8  11
ENDBRANCH   7   8
ENDBRANCH   1   7
BRANCH   6  13
ATOM     13  N   LIG d   1     -16.894  64.465 116.726  0.00  0.00    -0.311 N 
ATOM     14  C   LIG d   1     -16.434  63.374 117.335  0.00  0.00     0.210 C 
ATOM     15  C   LIG d   1     -17.382  62.764 118.373  0.00  0.00     0.109 C 
ATOM     16  O   LIG d   1     -15.317  62.871 117.138  0.00  0.00    -0.276 OA
ATOM     17  H   LIG d   1     -17.797  64.822 116.970  0.00  0.00     0.149 HD
ENDBRANCH   6  13
BRANCH   5  18
ATOM     18  N   LIG d   1     -14.285  65.984 117.192  0.00  0.00     0.381 N 
ATOM     19  H   LIG d   1     -13.741  66.781 117.457  0.00  0.00    -0.090 HD
ATOM     20  H   LIG d   1     -13.677  65.326 116.736  0.00  0.00    -0.090 HD
ATOM     21  H   LIG d   1     -14.692  65.567 118.000  0.00  0.00    -0.090 HD
ENDBRANCH   5  18
BRANCH   3  22
ATOM     22  C   LIG d   1     -15.293  68.611 113.316  0.00  0.00     0.382 C 
ATOM     23  O   LIG d   1     -14.145  69.117 113.326  0.00  0.00    -0.241 OA
ATOM     24  O   LIG d   1     -16.203  69.165 112.671  0.00  0.00    -0.241 OA
ENDBRANCH   3  22
TORSDOF 7
ENDMDL
MODEL 3
REMARK VINA RESULT:      -5.0     13.946     16.713
REMARK  7 active torsions:
REMARK  status: ('A' for Active; 'I' for Inactive)
REMARK    1  A    between atoms: C_2  and  C_3 
REMARK    2  A    between atoms: C_3  and  O_6 
REMARK    3  A    between atoms: C_3  and  C_4 
REMARK    4  A    between atoms: C_7  and  O_6 
REMARK    5  A    between atoms: C_9  and  C_10 
REMARK    6  A    between atoms: N_15  and  C_14 
REMARK    7  A    between atoms: N_20  and  C_19 
REMARK       I    between atoms: C_22  and  N_20 
ROOT
ATOM      1  C   LIG d   1      -3.420  75.440 115.803  0.00  0.00     0.161 C 
ATOM      2  C   LIG d   1      -3.695  76.485 114.904  0.00  0.00     0.016 C 
ATOM      3  C   LIG d   1      -2.697  77.149 114.155  0.00  0.00     0.038 C 
ATOM      4  C   LIG d   1      -1.365  76.710 114.141  0.00  0.00     0.028 C 
ATOM      5  C   LIG d   1      -0.953  75.982 115.417  0.00  0.00    -0.047 C 
ATOM      6  C   LIG d   1      -1.988  74.874 115.718  0.00  0.00     0.091 C 
ENDROOT
BRANCH   1   7
ATOM      7  O   LIG d   1      -4.387  74.385 115.635  0.00  0.00    -0.368 OA
BRANCH   7   8
ATOM      8  C   LIG d   1      -5.605  74.506 116.411  0.00  0.00     0.119 C 
BRANCH   8   9
ATOM      9  C   LIG d   1      -5.668  73.299 117.366  0.00  0.00     0.028 C 
ATOM     10  C   LIG d   1      -6.803  72.325 117.006  0.00  0.00     0.006 C 
ENDBRANCH   8   9
BRANCH   8  11
ATOM     11  C   LIG d   1      -6.847  74.386 115.523  0.00  0.00     0.028 C 
ATOM     12  C   LIG d   1      -7.670  75.683 115.471  0.00  0.00     0.006 C 
ENDBRANCH   8  11
ENDBRANCH   7   8
ENDBRANCH   1   7
BRANCH   6  13
ATOM     13  N   LIG d   1      -1.707  74.168 116.995  0.00  0.00    -0.311 N 
ATOM     14  C   LIG d   1      -1.007  73.037 117.069  0.00  0.00     0.210 C 
ATOM     15  C   LIG d   1      -0.851  72.465 118.481  0.00  0.00     0.109 C 
ATOM     16  O   LIG d   1      -0.474  72.470 116.103  0.00  0.00    -0.276 OA
ATOM     17  H   LIG d   1      -2.076  74.575 117.832  0.00  0.00     0.149 HD
ENDBRANCH   6  13
BRANCH   5  18
ATOM     18  N   LIG d   1       0.411  75.460 115.212  0.00  0.00     0.381 N 
ATOM     19  H   LIG d   1       0.826  75.240 116.095  0.00  0.00    -0.090 HD
ATOM     20  H   LIG d   1       0.968  76.170 114.770  0.00  0.00    -0.090 HD
ATOM     21  H   LIG d   1       0.382  74.645 114.639  0.00  0.00    -0.090 HD
ENDBRANCH   5  18
BRANCH   3  22
ATOM     22  C   LIG d   1      -3.021  78.292 113.439  0.00  0.00     0.382 C 
ATOM     23  O   LIG d   1      -3.344  78.203 112.230  0.00  0.00    -0.241 OA
ATOM     24  O   LIG d   1      -2.952  79.414 113.975  0.00  0.00    -0.241 OA
ENDBRANCH   3  22
TORSDOF 7
ENDMDL
MODEL 4
REMARK VINA RESULT:      -5.0      1.889      3.636
REMARK  7 active torsions:
REMARK  status: ('A' for Active; 'I' for Inactive)
REMARK    1  A    between atoms: C_2  and  C_3 
REMARK    2  A    between atoms: C_3  and  O_6 
REMARK    3  A    between atoms: C_3  and  C_4 
REMARK    4  A    between atoms: C_7  and  O_6 
REMARK    5  A    between atoms: C_9  and  C_10 
REMARK    6  A    between atoms: N_15  and  C_14 
REMARK    7  A    between atoms: N_20  and  C_19 
REMARK       I    between atoms: C_22  and  N_20 
ROOT
ATOM      1  C   LIG d   1     -15.445  65.374 115.405  0.00  0.00     0.161 C 
ATOM      2  C   LIG d   1     -15.169  66.678 114.960  0.00  0.00     0.016 C 
ATOM      3  C   LIG d   1     -15.895  67.319 113.930  0.00  0.00     0.038 C 
ATOM      4  C   LIG d   1     -17.052  66.751 113.376  0.00  0.00     0.028 C 
ATOM      5  C   LIG d   1     -17.070  65.228 113.439  0.00  0.00    -0.047 C 
ATOM      6  C   LIG d   1     -16.773  64.782 114.889  0.00  0.00     0.091 C 
ENDROOT
BRANCH   1   7
ATOM      7  O   LIG d   1     -15.403  65.331 116.846  0.00  0.00    -0.368 OA
BRANCH   7   8
ATOM      8  C   LIG d   1     -16.653  65.596 117.528  0.00  0.00     0.119 C 
BRANCH   8   9
ATOM      9  C   LIG d   1     -16.468  66.886 118.349  0.00  0.00     0.028 C 
ATOM     10  C   LIG d   1     -17.240  68.076 117.755  0.00  0.00     0.006 C 
ENDBRANCH   8   9
BRANCH   8  11
ATOM     11  C   LIG d   1     -16.971  64.504 118.554  0.00  0.00     0.028 C 
ATOM     12  C   LIG d   1     -15.935  63.368 118.555  0.00  0.00     0.006 C 
ENDBRANCH   8  11
ENDBRANCH   7   8
ENDBRANCH   1   7
BRANCH   6  13
ATOM     13  N   LIG d   1     -16.688  63.304 115.022  0.00  0.00    -0.311 N 
ATOM     14  C   LIG d   1     -17.718  62.541 115.383  0.00  0.00     0.210 C 
ATOM     15  C   LIG d   1     -17.410  61.043 115.479  0.00  0.00     0.109 C 
ATOM     16  O   LIG d   1     -18.865  62.958 115.602  0.00  0.00    -0.276 OA
ATOM     17  H   LIG d   1     -15.802  62.879 114.832  0.00  0.00     0.149 HD
ENDBRANCH   6  13
BRANCH   5  18
ATOM     18  N   LIG d   1     -18.388  64.777 112.954  0.00  0.00     0.381 N 
ATOM     19  H   LIG d   1     -18.738  65.422 112.274  0.00  0.00    -0.090 HD
ATOM     20  H   LIG d   1     -19.029  64.756 113.728  0.00  0.00    -0.090 HD
ATOM     21  H   LIG d   1     -18.311  63.869 112.552  0.00  0.00    -0.090 HD
ENDBRANCH   5  18
BRANCH   3  22
ATOM     22  C   LIG d   1     -15.442  68.524 113.417  0.00  0.00     0.382 C 
ATOM     23  O   LIG d   1     -16.189  69.212 112.680  0.00  0.00    -0.241 OA
ATOM     24  O   LIG d   1     -14.280  68.911 113.646  0.00  0.00    -0.241 OA
ENDBRANCH   3  22
TORSDOF 7
ENDMDL
MODEL 5
REMARK VINA RESULT:      -5.0     11.252     14.112
REMARK  7 active torsions:
REMARK  status: ('A' for Active; 'I' for Inactive)
REMARK    1  A    between atoms: C_2  and  C_3 
REMARK    2  A    between atoms: C_3  and  O_6 
REMARK    3  A    between atoms: C_3  and  C_4 
REMARK    4  A    between atoms: C_7  and  O_6 
REMARK    5  A    between atoms: C_9  and  C_10 
REMARK    6  A    between atoms: N_15  and  C_14 
REMARK    7  A    between atoms: N_20  and  C_19 
REMARK       I    between atoms: C_22  and  N_20 
ROOT
ATOM      1  C   LIG d   1      -7.126  74.931 117.667  0.00  0.00     0.161 C 
ATOM      2  C   LIG d   1      -8.250  75.744 117.886  0.00  0.00     0.016 C 
ATOM      3  C   LIG d   1      -8.237  77.149 117.728  0.00  0.00     0.038 C 
ATOM      4  C   LIG d   1      -7.132  77.824 117.189  0.00  0.00     0.028 C 
ATOM      5  C   LIG d   1      -5.808  77.107 117.429  0.00  0.00    -0.047 C 
ATOM      6  C   LIG d   1      -5.943  75.637 116.971  0.00  0.00     0.091 C 
ENDROOT
BRANCH   1   7
ATOM      7  O   LIG d   1      -7.511  73.754 116.929  0.00  0.00    -0.368 OA
BRANCH   7   8
ATOM      8  C   LIG d   1      -8.213  72.733 117.679  0.00  0.00     0.119 C 
BRANCH   8   9
ATOM      9  C   LIG d   1      -7.352  71.456 117.642  0.00  0.00     0.028 C 
ATOM     10  C   LIG d   1      -7.542  70.658 116.341  0.00  0.00     0.006 C 
ENDBRANCH   8   9
BRANCH   8  11
ATOM     11  C   LIG d   1      -9.533  72.352 117.002  0.00  0.00     0.028 C 
ATOM     12  C   LIG d   1     -10.723  72.351 117.974  0.00  0.00     0.006 C 
ENDBRANCH   8  11
ENDBRANCH   7   8
ENDBRANCH   1   7
BRANCH   6  13
ATOM     13  N   LIG d   1      -4.719  74.842 117.249  0.00  0.00    -0.311 N 
ATOM     14  C   LIG d   1      -3.951  74.321 116.293  0.00  0.00     0.210 C 
ATOM     15  C   LIG d   1      -2.747  73.519 116.797  0.00  0.00     0.109 C 
ATOM     16  O   LIG d   1      -4.135  74.473 115.076  0.00  0.00    -0.276 OA
ATOM     17  H   LIG d   1      -4.478  74.696 118.210  0.00  0.00     0.149 HD
ENDBRANCH   6  13
BRANCH   5  18
ATOM     18  N   LIG d   1      -4.762  77.847 116.698  0.00  0.00     0.381 N 
ATOM     19  H   LIG d   1      -5.095  78.093 115.787  0.00  0.00    -0.090 HD
ATOM     20  H   LIG d   1      -3.959  77.252 116.589  0.00  0.00    -0.090 HD
ATOM     21  H   LIG d   1      -4.510  78.668 117.201  0.00  0.00    -0.090 HD
ENDBRANCH   5  18
BRANCH   3  22
ATOM     22  C   LIG d   1      -9.326  77.898 118.148  0.00  0.00     0.382 C 
ATOM     23  O   LIG d   1     -10.423  77.335 118.380  0.00  0.00    -0.241 OA
ATOM     24  O   LIG d   1      -9.237  79.136 118.256  0.00  0.00    -0.241 OA
ENDBRANCH   3  22
TORSDOF 7
ENDMDL
MODEL 6
REMARK VINA RESULT:      -4.8     13.310     16.853
REMARK  7 active torsions:
REMARK  status: ('A' for Active; 'I' for Inactive)
REMARK    1  A    between atoms: C_2  and  C_3 
REMARK    2  A    between atoms: C_3  and  O_6 
REMARK    3  A    between atoms: C_3  and  C_4 
REMARK    4  A    between atoms: C_7  and  O_6 
REMARK    5  A    between atoms: C_9  and  C_10 
REMARK    6  A    between atoms: N_15  and  C_14 
REMARK    7  A    between atoms: N_20  and  C_19 
REMARK       I    between atoms: C_22  and  N_20 
ROOT
ATOM      1  C   LIG d   1      -3.761  75.128 116.765  0.00  0.00     0.161 C 
ATOM      2  C   LIG d   1      -4.522  74.059 117.264  0.00  0.00     0.016 C 
ATOM      3  C   LIG d   1      -5.651  73.529 116.598  0.00  0.00     0.038 C 
ATOM      4  C   LIG d   1      -6.008  73.937 115.304  0.00  0.00     0.028 C 
ATOM      5  C   LIG d   1      -5.571  75.361 114.976  0.00  0.00    -0.047 C 
ATOM      6  C   LIG d   1      -4.068  75.513 115.302  0.00  0.00     0.091 C 
ENDROOT
BRANCH   1   7
ATOM      7  O   LIG d   1      -2.357  74.845 116.924  0.00  0.00    -0.368 OA
BRANCH   7   8
ATOM      8  C   LIG d   1      -1.879  73.624 116.308  0.00  0.00     0.119 C 
BRANCH   8   9
ATOM      9  C   LIG d   1      -1.049  72.867 117.363  0.00  0.00     0.028 C 
ATOM     10  C   LIG d   1       0.123  73.707 117.900  0.00  0.00     0.006 C 
ENDBRANCH   8   9
BRANCH   8  11
ATOM     11  C   LIG d   1      -0.906  73.921 115.163  0.00  0.00     0.028 C 
ATOM     12  C   LIG d   1      -0.540  72.667 114.352  0.00  0.00     0.006 C 
ENDBRANCH   8  11
ENDBRANCH   7   8
ENDBRANCH   1   7
BRANCH   6  13
ATOM     13  N   LIG d   1      -3.579  76.900 115.089  0.00  0.00    -0.311 N 
ATOM     14  C   LIG d   1      -3.086  77.334 113.931  0.00  0.00     0.210 C 
ATOM     15  C   LIG d   1      -2.620  78.793 113.933  0.00  0.00     0.109 C 
ATOM     16  O   LIG d   1      -3.020  76.659 112.893  0.00  0.00    -0.276 OA
ATOM     17  H   LIG d   1      -3.625  77.525 115.871  0.00  0.00     0.149 HD
ENDBRANCH   6  13
BRANCH   5  18
ATOM     18  N   LIG d   1      -5.883  75.606 113.556  0.00  0.00     0.381 N 
ATOM     19  H   LIG d   1      -5.434  74.917 112.986  0.00  0.00    -0.090 HD
ATOM     20  H   LIG d   1      -5.528  76.510 113.296  0.00  0.00    -0.090 HD
ATOM     21  H   LIG d   1      -6.868  75.575 113.412  0.00  0.00    -0.090 HD
ENDBRANCH   5  18
BRANCH   3  22
ATOM     22  C   LIG d   1      -6.461  72.607 117.245  0.00  0.00     0.382 C 
ATOM     23  O   LIG d   1      -7.242  71.885 116.580  0.00  0.00    -0.241 OA
ATOM     24  O   LIG d   1      -6.452  72.520 118.487  0.00  0.00    -0.241 OA
ENDBRANCH   3  22
TORSDOF 7
ENDMDL
MODEL 7
REMARK VINA RESULT:      -4.8     25.355     27.790
REMARK  7 active torsions:
REMARK  status: ('A' for Active; 'I' for Inactive)
REMARK    1  A    between atoms: C_2  and  C_3 
REMARK    2  A    between atoms: C_3  and  O_6 
REMARK    3  A    between atoms: C_3  and  C_4 
REMARK    4  A    between atoms: C_7  and  O_6 
REMARK    5  A    between atoms: C_9  and  C_10 
REMARK    6  A    between atoms: N_15  and  C_14 
REMARK    7  A    between atoms: N_20  and  C_19 
REMARK       I    between atoms: C_22  and  N_20 
ROOT
ATOM      1  C   LIG d   1       2.823  84.851 113.933  0.00  0.00     0.161 C 
ATOM      2  C   LIG d   1       2.666  86.016 113.164  0.00  0.00     0.016 C 
ATOM      3  C   LIG d   1       3.365  87.218 113.420  0.00  0.00     0.038 C 
ATOM      4  C   LIG d   1       4.388  87.291 114.376  0.00  0.00     0.028 C 
ATOM      5  C   LIG d   1       4.229  86.286 115.512  0.00  0.00    -0.047 C 
ATOM      6  C   LIG d   1       4.017  84.878 114.911  0.00  0.00     0.091 C 
ENDROOT
BRANCH   1   7
ATOM      7  O   LIG d   1       2.911  83.702 113.067  0.00  0.00    -0.368 OA
BRANCH   7   8
ATOM      8  C   LIG d   1       1.759  82.823 113.055  0.00  0.00     0.119 C 
BRANCH   8   9
ATOM      9  C   LIG d   1       2.281  81.378 112.940  0.00  0.00     0.028 C 
ATOM     10  C   LIG d   1       2.520  80.729 114.314  0.00  0.00     0.006 C 
ENDBRANCH   8   9
BRANCH   8  11
ATOM     11  C   LIG d   1       0.902  83.045 111.805  0.00  0.00     0.028 C 
ATOM     12  C   LIG d   1      -0.382  83.839 112.097  0.00  0.00     0.006 C 
ENDBRANCH   8  11
ENDBRANCH   7   8
ENDBRANCH   1   7
BRANCH   6  13
ATOM     13  N   LIG d   1       3.768  83.848 115.952  0.00  0.00    -0.311 N 
ATOM     14  C   LIG d   1       4.734  83.119 116.509  0.00  0.00     0.210 C 
ATOM     15  C   LIG d   1       4.258  82.099 117.548  0.00  0.00     0.109 C 
ATOM     16  O   LIG d   1       5.943  83.244 116.264  0.00  0.00    -0.276 OA
ATOM     17  H   LIG d   1       2.818  83.703 116.233  0.00  0.00     0.149 HD
ENDBRANCH   6  13
BRANCH   5  18
ATOM     18  N   LIG d   1       5.432  86.377 116.361  0.00  0.00     0.381 N 
ATOM     19  H   LIG d   1       5.652  87.337 116.534  0.00  0.00    -0.090 HD
ATOM     20  H   LIG d   1       6.205  85.959 115.874  0.00  0.00    -0.090 HD
ATOM     21  H   LIG d   1       5.278  85.903 117.223  0.00  0.00    -0.090 HD
ENDBRANCH   5  18
BRANCH   3  22
ATOM     22  C   LIG d   1       3.014  88.375 112.741  0.00  0.00     0.382 C 
ATOM     23  O   LIG d   1       1.945  88.417 112.086  0.00  0.00    -0.241 OA
ATOM     24  O   LIG d   1       3.774  89.362 112.740  0.00  0.00    -0.241 OA
ENDBRANCH   3  22
TORSDOF 7
ENDMDL
MODEL 8
REMARK VINA RESULT:      -4.6     10.738     14.303
REMARK  7 active torsions:
REMARK  status: ('A' for Active; 'I' for Inactive)
REMARK    1  A    between atoms: C_2  and  C_3 
REMARK    2  A    between atoms: C_3  and  O_6 
REMARK    3  A    between atoms: C_3  and  C_4 
REMARK    4  A    between atoms: C_7  and  O_6 
REMARK    5  A    between atoms: C_9  and  C_10 
REMARK    6  A    between atoms: N_15  and  C_14 
REMARK    7  A    between atoms: N_20  and  C_19 
REMARK       I    between atoms: C_22  and  N_20 
ROOT
ATOM      1  C   LIG d   1      -6.900  74.344 117.650  0.00  0.00     0.161 C 
ATOM      2  C   LIG d   1      -7.142  72.989 117.370  0.00  0.00     0.016 C 
ATOM      3  C   LIG d   1      -8.417  72.480 117.031  0.00  0.00     0.038 C 
ATOM      4  C   LIG d   1      -9.514  73.323 116.800  0.00  0.00     0.028 C 
ATOM      5  C   LIG d   1      -9.436  74.642 117.562  0.00  0.00    -0.047 C 
ATOM      6  C   LIG d   1      -8.061  75.295 117.294  0.00  0.00     0.091 C 
ENDROOT
BRANCH   1   7
ATOM      7  O   LIG d   1      -5.687  74.768 116.997  0.00  0.00    -0.368 OA
BRANCH   7   8
ATOM      8  C   LIG d   1      -4.947  73.738 116.295  0.00  0.00     0.119 C 
BRANCH   8   9
ATOM      9  C   LIG d   1      -3.527  73.699 116.893  0.00  0.00     0.028 C 
ATOM     10  C   LIG d   1      -2.451  74.114 115.876  0.00  0.00     0.006 C 
ENDBRANCH   8   9
BRANCH   8  11
ATOM     11  C   LIG d   1      -4.756  74.098 114.819  0.00  0.00     0.028 C 
ATOM     12  C   LIG d   1      -5.995  74.766 114.203  0.00  0.00     0.006 C 
ENDBRANCH   8  11
ENDBRANCH   7   8
ENDBRANCH   1   7
BRANCH   6  13
ATOM     13  N   LIG d   1      -7.869  76.549 118.069  0.00  0.00    -0.311 N 
ATOM     14  C   LIG d   1      -7.251  77.624 117.582  0.00  0.00     0.210 C 
ATOM     15  C   LIG d   1      -7.142  78.803 118.555  0.00  0.00     0.109 C 
ATOM     16  O   LIG d   1      -6.811  77.725 116.427  0.00  0.00    -0.276 OA
ATOM     17  H   LIG d   1      -8.222  76.565 119.006  0.00  0.00     0.149 HD
ENDBRANCH   6  13
BRANCH   5  18
ATOM     18  N   LIG d   1     -10.569  75.478 117.124  0.00  0.00     0.381 N 
ATOM     19  H   LIG d   1     -10.370  76.441 117.306  0.00  0.00    -0.090 HD
ATOM     20  H   LIG d   1     -11.386  75.220 117.649  0.00  0.00    -0.090 HD
ATOM     21  H   LIG d   1     -10.735  75.344 116.151  0.00  0.00    -0.090 HD
ENDBRANCH   5  18
BRANCH   3  22
ATOM     22  C   LIG d   1      -8.614  71.109 116.960  0.00  0.00     0.382 C 
ATOM     23  O   LIG d   1      -9.749  70.626 117.185  0.00  0.00    -0.241 OA
ATOM     24  O   LIG d   1      -7.660  70.346 116.716  0.00  0.00    -0.241 OA
ENDBRANCH   3  22
TORSDOF 7
ENDMDL
MODEL 9
REMARK VINA RESULT:      -4.4      1.790      1.921
REMARK  7 active torsions:
REMARK  status: ('A' for Active; 'I' for Inactive)
REMARK    1  A    between atoms: C_2  and  C_3 
REMARK    2  A    between atoms: C_3  and  O_6 
REMARK    3  A    between atoms: C_3  and  C_4 
REMARK    4  A    between atoms: C_7  and  O_6 
REMARK    5  A    between atoms: C_9  and  C_10 
REMARK    6  A    between atoms: N_15  and  C_14 
REMARK    7  A    between atoms: N_20  and  C_19 
REMARK       I    between atoms: C_22  and  N_20 
ROOT
ATOM      1  C   LIG d   1     -17.400  66.080 114.598  0.00  0.00     0.161 C 
ATOM      2  C   LIG d   1     -16.840  67.050 113.751  0.00  0.00     0.016 C 
ATOM      3  C   LIG d   1     -15.571  67.634 113.969  0.00  0.00     0.038 C 
ATOM      4  C   LIG d   1     -14.705  67.174 114.972  0.00  0.00     0.028 C 
ATOM      5  C   LIG d   1     -15.431  66.548 116.158  0.00  0.00    -0.047 C 
ATOM      6  C   LIG d   1     -16.424  65.485 115.635  0.00  0.00     0.091 C 
ENDROOT
BRANCH   1   7
ATOM      7  O   LIG d   1     -17.996  65.030 113.811  0.00  0.00    -0.368 OA
BRANCH   7   8
ATOM      8  C   LIG d   1     -19.373  65.238 113.409  0.00  0.00     0.119 C 
BRANCH   8   9
ATOM      9  C   LIG d   1     -20.254  65.046 114.659  0.00  0.00     0.028 C 
ATOM     10  C   LIG d   1     -21.501  65.946 114.641  0.00  0.00     0.006 C 
ENDBRANCH   8   9
BRANCH   8  11
ATOM     11  C   LIG d   1     -19.833  64.162 112.420  0.00  0.00     0.028 C 
ATOM     12  C   LIG d   1     -20.136  62.818 113.100  0.00  0.00     0.006 C 
ENDBRANCH   8  11
ENDBRANCH   7   8
ENDBRANCH   1   7
BRANCH   6  13
ATOM     13  N   LIG d   1     -17.237  64.884 116.724  0.00  0.00    -0.311 N 
ATOM     14  C   LIG d   1     -18.092  65.580 117.470  0.00  0.00     0.210 C 
ATOM     15  C   LIG d   1     -18.814  64.770 118.552  0.00  0.00     0.109 C 
ATOM     16  O   LIG d   1     -18.346  66.784 117.318  0.00  0.00    -0.276 OA
ATOM     17  H   LIG d   1     -17.116  63.904 116.895  0.00  0.00     0.149 HD
ENDBRANCH   6  13
BRANCH   5  18
ATOM     18  N   LIG d   1     -14.409  65.989 117.062  0.00  0.00     0.381 N 
ATOM     19  H   LIG d   1     -13.937  65.230 116.612  0.00  0.00    -0.090 HD
ATOM     20  H   LIG d   1     -14.862  65.635 117.886  0.00  0.00    -0.090 HD
ATOM     21  H   LIG d   1     -13.752  66.695 117.313  0.00  0.00    -0.090 HD
ENDBRANCH   5  18
BRANCH   3  22
ATOM     22  C   LIG d   1     -15.172  68.719 113.202  0.00  0.00     0.382 C 
ATOM     23  O   LIG d   1     -13.988  69.129 113.264  0.00  0.00    -0.241 OA
ATOM     24  O   LIG d   1     -15.993  69.319 112.482  0.00  0.00    -0.241 OA
ENDBRANCH   3  22
TORSDOF 7
ENDMDL
