MODEL 1
REMARK VINA RESULT:      -4.8      0.000      0.000
REMARK  7 active torsions:
REMARK  status: ('A' for Active; 'I' for Inactive)
REMARK    1  A    between atoms: C_2  and  C_3 
REMARK    2  A    between atoms: C_3  and  O_6 
REMARK    3  A    between atoms: C_3  and  C_4 
REMARK    4  A    between atoms: C_7  and  O_6 
REMARK    5  A    between atoms: C_9  and  C_10 
REMARK    6  A    between atoms: N_15  and  C_14 
REMARK    7  A    between atoms: N_20  and  C_19 
REMARK       I    between atoms: C_22  and  N_20 
ROOT
ATOM      1  C   LIG d   1      -6.815  75.430 117.898  0.00  0.00     0.161 C 
ATOM      2  C   LIG d   1      -8.127  74.936 117.996  0.00  0.00     0.016 C 
ATOM      3  C   LIG d   1      -9.275  75.758 117.932  0.00  0.00     0.038 C 
ATOM      4  C   LIG d   1      -9.194  77.121 117.612  0.00  0.00     0.028 C 
ATOM      5  C   LIG d   1      -7.865  77.757 118.004  0.00  0.00    -0.047 C 
ATOM      6  C   LIG d   1      -6.711  76.899 117.437  0.00  0.00     0.091 C 
ENDROOT
BRANCH   1   7
ATOM      7  O   LIG d   1      -6.035  74.578 117.036  0.00  0.00    -0.368 OA
BRANCH   7   8
ATOM      8  C   LIG d   1      -6.708  74.079 115.854  0.00  0.00     0.119 C 
BRANCH   8   9
ATOM      9  C   LIG d   1      -6.488  72.555 115.804  0.00  0.00     0.028 C 
ATOM     10  C   LIG d   1      -7.720  71.768 116.282  0.00  0.00     0.006 C 
ENDBRANCH   8   9
BRANCH   8  11
ATOM     11  C   LIG d   1      -6.065  74.624 114.575  0.00  0.00     0.028 C 
ATOM     12  C   LIG d   1      -4.633  75.134 114.799  0.00  0.00     0.006 C 
ENDBRANCH   8  11
ENDBRANCH   7   8
ENDBRANCH   1   7
BRANCH   6  13
ATOM     13  N   LIG d   1      -5.374  77.405 117.845  0.00  0.00    -0.311 N 
ATOM     14  C   LIG d   1      -4.612  78.173 117.069  0.00  0.00     0.210 C 
ATOM     15  C   LIG d   1      -3.262  78.567 117.675  0.00  0.00     0.109 C 
ATOM     16  O   LIG d   1      -4.941  78.592 115.949  0.00  0.00    -0.276 OA
ATOM     17  H   LIG d   1      -5.044  77.138 118.752  0.00  0.00     0.149 HD
ENDBRANCH   6  13
BRANCH   5  18
ATOM     18  N   LIG d   1      -7.863  79.140 117.489  0.00  0.00     0.381 N 
ATOM     19  H   LIG d   1      -7.391  79.173 116.608  0.00  0.00    -0.090 HD
ATOM     20  H   LIG d   1      -7.366  79.727 118.135  0.00  0.00    -0.090 HD
ATOM     21  H   LIG d   1      -8.799  79.466 117.385  0.00  0.00    -0.090 HD
ENDBRANCH   5  18
BRANCH   3  22
ATOM     22  C   LIG d   1     -10.520  75.224 118.230  0.00  0.00     0.382 C 
ATOM     23  O   LIG d   1     -11.536  75.959 118.216  0.00  0.00    -0.241 OA
ATOM     24  O   LIG d   1     -10.632  74.027 118.555  0.00  0.00    -0.241 OA
ENDBRANCH   3  22
TORSDOF 7
ENDMDL
MODEL 2
REMARK VINA RESULT:      -4.8      2.034      2.690
REMARK  7 active torsions:
REMARK  status: ('A' for Active; 'I' for Inactive)
REMARK    1  A    between atoms: C_2  and  C_3 
REMARK    2  A    between atoms: C_3  and  O_6 
REMARK    3  A    between atoms: C_3  and  C_4 
REMARK    4  A    between atoms: C_7  and  O_6 
REMARK    5  A    between atoms: C_9  and  C_10 
REMARK    6  A    between atoms: N_15  and  C_14 
REMARK    7  A    between atoms: N_20  and  C_19 
REMARK       I    between atoms: C_22  and  N_20 
ROOT
ATOM      1  C   LIG d   1      -5.836  77.368 116.382  0.00  0.00     0.161 C 
ATOM      2  C   LIG d   1      -7.154  77.146 116.816  0.00  0.00     0.016 C 
ATOM      3  C   LIG d   1      -7.911  78.106 117.526  0.00  0.00     0.038 C 
ATOM      4  C   LIG d   1      -7.452  79.418 117.720  0.00  0.00     0.028 C 
ATOM      5  C   LIG d   1      -5.931  79.529 117.742  0.00  0.00    -0.047 C 
ATOM      6  C   LIG d   1      -5.358  78.831 116.487  0.00  0.00     0.091 C 
ENDROOT
BRANCH   1   7
ATOM      7  O   LIG d   1      -5.678  76.885 115.034  0.00  0.00    -0.368 OA
BRANCH   7   8
ATOM      8  C   LIG d   1      -4.834  75.718 114.869  0.00  0.00     0.119 C 
BRANCH   8   9
ATOM      9  C   LIG d   1      -5.735  74.556 114.411  0.00  0.00     0.028 C 
ATOM     10  C   LIG d   1      -6.223  73.692 115.587  0.00  0.00     0.006 C 
ENDBRANCH   8   9
BRANCH   8  11
ATOM     11  C   LIG d   1      -4.240  75.268 116.207  0.00  0.00     0.028 C 
ATOM     12  C   LIG d   1      -2.703  75.280 116.210  0.00  0.00     0.006 C 
ENDBRANCH   8  11
ENDBRANCH   7   8
ENDBRANCH   1   7
BRANCH   6  13
ATOM     13  N   LIG d   1      -3.872  78.821 116.473  0.00  0.00    -0.311 N 
ATOM     14  C   LIG d   1      -3.145  79.376 115.505  0.00  0.00     0.210 C 
ATOM     15  C   LIG d   1      -1.629  79.235 115.674  0.00  0.00     0.109 C 
ATOM     16  O   LIG d   1      -3.610  80.000 114.539  0.00  0.00    -0.276 OA
ATOM     17  H   LIG d   1      -3.412  78.363 117.235  0.00  0.00     0.149 HD
ENDBRANCH   6  13
BRANCH   5  18
ATOM     18  N   LIG d   1      -5.591  80.963 117.812  0.00  0.00     0.381 N 
ATOM     19  H   LIG d   1      -6.415  81.498 117.996  0.00  0.00    -0.090 HD
ATOM     20  H   LIG d   1      -5.219  81.253 116.924  0.00  0.00    -0.090 HD
ATOM     21  H   LIG d   1      -4.917  81.119 118.529  0.00  0.00    -0.090 HD
ENDBRANCH   5  18
BRANCH   3  22
ATOM     22  C   LIG d   1      -9.127  77.745 118.086  0.00  0.00     0.382 C 
ATOM     23  O   LIG d   1     -10.003  78.618 118.298  0.00  0.00    -0.241 OA
ATOM     24  O   LIG d   1      -9.343  76.565 118.422  0.00  0.00    -0.241 OA
ENDBRANCH   3  22
TORSDOF 7
ENDMDL
MODEL 3
REMARK VINA RESULT:      -4.7      3.414      6.371
REMARK  7 active torsions:
REMARK  status: ('A' for Active; 'I' for Inactive)
REMARK    1  A    between atoms: C_2  and  C_3 
REMARK    2  A    between atoms: C_3  and  O_6 
REMARK    3  A    between atoms: C_3  and  C_4 
REMARK    4  A    between atoms: C_7  and  O_6 
REMARK    5  A    between atoms: C_9  and  C_10 
REMARK    6  A    between atoms: N_15  and  C_14 
REMARK    7  A    between atoms: N_20  and  C_19 
REMARK       I    between atoms: C_22  and  N_20 
ROOT
ATOM      1  C   LIG d   1      -3.618  76.429 114.661  0.00  0.00     0.161 C 
ATOM      2  C   LIG d   1      -2.966  77.641 114.380  0.00  0.00     0.016 C 
ATOM      3  C   LIG d   1      -3.304  78.868 114.997  0.00  0.00     0.038 C 
ATOM      4  C   LIG d   1      -4.223  78.937 116.055  0.00  0.00     0.028 C 
ATOM      5  C   LIG d   1      -5.267  77.826 116.024  0.00  0.00    -0.047 C 
ATOM      6  C   LIG d   1      -4.548  76.464 115.892  0.00  0.00     0.091 C 
ENDROOT
BRANCH   1   7
ATOM      7  O   LIG d   1      -2.648  75.372 114.796  0.00  0.00    -0.368 OA
BRANCH   7   8
ATOM      8  C   LIG d   1      -1.346  75.762 115.297  0.00  0.00     0.119 C 
BRANCH   8   9
ATOM      9  C   LIG d   1      -0.296  74.878 114.596  0.00  0.00     0.028 C 
ATOM     10  C   LIG d   1      -0.523  73.380 114.855  0.00  0.00     0.006 C 
ENDBRANCH   8   9
BRANCH   8  11
ATOM     11  C   LIG d   1      -1.206  75.451 116.790  0.00  0.00     0.028 C 
ATOM     12  C   LIG d   1      -1.348  76.699 117.675  0.00  0.00     0.006 C 
ENDBRANCH   8  11
ENDBRANCH   7   8
ENDBRANCH   1   7
BRANCH   6  13
ATOM     13  N   LIG d   1      -5.500  75.330 115.770  0.00  0.00    -0.311 N 
ATOM     14  C   LIG d   1      -5.301  74.142 116.339  0.00  0.00     0.210 C 
ATOM     15  C   LIG d   1      -6.397  73.105 116.071  0.00  0.00     0.109 C 
ATOM     16  O   LIG d   1      -4.338  73.858 117.067  0.00  0.00    -0.276 OA
ATOM     17  H   LIG d   1      -6.324  75.482 115.222  0.00  0.00     0.149 HD
ENDBRANCH   6  13
BRANCH   5  18
ATOM     18  N   LIG d   1      -6.073  77.937 117.254  0.00  0.00     0.381 N 
ATOM     19  H   LIG d   1      -6.954  77.480 117.125  0.00  0.00    -0.090 HD
ATOM     20  H   LIG d   1      -6.247  78.909 117.442  0.00  0.00    -0.090 HD
ATOM     21  H   LIG d   1      -5.586  77.525 118.019  0.00  0.00    -0.090 HD
ENDBRANCH   5  18
BRANCH   3  22
ATOM     22  C   LIG d   1      -2.749  80.049 114.529  0.00  0.00     0.382 C 
ATOM     23  O   LIG d   1      -3.401  80.782 113.747  0.00  0.00    -0.241 OA
ATOM     24  O   LIG d   1      -1.586  80.368 114.843  0.00  0.00    -0.241 OA
ENDBRANCH   3  22
TORSDOF 7
ENDMDL
MODEL 4
REMARK VINA RESULT:      -4.7      2.804      5.086
REMARK  7 active torsions:
REMARK  status: ('A' for Active; 'I' for Inactive)
REMARK    1  A    between atoms: C_2  and  C_3 
REMARK    2  A    between atoms: C_3  and  O_6 
REMARK    3  A    between atoms: C_3  and  C_4 
REMARK    4  A    between atoms: C_7  and  O_6 
REMARK    5  A    between atoms: C_9  and  C_10 
REMARK    6  A    between atoms: N_15  and  C_14 
REMARK    7  A    between atoms: N_20  and  C_19 
REMARK       I    between atoms: C_22  and  N_20 
ROOT
ATOM      1  C   LIG d   1      -4.417  77.323 115.644  0.00  0.00     0.161 C 
ATOM      2  C   LIG d   1      -4.637  76.069 115.052  0.00  0.00     0.016 C 
ATOM      3  C   LIG d   1      -5.834  75.332 115.210  0.00  0.00     0.038 C 
ATOM      4  C   LIG d   1      -6.958  75.873 115.852  0.00  0.00     0.028 C 
ATOM      5  C   LIG d   1      -6.609  76.929 116.896  0.00  0.00    -0.047 C 
ATOM      6  C   LIG d   1      -5.673  77.979 116.255  0.00  0.00     0.091 C 
ENDROOT
BRANCH   1   7
ATOM      7  O   LIG d   1      -3.802  78.212 114.690  0.00  0.00    -0.368 OA
BRANCH   7   8
ATOM      8  C   LIG d   1      -2.428  77.916 114.337  0.00  0.00     0.119 C 
BRANCH   8   9
ATOM      9  C   LIG d   1      -1.530  78.496 115.446  0.00  0.00     0.028 C 
ATOM     10  C   LIG d   1      -1.136  79.958 115.178  0.00  0.00     0.006 C 
ENDBRANCH   8   9
BRANCH   8  11
ATOM     11  C   LIG d   1      -2.013  78.646 113.056  0.00  0.00     0.028 C 
ATOM     12  C   LIG d   1      -2.724  78.105 111.805  0.00  0.00     0.006 C 
ENDBRANCH   8  11
ENDBRANCH   7   8
ENDBRANCH   1   7
BRANCH   6  13
ATOM     13  N   LIG d   1      -5.216  79.002 117.232  0.00  0.00    -0.311 N 
ATOM     14  C   LIG d   1      -5.829  80.170 117.410  0.00  0.00     0.210 C 
ATOM     15  C   LIG d   1      -5.182  81.088 118.453  0.00  0.00     0.109 C 
ATOM     16  O   LIG d   1      -6.866  80.521 116.827  0.00  0.00    -0.276 OA
ATOM     17  H   LIG d   1      -4.400  78.786 117.770  0.00  0.00     0.149 HD
ENDBRANCH   6  13
BRANCH   5  18
ATOM     18  N   LIG d   1      -7.875  77.505 117.386  0.00  0.00     0.381 N 
ATOM     19  H   LIG d   1      -8.250  76.930 118.114  0.00  0.00    -0.090 HD
ATOM     20  H   LIG d   1      -8.536  77.528 116.630  0.00  0.00    -0.090 HD
ATOM     21  H   LIG d   1      -7.719  78.428 117.729  0.00  0.00    -0.090 HD
ENDBRANCH   5  18
BRANCH   3  22
ATOM     22  C   LIG d   1      -5.900  74.024 114.757  0.00  0.00     0.382 C 
ATOM     23  O   LIG d   1      -6.555  73.170 115.402  0.00  0.00    -0.241 OA
ATOM     24  O   LIG d   1      -5.278  73.676 113.735  0.00  0.00    -0.241 OA
ENDBRANCH   3  22
TORSDOF 7
ENDMDL
MODEL 5
REMARK VINA RESULT:      -4.6      2.686      4.293
REMARK  7 active torsions:
REMARK  status: ('A' for Active; 'I' for Inactive)
REMARK    1  A    between atoms: C_2  and  C_3 
REMARK    2  A    between atoms: C_3  and  O_6 
REMARK    3  A    between atoms: C_3  and  C_4 
REMARK    4  A    between atoms: C_7  and  O_6 
REMARK    5  A    between atoms: C_9  and  C_10 
REMARK    6  A    between atoms: N_15  and  C_14 
REMARK    7  A    between atoms: N_20  and  C_19 
REMARK       I    between atoms: C_22  and  N_20 
ROOT
ATOM      1  C   LIG d   1      -5.661  76.979 116.940  0.00  0.00     0.161 C 
ATOM      2  C   LIG d   1      -6.557  78.039 117.158  0.00  0.00     0.016 C 
ATOM      3  C   LIG d   1      -6.191  79.401 117.057  0.00  0.00     0.038 C 
ATOM      4  C   LIG d   1      -4.933  79.797 116.579  0.00  0.00     0.028 C 
ATOM      5  C   LIG d   1      -3.838  78.767 116.831  0.00  0.00    -0.047 C 
ATOM      6  C   LIG d   1      -4.314  77.391 116.311  0.00  0.00     0.091 C 
ENDROOT
BRANCH   1   7
ATOM      7  O   LIG d   1      -6.295  75.959 116.144  0.00  0.00    -0.368 OA
BRANCH   7   8
ATOM      8  C   LIG d   1      -6.486  74.675 116.788  0.00  0.00     0.119 C 
BRANCH   8   9
ATOM      9  C   LIG d   1      -6.454  73.596 115.689  0.00  0.00     0.028 C 
ATOM     10  C   LIG d   1      -5.704  74.063 114.430  0.00  0.00     0.006 C 
ENDBRANCH   8   9
BRANCH   8  11
ATOM     11  C   LIG d   1      -7.877  74.570 117.420  0.00  0.00     0.028 C 
ATOM     12  C   LIG d   1      -8.338  73.116 117.606  0.00  0.00     0.006 C 
ENDBRANCH   8  11
ENDBRANCH   7   8
ENDBRANCH   1   7
BRANCH   6  13
ATOM     13  N   LIG d   1      -3.335  76.309 116.594  0.00  0.00    -0.311 N 
ATOM     14  C   LIG d   1      -2.656  75.668 115.644  0.00  0.00     0.210 C 
ATOM     15  C   LIG d   1      -1.713  74.572 116.151  0.00  0.00     0.109 C 
ATOM     16  O   LIG d   1      -2.720  75.926 114.432  0.00  0.00    -0.276 OA
ATOM     17  H   LIG d   1      -3.198  76.057 117.553  0.00  0.00     0.149 HD
ENDBRANCH   6  13
BRANCH   5  18
ATOM     18  N   LIG d   1      -2.613  79.246 116.163  0.00  0.00     0.381 N 
ATOM     19  H   LIG d   1      -2.526  78.814 115.265  0.00  0.00    -0.090 HD
ATOM     20  H   LIG d   1      -1.817  78.983 116.717  0.00  0.00    -0.090 HD
ATOM     21  H   LIG d   1      -2.645  80.236 116.062  0.00  0.00    -0.090 HD
ENDBRANCH   5  18
BRANCH   3  22
ATOM     22  C   LIG d   1      -7.077  80.383 117.473  0.00  0.00     0.382 C 
ATOM     23  O   LIG d   1      -7.233  81.420 116.784  0.00  0.00    -0.241 OA
ATOM     24  O   LIG d   1      -7.689  80.266 118.552  0.00  0.00    -0.241 OA
ENDBRANCH   3  22
TORSDOF 7
ENDMDL
MODEL 6
REMARK VINA RESULT:      -4.6      1.729      2.127
REMARK  7 active torsions:
REMARK  status: ('A' for Active; 'I' for Inactive)
REMARK    1  A    between atoms: C_2  and  C_3 
REMARK    2  A    between atoms: C_3  and  O_6 
REMARK    3  A    between atoms: C_3  and  C_4 
REMARK    4  A    between atoms: C_7  and  O_6 
REMARK    5  A    between atoms: C_9  and  C_10 
REMARK    6  A    between atoms: N_15  and  C_14 
REMARK    7  A    between atoms: N_20  and  C_19 
REMARK       I    between atoms: C_22  and  N_20 
ROOT
ATOM      1  C   LIG d   1      -6.583  76.075 117.827  0.00  0.00     0.161 C 
ATOM      2  C   LIG d   1      -7.446  74.967 117.832  0.00  0.00     0.016 C 
ATOM      3  C   LIG d   1      -8.850  75.075 117.954  0.00  0.00     0.038 C 
ATOM      4  C   LIG d   1      -9.503  76.316 117.928  0.00  0.00     0.028 C 
ATOM      5  C   LIG d   1      -8.638  77.467 118.432  0.00  0.00    -0.047 C 
ATOM      6  C   LIG d   1      -7.285  77.441 117.685  0.00  0.00     0.091 C 
ENDROOT
BRANCH   1   7
ATOM      7  O   LIG d   1      -5.587  75.914 116.797  0.00  0.00    -0.368 OA
BRANCH   7   8
ATOM      8  C   LIG d   1      -5.398  74.567 116.298  0.00  0.00     0.119 C 
BRANCH   8   9
ATOM      9  C   LIG d   1      -3.975  74.123 116.692  0.00  0.00     0.028 C 
ATOM     10  C   LIG d   1      -2.921  74.543 115.654  0.00  0.00     0.006 C 
ENDBRANCH   8   9
BRANCH   8  11
ATOM     11  C   LIG d   1      -5.425  74.530 114.768  0.00  0.00     0.028 C 
ATOM     12  C   LIG d   1      -6.316  75.625 114.161  0.00  0.00     0.006 C 
ENDBRANCH   8  11
ENDBRANCH   7   8
ENDBRANCH   1   7
BRANCH   6  13
ATOM     13  N   LIG d   1      -6.346  78.483 118.178  0.00  0.00    -0.311 N 
ATOM     14  C   LIG d   1      -6.289  79.715 117.676  0.00  0.00     0.210 C 
ATOM     15  C   LIG d   1      -5.236  80.626 118.315  0.00  0.00     0.109 C 
ATOM     16  O   LIG d   1      -7.032  80.150 116.783  0.00  0.00    -0.276 OA
ATOM     17  H   LIG d   1      -5.728  78.224 118.922  0.00  0.00     0.149 HD
ENDBRANCH   6  13
BRANCH   5  18
ATOM     18  N   LIG d   1      -9.392  78.717 118.220  0.00  0.00     0.381 N 
ATOM     19  H   LIG d   1      -8.937  79.471 118.696  0.00  0.00    -0.090 HD
ATOM     20  H   LIG d   1     -10.313  78.610 118.607  0.00  0.00    -0.090 HD
ATOM     21  H   LIG d   1      -9.454  78.918 117.247  0.00  0.00    -0.090 HD
ENDBRANCH   5  18
BRANCH   3  22
ATOM     22  C   LIG d   1      -9.614  73.933 118.145  0.00  0.00     0.382 C 
ATOM     23  O   LIG d   1     -10.851  74.030 118.332  0.00  0.00    -0.241 OA
ATOM     24  O   LIG d   1      -9.075  72.811 118.177  0.00  0.00    -0.241 OA
ENDBRANCH   3  22
TORSDOF 7
ENDMDL
MODEL 7
REMARK VINA RESULT:      -4.5      3.522      6.270
REMARK  7 active torsions:
REMARK  status: ('A' for Active; 'I' for Inactive)
REMARK    1  A    between atoms: C_2  and  C_3 
REMARK    2  A    between atoms: C_3  and  O_6 
REMARK    3  A    between atoms: C_3  and  C_4 
REMARK    4  A    between atoms: C_7  and  O_6 
REMARK    5  A    between atoms: C_9  and  C_10 
REMARK    6  A    between atoms: N_15  and  C_14 
REMARK    7  A    between atoms: N_20  and  C_19 
REMARK       I    between atoms: C_22  and  N_20 
ROOT
ATOM      1  C   LIG d   1      -4.364  77.865 115.932  0.00  0.00     0.161 C 
ATOM      2  C   LIG d   1      -4.442  76.581 116.497  0.00  0.00     0.016 C 
ATOM      3  C   LIG d   1      -3.519  75.548 116.213  0.00  0.00     0.038 C 
ATOM      4  C   LIG d   1      -2.360  75.777 115.456  0.00  0.00     0.028 C 
ATOM      5  C   LIG d   1      -2.506  76.918 114.455  0.00  0.00    -0.047 C 
ATOM      6  C   LIG d   1      -3.044  78.166 115.191  0.00  0.00     0.091 C 
ENDROOT
BRANCH   1   7
ATOM      7  O   LIG d   1      -4.608  78.861 116.945  0.00  0.00    -0.368 OA
BRANCH   7   8
ATOM      8  C   LIG d   1      -5.927  79.460 116.945  0.00  0.00     0.119 C 
BRANCH   8   9
ATOM      9  C   LIG d   1      -5.749  80.971 117.191  0.00  0.00     0.028 C 
ATOM     10  C   LIG d   1      -7.093  81.711 117.294  0.00  0.00     0.006 C 
ENDBRANCH   8   9
BRANCH   8  11
ATOM     11  C   LIG d   1      -6.769  78.954 118.120  0.00  0.00     0.028 C 
ATOM     12  C   LIG d   1      -7.870  77.974 117.686  0.00  0.00     0.006 C 
ENDBRANCH   8  11
ENDBRANCH   7   8
ENDBRANCH   1   7
BRANCH   6  13
ATOM     13  N   LIG d   1      -3.296  79.303 114.268  0.00  0.00    -0.311 N 
ATOM     14  C   LIG d   1      -2.408  80.269 114.035  0.00  0.00     0.210 C 
ATOM     15  C   LIG d   1      -2.877  81.358 113.065  0.00  0.00     0.109 C 
ATOM     16  O   LIG d   1      -1.265  80.309 114.515  0.00  0.00    -0.276 OA
ATOM     17  H   LIG d   1      -4.187  79.332 113.812  0.00  0.00     0.149 HD
ENDBRANCH   6  13
BRANCH   5  18
ATOM     18  N   LIG d   1      -1.187  77.137 113.833  0.00  0.00     0.381 N 
ATOM     19  H   LIG d   1      -0.687  76.271 113.785  0.00  0.00    -0.090 HD
ATOM     20  H   LIG d   1      -0.660  77.773 114.405  0.00  0.00    -0.090 HD
ATOM     21  H   LIG d   1      -1.299  77.515 112.919  0.00  0.00    -0.090 HD
ENDBRANCH   5  18
BRANCH   3  22
ATOM     22  C   LIG d   1      -3.773  74.259 116.657  0.00  0.00     0.382 C 
ATOM     23  O   LIG d   1      -2.829  73.539 117.063  0.00  0.00    -0.241 OA
ATOM     24  O   LIG d   1      -4.927  73.792 116.614  0.00  0.00    -0.241 OA
ENDBRANCH   3  22
TORSDOF 7
ENDMDL
MODEL 8
REMARK VINA RESULT:      -4.4      3.681      6.729
REMARK  7 active torsions:
REMARK  status: ('A' for Active; 'I' for Inactive)
REMARK    1  A    between atoms: C_2  and  C_3 
REMARK    2  A    between atoms: C_3  and  O_6 
REMARK    3  A    between atoms: C_3  and  C_4 
REMARK    4  A    between atoms: C_7  and  O_6 
REMARK    5  A    between atoms: C_9  and  C_10 
REMARK    6  A    between atoms: N_15  and  C_14 
REMARK    7  A    between atoms: N_20  and  C_19 
REMARK       I    between atoms: C_22  and  N_20 
ROOT
ATOM      1  C   LIG d   1      -3.121  76.779 114.335  0.00  0.00     0.161 C 
ATOM      2  C   LIG d   1      -2.634  78.019 113.888  0.00  0.00     0.016 C 
ATOM      3  C   LIG d   1      -2.997  79.254 114.474  0.00  0.00     0.038 C 
ATOM      4  C   LIG d   1      -3.759  79.321 115.650  0.00  0.00     0.028 C 
ATOM      5  C   LIG d   1      -4.686  78.125 115.841  0.00  0.00    -0.047 C 
ATOM      6  C   LIG d   1      -3.865  76.825 115.686  0.00  0.00     0.091 C 
ENDROOT
BRANCH   1   7
ATOM      7  O   LIG d   1      -2.045  75.822 114.387  0.00  0.00    -0.368 OA
BRANCH   7   8
ATOM      8  C   LIG d   1      -1.651  75.378 115.709  0.00  0.00     0.119 C 
BRANCH   8   9
ATOM      9  C   LIG d   1      -0.240  75.935 115.983  0.00  0.00     0.028 C 
ATOM     10  C   LIG d   1      -0.271  77.217 116.834  0.00  0.00     0.006 C 
ENDBRANCH   8   9
BRANCH   8  11
ATOM     11  C   LIG d   1      -1.503  73.855 115.764  0.00  0.00     0.028 C 
ATOM     12  C   LIG d   1      -0.484  73.318 114.746  0.00  0.00     0.006 C 
ENDBRANCH   8  11
ENDBRANCH   7   8
ENDBRANCH   1   7
BRANCH   6  13
ATOM     13  N   LIG d   1      -4.712  75.606 115.774  0.00  0.00    -0.311 N 
ATOM     14  C   LIG d   1      -5.604  75.265 114.846  0.00  0.00     0.210 C 
ATOM     15  C   LIG d   1      -6.386  73.981 115.142  0.00  0.00     0.109 C 
ATOM     16  O   LIG d   1      -5.801  75.886 113.791  0.00  0.00    -0.276 OA
ATOM     17  H   LIG d   1      -4.595  75.028 116.583  0.00  0.00     0.149 HD
ENDBRANCH   6  13
BRANCH   5  18
ATOM     18  N   LIG d   1      -5.316  78.257 117.168  0.00  0.00     0.381 N 
ATOM     19  H   LIG d   1      -4.859  77.652 117.821  0.00  0.00    -0.090 HD
ATOM     20  H   LIG d   1      -6.278  77.977 117.100  0.00  0.00    -0.090 HD
ATOM     21  H   LIG d   1      -5.257  79.200 117.482  0.00  0.00    -0.090 HD
ENDBRANCH   5  18
BRANCH   3  22
ATOM     22  C   LIG d   1      -2.630  80.441 113.859  0.00  0.00     0.382 C 
ATOM     23  O   LIG d   1      -1.437  80.829 113.906  0.00  0.00    -0.241 OA
ATOM     24  O   LIG d   1      -3.484  81.151 113.295  0.00  0.00    -0.241 OA
ENDBRANCH   3  22
TORSDOF 7
ENDMDL
MODEL 9
REMARK VINA RESULT:      -4.4     17.063     19.486
REMARK  7 active torsions:
REMARK  status: ('A' for Active; 'I' for Inactive)
REMARK    1  A    between atoms: C_2  and  C_3 
REMARK    2  A    between atoms: C_3  and  O_6 
REMARK    3  A    between atoms: C_3  and  C_4 
REMARK    4  A    between atoms: C_7  and  O_6 
REMARK    5  A    between atoms: C_9  and  C_10 
REMARK    6  A    between atoms: N_15  and  C_14 
REMARK    7  A    between atoms: N_20  and  C_19 
REMARK       I    between atoms: C_22  and  N_20 
ROOT
ATOM      1  C   LIG d   1     -23.765  83.416 114.520  0.00  0.00     0.161 C 
ATOM      2  C   LIG d   1     -22.906  84.527 114.468  0.00  0.00     0.016 C 
ATOM      3  C   LIG d   1     -23.223  85.723 113.785  0.00  0.00     0.038 C 
ATOM      4  C   LIG d   1     -24.492  85.947 113.230  0.00  0.00     0.028 C 
ATOM      5  C   LIG d   1     -25.209  84.665 112.823  0.00  0.00    -0.047 C 
ATOM      6  C   LIG d   1     -25.199  83.683 114.016  0.00  0.00     0.091 C 
ENDROOT
BRANCH   1   7
ATOM      7  O   LIG d   1     -23.796  82.885 115.860  0.00  0.00    -0.368 OA
BRANCH   7   8
ATOM      8  C   LIG d   1     -23.004  81.694 116.092  0.00  0.00     0.119 C 
BRANCH   8   9
ATOM      9  C   LIG d   1     -23.963  80.585 116.565  0.00  0.00     0.028 C 
ATOM     10  C   LIG d   1     -24.189  79.508 115.490  0.00  0.00     0.006 C 
ENDBRANCH   8   9
BRANCH   8  11
ATOM     11  C   LIG d   1     -22.018  81.898 117.247  0.00  0.00     0.028 C 
ATOM     12  C   LIG d   1     -22.188  83.257 117.943  0.00  0.00     0.006 C 
ENDBRANCH   8  11
ENDBRANCH   7   8
ENDBRANCH   1   7
BRANCH   6  13
ATOM     13  N   LIG d   1     -25.807  82.370 113.675  0.00  0.00    -0.311 N 
ATOM     14  C   LIG d   1     -26.884  81.881 114.286  0.00  0.00     0.210 C 
ATOM     15  C   LIG d   1     -27.336  80.502 113.795  0.00  0.00     0.109 C 
ATOM     16  O   LIG d   1     -27.528  82.472 115.167  0.00  0.00    -0.276 OA
ATOM     17  H   LIG d   1     -25.367  81.838 112.950  0.00  0.00     0.149 HD
ENDBRANCH   6  13
BRANCH   5  18
ATOM     18  N   LIG d   1     -26.570  85.035 112.390  0.00  0.00     0.381 N 
ATOM     19  H   LIG d   1     -26.812  84.527 111.562  0.00  0.00    -0.090 HD
ATOM     20  H   LIG d   1     -26.588  86.016 112.175  0.00  0.00    -0.090 HD
ATOM     21  H   LIG d   1     -27.225  84.834 113.114  0.00  0.00    -0.090 HD
ENDBRANCH   5  18
BRANCH   3  22
ATOM     22  C   LIG d   1     -22.249  86.696 113.616  0.00  0.00     0.382 C 
ATOM     23  O   LIG d   1     -21.112  86.378 113.193  0.00  0.00    -0.241 OA
ATOM     24  O   LIG d   1     -22.480  87.881 113.924  0.00  0.00    -0.241 OA
ENDBRANCH   3  22
TORSDOF 7
ENDMDL
