MODEL 1
REMARK VINA RESULT:      -5.3      0.000      0.000
REMARK  7 active torsions:
REMARK  status: ('A' for Active; 'I' for Inactive)
REMARK    1  A    between atoms: C_2  and  C_3 
REMARK    2  A    between atoms: C_3  and  O_6 
REMARK    3  A    between atoms: C_3  and  C_4 
REMARK    4  A    between atoms: C_7  and  O_6 
REMARK    5  A    between atoms: C_9  and  C_10 
REMARK    6  A    between atoms: N_15  and  C_14 
REMARK    7  A    between atoms: N_20  and  C_19 
REMARK       I    between atoms: C_22  and  N_20 
ROOT
ATOM      1  C   LIG d   1      -6.892  74.763 117.878  0.00  0.00     0.161 C 
ATOM      2  C   LIG d   1      -7.034  73.370 117.766  0.00  0.00     0.016 C 
ATOM      3  C   LIG d   1      -8.252  72.737 117.427  0.00  0.00     0.038 C 
ATOM      4  C   LIG d   1      -9.381  73.467 117.028  0.00  0.00     0.028 C 
ATOM      5  C   LIG d   1      -9.431  74.874 117.614  0.00  0.00    -0.047 C 
ATOM      6  C   LIG d   1      -8.084  75.581 117.338  0.00  0.00     0.091 C 
ENDROOT
BRANCH   1   7
ATOM      7  O   LIG d   1      -5.668  75.183 117.243  0.00  0.00    -0.368 OA
BRANCH   7   8
ATOM      8  C   LIG d   1      -5.114  74.271 116.263  0.00  0.00     0.119 C 
BRANCH   8   9
ATOM      9  C   LIG d   1      -3.583  74.443 116.284  0.00  0.00     0.028 C 
ATOM     10  C   LIG d   1      -3.086  75.121 117.572  0.00  0.00     0.006 C 
ENDBRANCH   8   9
BRANCH   8  11
ATOM     11  C   LIG d   1      -5.546  74.649 114.843  0.00  0.00     0.028 C 
ATOM     12  C   LIG d   1      -4.494  75.494 114.106  0.00  0.00     0.006 C 
ENDBRANCH   8  11
ENDBRANCH   7   8
ENDBRANCH   1   7
BRANCH   6  13
ATOM     13  N   LIG d   1      -8.017  76.933 117.951  0.00  0.00    -0.311 N 
ATOM     14  C   LIG d   1      -7.326  77.943 117.425  0.00  0.00     0.210 C 
ATOM     15  C   LIG d   1      -7.374  79.247 118.228  0.00  0.00     0.109 C 
ATOM     16  O   LIG d   1      -6.705  77.892 116.353  0.00  0.00    -0.276 OA
ATOM     17  H   LIG d   1      -8.518  77.071 118.807  0.00  0.00     0.149 HD
ENDBRANCH   6  13
BRANCH   5  18
ATOM     18  N   LIG d   1     -10.583  75.569 117.008  0.00  0.00     0.381 N 
ATOM     19  H   LIG d   1     -10.826  76.367 117.561  0.00  0.00    -0.090 HD
ATOM     20  H   LIG d   1     -11.369  74.943 116.994  0.00  0.00    -0.090 HD
ATOM     21  H   LIG d   1     -10.359  75.854 116.080  0.00  0.00    -0.090 HD
ENDBRANCH   5  18
BRANCH   3  22
ATOM     22  C   LIG d   1      -8.360  71.358 117.525  0.00  0.00     0.382 C 
ATOM     23  O   LIG d   1      -7.739  70.743 118.425  0.00  0.00    -0.241 OA
ATOM     24  O   LIG d   1      -9.036  70.717 116.698  0.00  0.00    -0.241 OA
ENDBRANCH   3  22
TORSDOF 7
ENDMDL
MODEL 2
REMARK VINA RESULT:      -5.1      4.441      6.871
REMARK  7 active torsions:
REMARK  status: ('A' for Active; 'I' for Inactive)
REMARK    1  A    between atoms: C_2  and  C_3 
REMARK    2  A    between atoms: C_3  and  O_6 
REMARK    3  A    between atoms: C_3  and  C_4 
REMARK    4  A    between atoms: C_7  and  O_6 
REMARK    5  A    between atoms: C_9  and  C_10 
REMARK    6  A    between atoms: N_15  and  C_14 
REMARK    7  A    between atoms: N_20  and  C_19 
REMARK       I    between atoms: C_22  and  N_20 
ROOT
ATOM      1  C   LIG d   1      -1.725  74.858 114.921  0.00  0.00     0.161 C 
ATOM      2  C   LIG d   1      -1.240  73.978 115.903  0.00  0.00     0.016 C 
ATOM      3  C   LIG d   1      -0.411  74.387 116.974  0.00  0.00     0.038 C 
ATOM      4  C   LIG d   1      -0.134  75.739 117.222  0.00  0.00     0.028 C 
ATOM      5  C   LIG d   1      -0.186  76.608 115.969  0.00  0.00    -0.047 C 
ATOM      6  C   LIG d   1      -1.524  76.355 115.238  0.00  0.00     0.091 C 
ENDROOT
BRANCH   1   7
ATOM      7  O   LIG d   1      -3.116  74.583 114.663  0.00  0.00    -0.368 OA
BRANCH   7   8
ATOM      8  C   LIG d   1      -4.065  75.180 115.581  0.00  0.00     0.119 C 
BRANCH   8   9
ATOM      9  C   LIG d   1      -4.720  74.036 116.379  0.00  0.00     0.028 C 
ATOM     10  C   LIG d   1      -6.256  74.072 116.303  0.00  0.00     0.006 C 
ENDBRANCH   8   9
BRANCH   8  11
ATOM     11  C   LIG d   1      -5.214  75.860 114.830  0.00  0.00     0.028 C 
ATOM     12  C   LIG d   1      -5.049  75.795 113.304  0.00  0.00     0.006 C 
ENDBRANCH   8  11
ENDBRANCH   7   8
ENDBRANCH   1   7
BRANCH   6  13
ATOM     13  N   LIG d   1      -1.621  77.102 113.957  0.00  0.00    -0.311 N 
ATOM     14  C   LIG d   1      -2.260  78.264 113.833  0.00  0.00     0.210 C 
ATOM     15  C   LIG d   1      -2.256  78.857 112.421  0.00  0.00     0.109 C 
ATOM     16  O   LIG d   1      -2.801  78.877 114.766  0.00  0.00    -0.276 OA
ATOM     17  H   LIG d   1      -1.183  76.693 113.156  0.00  0.00     0.149 HD
ENDBRANCH   6  13
BRANCH   5  18
ATOM     18  N   LIG d   1      -0.015  78.010 116.392  0.00  0.00     0.381 N 
ATOM     19  H   LIG d   1      -0.127  78.618 115.605  0.00  0.00    -0.090 HD
ATOM     20  H   LIG d   1       0.916  78.130 116.752  0.00  0.00    -0.090 HD
ATOM     21  H   LIG d   1      -0.683  78.239 117.095  0.00  0.00    -0.090 HD
ENDBRANCH   5  18
BRANCH   3  22
ATOM     22  C   LIG d   1       0.182  73.433 117.786  0.00  0.00     0.382 C 
ATOM     23  O   LIG d   1      -0.251  72.255 117.790  0.00  0.00    -0.241 OA
ATOM     24  O   LIG d   1       1.115  73.745 118.549  0.00  0.00    -0.241 OA
ENDBRANCH   3  22
TORSDOF 7
ENDMDL
MODEL 3
REMARK VINA RESULT:      -5.0      2.621      4.505
REMARK  7 active torsions:
REMARK  status: ('A' for Active; 'I' for Inactive)
REMARK    1  A    between atoms: C_2  and  C_3 
REMARK    2  A    between atoms: C_3  and  O_6 
REMARK    3  A    between atoms: C_3  and  C_4 
REMARK    4  A    between atoms: C_7  and  O_6 
REMARK    5  A    between atoms: C_9  and  C_10 
REMARK    6  A    between atoms: N_15  and  C_14 
REMARK    7  A    between atoms: N_20  and  C_19 
REMARK       I    between atoms: C_22  and  N_20 
ROOT
ATOM      1  C   LIG d   1      -6.825  76.463 117.013  0.00  0.00     0.161 C 
ATOM      2  C   LIG d   1      -8.195  76.608 117.290  0.00  0.00     0.016 C 
ATOM      3  C   LIG d   1      -9.072  75.515 117.475  0.00  0.00     0.038 C 
ATOM      4  C   LIG d   1      -8.605  74.194 117.546  0.00  0.00     0.028 C 
ATOM      5  C   LIG d   1      -7.312  73.966 116.771  0.00  0.00    -0.047 C 
ATOM      6  C   LIG d   1      -6.277  75.032 117.197  0.00  0.00     0.091 C 
ENDROOT
BRANCH   1   7
ATOM      7  O   LIG d   1      -6.065  77.396 117.806  0.00  0.00    -0.368 OA
BRANCH   7   8
ATOM      8  C   LIG d   1      -5.552  78.556 117.105  0.00  0.00     0.119 C 
BRANCH   8   9
ATOM      9  C   LIG d   1      -4.013  78.471 117.132  0.00  0.00     0.028 C 
ATOM     10  C   LIG d   1      -3.347  79.633 116.377  0.00  0.00     0.006 C 
ENDBRANCH   8   9
BRANCH   8  11
ATOM     11  C   LIG d   1      -5.899  79.852 117.845  0.00  0.00     0.028 C 
ATOM     12  C   LIG d   1      -7.406  80.150 117.849  0.00  0.00     0.006 C 
ENDBRANCH   8  11
ENDBRANCH   7   8
ENDBRANCH   1   7
BRANCH   6  13
ATOM     13  N   LIG d   1      -5.010  74.933 116.426  0.00  0.00    -0.311 N 
ATOM     14  C   LIG d   1      -3.810  74.844 116.996  0.00  0.00     0.210 C 
ATOM     15  C   LIG d   1      -2.633  74.772 116.017  0.00  0.00     0.109 C 
ATOM     16  O   LIG d   1      -3.610  74.786 118.218  0.00  0.00    -0.276 OA
ATOM     17  H   LIG d   1      -5.083  74.941 115.427  0.00  0.00     0.149 HD
ENDBRANCH   6  13
BRANCH   5  18
ATOM     18  N   LIG d   1      -6.866  72.586 117.044  0.00  0.00     0.381 N 
ATOM     19  H   LIG d   1      -7.660  71.981 117.109  0.00  0.00    -0.090 HD
ATOM     20  H   LIG d   1      -6.383  72.569 117.924  0.00  0.00    -0.090 HD
ATOM     21  H   LIG d   1      -6.260  72.274 116.317  0.00  0.00    -0.090 HD
ENDBRANCH   5  18
BRANCH   3  22
ATOM     22  C   LIG d   1     -10.439  75.736 117.551  0.00  0.00     0.382 C 
ATOM     23  O   LIG d   1     -11.239  74.851 117.165  0.00  0.00    -0.241 OA
ATOM     24  O   LIG d   1     -10.880  76.826 117.961  0.00  0.00    -0.241 OA
ENDBRANCH   3  22
TORSDOF 7
ENDMDL
MODEL 4
REMARK VINA RESULT:      -5.0     16.193     18.880
REMARK  7 active torsions:
REMARK  status: ('A' for Active; 'I' for Inactive)
REMARK    1  A    between atoms: C_2  and  C_3 
REMARK    2  A    between atoms: C_3  and  O_6 
REMARK    3  A    between atoms: C_3  and  C_4 
REMARK    4  A    between atoms: C_7  and  O_6 
REMARK    5  A    between atoms: C_9  and  C_10 
REMARK    6  A    between atoms: N_15  and  C_14 
REMARK    7  A    between atoms: N_20  and  C_19 
REMARK       I    between atoms: C_22  and  N_20 
ROOT
ATOM      1  C   LIG d   1       2.872  89.520 115.662  0.00  0.00     0.161 C 
ATOM      2  C   LIG d   1       1.743  90.311 115.931  0.00  0.00     0.016 C 
ATOM      3  C   LIG d   1       1.685  91.253 116.984  0.00  0.00     0.038 C 
ATOM      4  C   LIG d   1       2.814  91.577 117.751  0.00  0.00     0.028 C 
ATOM      5  C   LIG d   1       3.829  90.442 117.844  0.00  0.00    -0.047 C 
ATOM      6  C   LIG d   1       4.150  89.938 116.418  0.00  0.00     0.091 C 
ENDROOT
BRANCH   1   7
ATOM      7  O   LIG d   1       3.118  89.486 114.242  0.00  0.00    -0.368 OA
BRANCH   7   8
ATOM      8  C   LIG d   1       2.984  88.193 113.603  0.00  0.00     0.119 C 
BRANCH   8   9
ATOM      9  C   LIG d   1       2.703  87.157 114.708  0.00  0.00     0.028 C 
ATOM     10  C   LIG d   1       1.545  86.211 114.345  0.00  0.00     0.006 C 
ENDBRANCH   8   9
BRANCH   8  11
ATOM     11  C   LIG d   1       4.301  87.751 112.958  0.00  0.00     0.028 C 
ATOM     12  C   LIG d   1       5.370  88.856 112.968  0.00  0.00     0.006 C 
ENDBRANCH   8  11
ENDBRANCH   7   8
ENDBRANCH   1   7
BRANCH   6  13
ATOM     13  N   LIG d   1       5.072  88.773 116.423  0.00  0.00    -0.311 N 
ATOM     14  C   LIG d   1       6.399  88.887 116.422  0.00  0.00     0.210 C 
ATOM     15  C   LIG d   1       7.163  87.560 116.407  0.00  0.00     0.109 C 
ATOM     16  O   LIG d   1       7.016  89.962 116.464  0.00  0.00    -0.276 OA
ATOM     17  H   LIG d   1       4.656  87.862 116.421  0.00  0.00     0.149 HD
ENDBRANCH   6  13
BRANCH   5  18
ATOM     18  N   LIG d   1       5.014  90.961 118.554  0.00  0.00     0.381 N 
ATOM     19  H   LIG d   1       4.771  91.186 119.498  0.00  0.00    -0.090 HD
ATOM     20  H   LIG d   1       5.323  91.802 118.099  0.00  0.00    -0.090 HD
ATOM     21  H   LIG d   1       5.742  90.282 118.543  0.00  0.00    -0.090 HD
ENDBRANCH   5  18
BRANCH   3  22
ATOM     22  C   LIG d   1       0.477  91.853 117.304  0.00  0.00     0.382 C 
ATOM     23  O   LIG d   1       0.005  92.747 116.562  0.00  0.00    -0.241 OA
ATOM     24  O   LIG d   1      -0.125  91.542 118.349  0.00  0.00    -0.241 OA
ENDBRANCH   3  22
TORSDOF 7
ENDMDL
MODEL 5
REMARK VINA RESULT:      -4.9      4.323      7.874
REMARK  7 active torsions:
REMARK  status: ('A' for Active; 'I' for Inactive)
REMARK    1  A    between atoms: C_2  and  C_3 
REMARK    2  A    between atoms: C_3  and  O_6 
REMARK    3  A    between atoms: C_3  and  C_4 
REMARK    4  A    between atoms: C_7  and  O_6 
REMARK    5  A    between atoms: C_9  and  C_10 
REMARK    6  A    between atoms: N_15  and  C_14 
REMARK    7  A    between atoms: N_20  and  C_19 
REMARK       I    between atoms: C_22  and  N_20 
ROOT
ATOM      1  C   LIG d   1      -2.641  76.638 115.894  0.00  0.00     0.161 C 
ATOM      2  C   LIG d   1      -2.912  77.764 115.099  0.00  0.00     0.016 C 
ATOM      3  C   LIG d   1      -2.134  78.129 113.976  0.00  0.00     0.038 C 
ATOM      4  C   LIG d   1      -1.116  77.303 113.479  0.00  0.00     0.028 C 
ATOM      5  C   LIG d   1      -0.482  76.414 114.545  0.00  0.00    -0.047 C 
ATOM      6  C   LIG d   1      -1.601  75.663 115.301  0.00  0.00     0.091 C 
ENDROOT
BRANCH   1   7
ATOM      7  O   LIG d   1      -3.868  75.942 116.190  0.00  0.00    -0.368 OA
BRANCH   7   8
ATOM      8  C   LIG d   1      -4.948  76.122 115.241  0.00  0.00     0.119 C 
BRANCH   8   9
ATOM      9  C   LIG d   1      -6.244  76.326 116.049  0.00  0.00     0.028 C 
ATOM     10  C   LIG d   1      -6.256  77.661 116.812  0.00  0.00     0.006 C 
ENDBRANCH   8   9
BRANCH   8  11
ATOM     11  C   LIG d   1      -5.181  74.854 114.414  0.00  0.00     0.028 C 
ATOM     12  C   LIG d   1      -5.773  73.703 115.243  0.00  0.00     0.006 C 
ENDBRANCH   8  11
ENDBRANCH   7   8
ENDBRANCH   1   7
BRANCH   6  13
ATOM     13  N   LIG d   1      -1.074  74.835 116.417  0.00  0.00    -0.311 N 
ATOM     14  C   LIG d   1      -0.545  73.625 116.246  0.00  0.00     0.210 C 
ATOM     15  C   LIG d   1      -0.080  72.935 117.532  0.00  0.00     0.109 C 
ATOM     16  O   LIG d   1      -0.388  73.071 115.148  0.00  0.00    -0.276 OA
ATOM     17  H   LIG d   1      -1.133  75.221 117.339  0.00  0.00     0.149 HD
ENDBRANCH   6  13
BRANCH   5  18
ATOM     18  N   LIG d   1       0.464  75.510 113.865  0.00  0.00     0.381 N 
ATOM     19  H   LIG d   1       0.776  74.805 114.503  0.00  0.00    -0.090 HD
ATOM     20  H   LIG d   1       1.264  76.040 113.567  0.00  0.00    -0.090 HD
ATOM     21  H   LIG d   1       0.025  75.085 113.078  0.00  0.00    -0.090 HD
ENDBRANCH   5  18
BRANCH   3  22
ATOM     22  C   LIG d   1      -2.347  79.354 113.362  0.00  0.00     0.382 C 
ATOM     23  O   LIG d   1      -1.988  79.530 112.173  0.00  0.00    -0.241 OA
ATOM     24  O   LIG d   1      -2.854  80.299 113.996  0.00  0.00    -0.241 OA
ENDBRANCH   3  22
TORSDOF 7
ENDMDL
MODEL 6
REMARK VINA RESULT:      -4.9     10.146     12.764
REMARK  7 active torsions:
REMARK  status: ('A' for Active; 'I' for Inactive)
REMARK    1  A    between atoms: C_2  and  C_3 
REMARK    2  A    between atoms: C_3  and  O_6 
REMARK    3  A    between atoms: C_3  and  C_4 
REMARK    4  A    between atoms: C_7  and  O_6 
REMARK    5  A    between atoms: C_9  and  C_10 
REMARK    6  A    between atoms: N_15  and  C_14 
REMARK    7  A    between atoms: N_20  and  C_19 
REMARK       I    between atoms: C_22  and  N_20 
ROOT
ATOM      1  C   LIG d   1      -0.182  84.206 113.103  0.00  0.00     0.161 C 
ATOM      2  C   LIG d   1      -1.230  83.271 113.087  0.00  0.00     0.016 C 
ATOM      3  C   LIG d   1      -1.067  81.927 112.682  0.00  0.00     0.038 C 
ATOM      4  C   LIG d   1       0.196  81.383 112.406  0.00  0.00     0.028 C 
ATOM      5  C   LIG d   1       1.208  82.416 111.922  0.00  0.00    -0.047 C 
ATOM      6  C   LIG d   1       1.226  83.603 112.912  0.00  0.00     0.091 C 
ENDROOT
BRANCH   1   7
ATOM      7  O   LIG d   1      -0.235  84.979 114.318  0.00  0.00    -0.368 OA
BRANCH   7   8
ATOM      8  C   LIG d   1       0.327  84.353 115.497  0.00  0.00     0.119 C 
BRANCH   8   9
ATOM      9  C   LIG d   1      -0.831  84.093 116.481  0.00  0.00     0.028 C 
ATOM     10  C   LIG d   1      -0.343  83.920 117.929  0.00  0.00     0.006 C 
ENDBRANCH   8   9
BRANCH   8  11
ATOM     11  C   LIG d   1       1.279  85.301 116.233  0.00  0.00     0.028 C 
ATOM     12  C   LIG d   1       1.384  86.679 115.560  0.00  0.00     0.006 C 
ENDBRANCH   8  11
ENDBRANCH   7   8
ENDBRANCH   1   7
BRANCH   6  13
ATOM     13  N   LIG d   1       2.128  84.698 112.468  0.00  0.00    -0.311 N 
ATOM     14  C   LIG d   1       3.365  84.861 112.932  0.00  0.00     0.210 C 
ATOM     15  C   LIG d   1       4.118  86.065 112.357  0.00  0.00     0.109 C 
ATOM     16  O   LIG d   1       3.923  84.105 113.742  0.00  0.00    -0.276 OA
ATOM     17  H   LIG d   1       1.767  85.339 111.790  0.00  0.00     0.149 HD
ENDBRANCH   6  13
BRANCH   5  18
ATOM     18  N   LIG d   1       2.514  81.740 111.805  0.00  0.00     0.381 N 
ATOM     19  H   LIG d   1       2.377  80.774 111.586  0.00  0.00    -0.090 HD
ATOM     20  H   LIG d   1       2.990  81.800 112.688  0.00  0.00    -0.090 HD
ATOM     21  H   LIG d   1       3.060  82.175 111.094  0.00  0.00    -0.090 HD
ENDBRANCH   5  18
BRANCH   3  22
ATOM     22  C   LIG d   1      -2.183  81.121 112.510  0.00  0.00     0.382 C 
ATOM     23  O   LIG d   1      -2.043  79.891 112.305  0.00  0.00    -0.241 OA
ATOM     24  O   LIG d   1      -3.326  81.616 112.513  0.00  0.00    -0.241 OA
ENDBRANCH   3  22
TORSDOF 7
ENDMDL
MODEL 7
REMARK VINA RESULT:      -4.7     13.087     16.263
REMARK  7 active torsions:
REMARK  status: ('A' for Active; 'I' for Inactive)
REMARK    1  A    between atoms: C_2  and  C_3 
REMARK    2  A    between atoms: C_3  and  O_6 
REMARK    3  A    between atoms: C_3  and  C_4 
REMARK    4  A    between atoms: C_7  and  O_6 
REMARK    5  A    between atoms: C_9  and  C_10 
REMARK    6  A    between atoms: N_15  and  C_14 
REMARK    7  A    between atoms: N_20  and  C_19 
REMARK       I    between atoms: C_22  and  N_20 
ROOT
ATOM      1  C   LIG d   1       3.419  85.368 113.597  0.00  0.00     0.161 C 
ATOM      2  C   LIG d   1       3.742  86.613 113.032  0.00  0.00     0.016 C 
ATOM      3  C   LIG d   1       4.413  87.638 113.738  0.00  0.00     0.038 C 
ATOM      4  C   LIG d   1       4.943  87.430 115.019  0.00  0.00     0.028 C 
ATOM      5  C   LIG d   1       4.201  86.363 115.817  0.00  0.00    -0.047 C 
ATOM      6  C   LIG d   1       4.088  85.083 114.958  0.00  0.00     0.091 C 
ENDROOT
BRANCH   1   7
ATOM      7  O   LIG d   1       3.718  84.314 112.661  0.00  0.00    -0.368 OA
BRANCH   7   8
ATOM      8  C   LIG d   1       2.593  83.786 111.915  0.00  0.00     0.119 C 
BRANCH   8   9
ATOM      9  C   LIG d   1       1.319  84.078 112.730  0.00  0.00     0.028 C 
ATOM     10  C   LIG d   1       0.219  84.741 111.884  0.00  0.00     0.006 C 
ENDBRANCH   8   9
BRANCH   8  11
ATOM     11  C   LIG d   1       2.664  82.260 111.805  0.00  0.00     0.028 C 
ATOM     12  C   LIG d   1       1.873  81.546 112.912  0.00  0.00     0.006 C 
ENDBRANCH   8  11
ENDBRANCH   7   8
ENDBRANCH   1   7
BRANCH   6  13
ATOM     13  N   LIG d   1       3.301  84.017 115.631  0.00  0.00    -0.311 N 
ATOM     14  C   LIG d   1       3.770  82.790 115.854  0.00  0.00     0.210 C 
ATOM     15  C   LIG d   1       2.788  81.838 116.544  0.00  0.00     0.109 C 
ATOM     16  O   LIG d   1       4.917  82.409 115.574  0.00  0.00    -0.276 OA
ATOM     17  H   LIG d   1       2.371  84.249 115.920  0.00  0.00     0.149 HD
ENDBRANCH   6  13
BRANCH   5  18
ATOM     18  N   LIG d   1       4.941  86.152 117.075  0.00  0.00     0.381 N 
ATOM     19  H   LIG d   1       5.021  87.017 117.571  0.00  0.00    -0.090 HD
ATOM     20  H   LIG d   1       5.867  85.827 116.857  0.00  0.00    -0.090 HD
ATOM     21  H   LIG d   1       4.469  85.480 117.640  0.00  0.00    -0.090 HD
ENDBRANCH   5  18
BRANCH   3  22
ATOM     22  C   LIG d   1       4.523  88.901 113.176  0.00  0.00     0.382 C 
ATOM     23  O   LIG d   1       5.570  89.226 112.566  0.00  0.00    -0.241 OA
ATOM     24  O   LIG d   1       3.606  89.734 113.308  0.00  0.00    -0.241 OA
ENDBRANCH   3  22
TORSDOF 7
ENDMDL
MODEL 8
REMARK VINA RESULT:      -4.7      2.354      4.417
REMARK  7 active torsions:
REMARK  status: ('A' for Active; 'I' for Inactive)
REMARK    1  A    between atoms: C_2  and  C_3 
REMARK    2  A    between atoms: C_3  and  O_6 
REMARK    3  A    between atoms: C_3  and  C_4 
REMARK    4  A    between atoms: C_7  and  O_6 
REMARK    5  A    between atoms: C_9  and  C_10 
REMARK    6  A    between atoms: N_15  and  C_14 
REMARK    7  A    between atoms: N_20  and  C_19 
REMARK       I    between atoms: C_22  and  N_20 
ROOT
ATOM      1  C   LIG d   1      -6.995  75.849 116.965  0.00  0.00     0.161 C 
ATOM      2  C   LIG d   1      -7.669  74.619 116.888  0.00  0.00     0.016 C 
ATOM      3  C   LIG d   1      -7.025  73.394 116.599  0.00  0.00     0.038 C 
ATOM      4  C   LIG d   1      -5.628  73.293 116.515  0.00  0.00     0.028 C 
ATOM      5  C   LIG d   1      -4.951  74.590 116.086  0.00  0.00    -0.047 C 
ATOM      6  C   LIG d   1      -5.455  75.741 116.987  0.00  0.00     0.091 C 
ENDROOT
BRANCH   1   7
ATOM      7  O   LIG d   1      -7.461  76.591 118.109  0.00  0.00    -0.368 OA
BRANCH   7   8
ATOM      8  C   LIG d   1      -8.195  77.807 117.823  0.00  0.00     0.119 C 
BRANCH   8   9
ATOM      9  C   LIG d   1      -7.391  78.983 118.410  0.00  0.00     0.028 C 
ATOM     10  C   LIG d   1      -8.103  80.333 118.223  0.00  0.00     0.006 C 
ENDBRANCH   8   9
BRANCH   8  11
ATOM     11  C   LIG d   1      -9.541  77.831 118.554  0.00  0.00     0.028 C 
ATOM     12  C   LIG d   1     -10.495  76.722 118.082  0.00  0.00     0.006 C 
ENDBRANCH   8  11
ENDBRANCH   7   8
ENDBRANCH   1   7
BRANCH   6  13
ATOM     13  N   LIG d   1      -4.907  77.061 116.580  0.00  0.00    -0.311 N 
ATOM     14  C   LIG d   1      -3.837  77.616 117.147  0.00  0.00     0.210 C 
ATOM     15  C   LIG d   1      -3.451  78.991 116.591  0.00  0.00     0.109 C 
ATOM     16  O   LIG d   1      -3.151  77.087 118.034  0.00  0.00    -0.276 OA
ATOM     17  H   LIG d   1      -5.383  77.546 115.845  0.00  0.00     0.149 HD
ENDBRANCH   6  13
BRANCH   5  18
ATOM     18  N   LIG d   1      -3.494  74.383 116.174  0.00  0.00     0.381 N 
ATOM     19  H   LIG d   1      -3.023  75.031 115.575  0.00  0.00    -0.090 HD
ATOM     20  H   LIG d   1      -3.278  73.452 115.864  0.00  0.00    -0.090 HD
ATOM     21  H   LIG d   1      -3.188  74.506 117.114  0.00  0.00    -0.090 HD
ENDBRANCH   5  18
BRANCH   3  22
ATOM     22  C   LIG d   1      -7.783  72.260 116.350  0.00  0.00     0.382 C 
ATOM     23  O   LIG d   1      -7.273  71.284 115.749  0.00  0.00    -0.241 OA
ATOM     24  O   LIG d   1      -8.984  72.218 116.679  0.00  0.00    -0.241 OA
ENDBRANCH   3  22
TORSDOF 7
ENDMDL
MODEL 9
REMARK VINA RESULT:      -4.7     13.665     16.581
REMARK  7 active torsions:
REMARK  status: ('A' for Active; 'I' for Inactive)
REMARK    1  A    between atoms: C_2  and  C_3 
REMARK    2  A    between atoms: C_3  and  O_6 
REMARK    3  A    between atoms: C_3  and  C_4 
REMARK    4  A    between atoms: C_7  and  O_6 
REMARK    5  A    between atoms: C_9  and  C_10 
REMARK    6  A    between atoms: N_15  and  C_14 
REMARK    7  A    between atoms: N_20  and  C_19 
REMARK       I    between atoms: C_22  and  N_20 
ROOT
ATOM      1  C   LIG d   1       2.607  86.012 115.191  0.00  0.00     0.161 C 
ATOM      2  C   LIG d   1       2.622  87.281 114.588  0.00  0.00     0.016 C 
ATOM      3  C   LIG d   1       3.752  88.129 114.587  0.00  0.00     0.038 C 
ATOM      4  C   LIG d   1       5.001  87.701 115.061  0.00  0.00     0.028 C 
ATOM      5  C   LIG d   1       4.904  86.620 116.133  0.00  0.00    -0.047 C 
ATOM      6  C   LIG d   1       3.993  85.483 115.616  0.00  0.00     0.091 C 
ENDROOT
BRANCH   1   7
ATOM      7  O   LIG d   1       1.955  85.065 114.322  0.00  0.00    -0.368 OA
BRANCH   7   8
ATOM      8  C   LIG d   1       1.932  85.403 112.914  0.00  0.00     0.119 C 
BRANCH   8   9
ATOM      9  C   LIG d   1       0.558  84.980 112.359  0.00  0.00     0.028 C 
ATOM     10  C   LIG d   1      -0.584  85.243 113.355  0.00  0.00     0.006 C 
ENDBRANCH   8   9
BRANCH   8  11
ATOM     11  C   LIG d   1       2.957  84.581 112.127  0.00  0.00     0.028 C 
ATOM     12  C   LIG d   1       4.234  85.373 111.805  0.00  0.00     0.006 C 
ENDBRANCH   8  11
ENDBRANCH   7   8
ENDBRANCH   1   7
BRANCH   6  13
ATOM     13  N   LIG d   1       3.776  84.423 116.636  0.00  0.00    -0.311 N 
ATOM     14  C   LIG d   1       4.310  83.206 116.553  0.00  0.00     0.210 C 
ATOM     15  C   LIG d   1       3.943  82.260 117.700  0.00  0.00     0.109 C 
ATOM     16  O   LIG d   1       5.078  82.830 115.654  0.00  0.00    -0.276 OA
ATOM     17  H   LIG d   1       3.191  84.653 117.415  0.00  0.00     0.149 HD
ENDBRANCH   6  13
BRANCH   5  18
ATOM     18  N   LIG d   1       6.275  86.170 116.437  0.00  0.00     0.381 N 
ATOM     19  H   LIG d   1       6.877  86.963 116.536  0.00  0.00    -0.090 HD
ATOM     20  H   LIG d   1       6.611  85.612 115.672  0.00  0.00    -0.090 HD
ATOM     21  H   LIG d   1       6.279  85.634 117.277  0.00  0.00    -0.090 HD
ENDBRANCH   5  18
BRANCH   3  22
ATOM     22  C   LIG d   1       3.629  89.437 114.143  0.00  0.00     0.382 C 
ATOM     23  O   LIG d   1       4.067  89.759 113.012  0.00  0.00    -0.241 OA
ATOM     24  O   LIG d   1       3.127  90.309 114.877  0.00  0.00    -0.241 OA
ENDBRANCH   3  22
TORSDOF 7
ENDMDL
