MODEL 1
REMARK VINA RESULT:      -6.0      0.000      0.000
REMARK  7 active torsions:
REMARK  status: ('A' for Active; 'I' for Inactive)
REMARK    1  A    between atoms: C_2  and  C_3 
REMARK    2  A    between atoms: C_3  and  O_6 
REMARK    3  A    between atoms: C_3  and  C_4 
REMARK    4  A    between atoms: C_7  and  O_6 
REMARK    5  A    between atoms: C_9  and  C_10 
REMARK    6  A    between atoms: N_15  and  C_14 
REMARK    7  A    between atoms: N_20  and  C_19 
REMARK       I    between atoms: C_22  and  N_20 
ROOT
ATOM      1  C   LIG d   1      -2.962  77.065 115.018  0.00  0.00     0.161 C 
ATOM      2  C   LIG d   1      -3.150  78.124 114.115  0.00  0.00     0.016 C 
ATOM      3  C   LIG d   1      -2.102  78.964 113.672  0.00  0.00     0.038 C 
ATOM      4  C   LIG d   1      -0.760  78.706 113.989  0.00  0.00     0.028 C 
ATOM      5  C   LIG d   1      -0.582  77.951 115.302  0.00  0.00    -0.047 C 
ATOM      6  C   LIG d   1      -1.487  76.698 115.288  0.00  0.00     0.091 C 
ENDROOT
BRANCH   1   7
ATOM      7  O   LIG d   1      -3.692  75.905 114.571  0.00  0.00    -0.368 OA
BRANCH   7   8
ATOM      8  C   LIG d   1      -4.530  75.259 115.560  0.00  0.00     0.119 C 
BRANCH   8   9
ATOM      9  C   LIG d   1      -5.686  74.570 114.809  0.00  0.00     0.028 C 
ATOM     10  C   LIG d   1      -6.009  73.178 115.379  0.00  0.00     0.006 C 
ENDBRANCH   8   9
BRANCH   8  11
ATOM     11  C   LIG d   1      -5.198  76.285 116.480  0.00  0.00     0.028 C 
ATOM     12  C   LIG d   1      -6.573  76.741 115.966  0.00  0.00     0.006 C 
ENDBRANCH   8  11
ENDBRANCH   7   8
ENDBRANCH   1   7
BRANCH   6  13
ATOM     13  N   LIG d   1      -1.437  75.948 116.570  0.00  0.00    -0.311 N 
ATOM     14  C   LIG d   1      -1.039  74.680 116.662  0.00  0.00     0.210 C 
ATOM     15  C   LIG d   1      -1.083  74.091 118.075  0.00  0.00     0.109 C 
ATOM     16  O   LIG d   1      -0.624  73.998 115.713  0.00  0.00    -0.276 OA
ATOM     17  H   LIG d   1      -1.727  76.435 117.395  0.00  0.00     0.149 HD
ENDBRANCH   6  13
BRANCH   5  18
ATOM     18  N   LIG d   1       0.851  77.628 115.439  0.00  0.00     0.381 N 
ATOM     19  H   LIG d   1       1.005  77.126 116.291  0.00  0.00    -0.090 HD
ATOM     20  H   LIG d   1       1.375  78.485 115.479  0.00  0.00    -0.090 HD
ATOM     21  H   LIG d   1       1.153  77.081 114.664  0.00  0.00    -0.090 HD
ENDBRANCH   5  18
BRANCH   3  22
ATOM     22  C   LIG d   1      -2.398  80.101 112.936  0.00  0.00     0.382 C 
ATOM     23  O   LIG d   1      -1.601  80.503 112.055  0.00  0.00    -0.241 OA
ATOM     24  O   LIG d   1      -3.431  80.756 113.173  0.00  0.00    -0.241 OA
ENDBRANCH   3  22
TORSDOF 7
ENDMDL
MODEL 2
REMARK VINA RESULT:      -4.9      2.353      5.488
REMARK  7 active torsions:
REMARK  status: ('A' for Active; 'I' for Inactive)
REMARK    1  A    between atoms: C_2  and  C_3 
REMARK    2  A    between atoms: C_3  and  O_6 
REMARK    3  A    between atoms: C_3  and  C_4 
REMARK    4  A    between atoms: C_7  and  O_6 
REMARK    5  A    between atoms: C_9  and  C_10 
REMARK    6  A    between atoms: N_15  and  C_14 
REMARK    7  A    between atoms: N_20  and  C_19 
REMARK       I    between atoms: C_22  and  N_20 
ROOT
ATOM      1  C   LIG d   1      -2.715  75.713 116.035  0.00  0.00     0.161 C 
ATOM      2  C   LIG d   1      -3.859  74.957 115.728  0.00  0.00     0.016 C 
ATOM      3  C   LIG d   1      -5.172  75.481 115.766  0.00  0.00     0.038 C 
ATOM      4  C   LIG d   1      -5.419  76.847 115.968  0.00  0.00     0.028 C 
ATOM      5  C   LIG d   1      -4.332  77.546 116.779  0.00  0.00    -0.047 C 
ATOM      6  C   LIG d   1      -2.956  77.233 116.149  0.00  0.00     0.091 C 
ENDROOT
BRANCH   1   7
ATOM      7  O   LIG d   1      -1.678  75.441 115.072  0.00  0.00    -0.368 OA
BRANCH   7   8
ATOM      8  C   LIG d   1      -0.574  74.625 115.538  0.00  0.00     0.119 C 
BRANCH   8   9
ATOM      9  C   LIG d   1      -0.673  74.547 117.074  0.00  0.00     0.028 C 
ATOM     10  C   LIG d   1       0.511  75.235 117.774  0.00  0.00     0.006 C 
ENDBRANCH   8   9
BRANCH   8  11
ATOM     11  C   LIG d   1       0.773  75.295 115.251  0.00  0.00     0.028 C 
ATOM     12  C   LIG d   1       1.383  74.856 113.911  0.00  0.00     0.006 C 
ENDBRANCH   8  11
ENDBRANCH   7   8
ENDBRANCH   1   7
BRANCH   6  13
ATOM     13  N   LIG d   1      -1.831  77.809 116.930  0.00  0.00    -0.311 N 
ATOM     14  C   LIG d   1      -0.863  78.546 116.387  0.00  0.00     0.210 C 
ATOM     15  C   LIG d   1       0.212  79.025 117.368  0.00  0.00     0.109 C 
ATOM     16  O   LIG d   1      -0.811  78.876 115.193  0.00  0.00    -0.276 OA
ATOM     17  H   LIG d   1      -1.812  77.617 117.912  0.00  0.00     0.149 HD
ENDBRANCH   6  13
BRANCH   5  18
ATOM     18  N   LIG d   1      -4.646  78.987 116.796  0.00  0.00     0.381 N 
ATOM     19  H   LIG d   1      -5.613  79.126 116.581  0.00  0.00    -0.090 HD
ATOM     20  H   LIG d   1      -4.097  79.448 116.091  0.00  0.00    -0.090 HD
ATOM     21  H   LIG d   1      -4.439  79.371 117.691  0.00  0.00    -0.090 HD
ENDBRANCH   5  18
BRANCH   3  22
ATOM     22  C   LIG d   1      -6.257  74.627 115.640  0.00  0.00     0.382 C 
ATOM     23  O   LIG d   1      -7.399  75.009 115.994  0.00  0.00    -0.241 OA
ATOM     24  O   LIG d   1      -6.101  73.466 115.219  0.00  0.00    -0.241 OA
ENDBRANCH   3  22
TORSDOF 7
ENDMDL
MODEL 3
REMARK VINA RESULT:      -4.8      2.163      5.084
REMARK  7 active torsions:
REMARK  status: ('A' for Active; 'I' for Inactive)
REMARK    1  A    between atoms: C_2  and  C_3 
REMARK    2  A    between atoms: C_3  and  O_6 
REMARK    3  A    between atoms: C_3  and  C_4 
REMARK    4  A    between atoms: C_7  and  O_6 
REMARK    5  A    between atoms: C_9  and  C_10 
REMARK    6  A    between atoms: N_15  and  C_14 
REMARK    7  A    between atoms: N_20  and  C_19 
REMARK       I    between atoms: C_22  and  N_20 
ROOT
ATOM      1  C   LIG d   1      -2.928  78.101 115.525  0.00  0.00     0.161 C 
ATOM      2  C   LIG d   1      -1.580  78.451 115.710  0.00  0.00     0.016 C 
ATOM      3  C   LIG d   1      -0.579  77.523 116.079  0.00  0.00     0.038 C 
ATOM      4  C   LIG d   1      -0.832  76.145 116.141  0.00  0.00     0.028 C 
ATOM      5  C   LIG d   1      -2.286  75.810 116.456  0.00  0.00    -0.047 C 
ATOM      6  C   LIG d   1      -3.202  76.583 115.480  0.00  0.00     0.091 C 
ENDROOT
BRANCH   1   7
ATOM      7  O   LIG d   1      -3.439  78.738 114.337  0.00  0.00    -0.368 OA
BRANCH   7   8
ATOM      8  C   LIG d   1      -2.449  79.239 113.406  0.00  0.00     0.119 C 
BRANCH   8   9
ATOM      9  C   LIG d   1      -2.873  80.664 113.001  0.00  0.00     0.028 C 
ATOM     10  C   LIG d   1      -1.681  81.527 112.555  0.00  0.00     0.006 C 
ENDBRANCH   8   9
BRANCH   8  11
ATOM     11  C   LIG d   1      -2.449  78.431 112.105  0.00  0.00     0.028 C 
ATOM     12  C   LIG d   1      -1.092  77.773 111.812  0.00  0.00     0.006 C 
ENDBRANCH   8  11
ENDBRANCH   7   8
ENDBRANCH   1   7
BRANCH   6  13
ATOM     13  N   LIG d   1      -4.644  76.378 115.773  0.00  0.00    -0.311 N 
ATOM     14  C   LIG d   1      -5.384  75.437 115.188  0.00  0.00     0.210 C 
ATOM     15  C   LIG d   1      -6.854  75.410 115.619  0.00  0.00     0.109 C 
ATOM     16  O   LIG d   1      -4.955  74.602 114.378  0.00  0.00    -0.276 OA
ATOM     17  H   LIG d   1      -5.066  76.992 116.442  0.00  0.00     0.149 HD
ENDBRANCH   6  13
BRANCH   5  18
ATOM     18  N   LIG d   1      -2.438  74.346 116.354  0.00  0.00     0.381 N 
ATOM     19  H   LIG d   1      -2.885  74.111 115.491  0.00  0.00    -0.090 HD
ATOM     20  H   LIG d   1      -3.020  74.027 117.108  0.00  0.00    -0.090 HD
ATOM     21  H   LIG d   1      -1.545  73.906 116.405  0.00  0.00    -0.090 HD
ENDBRANCH   5  18
BRANCH   3  22
ATOM     22  C   LIG d   1       0.684  77.978 116.429  0.00  0.00     0.382 C 
ATOM     23  O   LIG d   1       1.461  77.234 117.075  0.00  0.00    -0.241 OA
ATOM     24  O   LIG d   1       1.039  79.138 116.146  0.00  0.00    -0.241 OA
ENDBRANCH   3  22
TORSDOF 7
ENDMDL
MODEL 4
REMARK VINA RESULT:      -4.8      9.164     11.774
REMARK  7 active torsions:
REMARK  status: ('A' for Active; 'I' for Inactive)
REMARK    1  A    between atoms: C_2  and  C_3 
REMARK    2  A    between atoms: C_3  and  O_6 
REMARK    3  A    between atoms: C_3  and  C_4 
REMARK    4  A    between atoms: C_7  and  O_6 
REMARK    5  A    between atoms: C_9  and  C_10 
REMARK    6  A    between atoms: N_15  and  C_14 
REMARK    7  A    between atoms: N_20  and  C_19 
REMARK       I    between atoms: C_22  and  N_20 
ROOT
ATOM      1  C   LIG d   1       2.586  87.234 115.524  0.00  0.00     0.161 C 
ATOM      2  C   LIG d   1       3.230  88.171 114.700  0.00  0.00     0.016 C 
ATOM      3  C   LIG d   1       4.036  87.812 113.595  0.00  0.00     0.038 C 
ATOM      4  C   LIG d   1       4.129  86.486 113.146  0.00  0.00     0.028 C 
ATOM      5  C   LIG d   1       3.904  85.456 114.248  0.00  0.00    -0.047 C 
ATOM      6  C   LIG d   1       2.586  85.789 114.984  0.00  0.00     0.091 C 
ENDROOT
BRANCH   1   7
ATOM      7  O   LIG d   1       1.238  87.667 115.796  0.00  0.00    -0.368 OA
BRANCH   7   8
ATOM      8  C   LIG d   1       1.046  88.426 117.015  0.00  0.00     0.119 C 
BRANCH   8   9
ATOM      9  C   LIG d   1      -0.224  87.886 117.701  0.00  0.00     0.028 C 
ATOM     10  C   LIG d   1       0.020  86.547 118.417  0.00  0.00     0.006 C 
ENDBRANCH   8   9
BRANCH   8  11
ATOM     11  C   LIG d   1       0.749  89.898 116.714  0.00  0.00     0.028 C 
ATOM     12  C   LIG d   1       1.870  90.839 117.181  0.00  0.00     0.006 C 
ENDBRANCH   8  11
ENDBRANCH   7   8
ENDBRANCH   1   7
BRANCH   6  13
ATOM     13  N   LIG d   1       2.333  84.879 116.132  0.00  0.00    -0.311 N 
ATOM     14  C   LIG d   1       1.591  83.777 116.044  0.00  0.00     0.210 C 
ATOM     15  C   LIG d   1       1.440  82.992 117.351  0.00  0.00     0.109 C 
ATOM     16  O   LIG d   1       1.069  83.357 115.000  0.00  0.00    -0.276 OA
ATOM     17  H   LIG d   1       2.744  85.128 117.010  0.00  0.00     0.149 HD
ENDBRANCH   6  13
BRANCH   5  18
ATOM     18  N   LIG d   1       3.893  84.123 113.617  0.00  0.00     0.381 N 
ATOM     19  H   LIG d   1       3.099  83.604 113.934  0.00  0.00    -0.090 HD
ATOM     20  H   LIG d   1       4.723  83.627 113.890  0.00  0.00    -0.090 HD
ATOM     21  H   LIG d   1       3.864  84.215 112.625  0.00  0.00    -0.090 HD
ENDBRANCH   5  18
BRANCH   3  22
ATOM     22  C   LIG d   1       4.790  88.780 112.950  0.00  0.00     0.382 C 
ATOM     23  O   LIG d   1       4.487  89.992 113.068  0.00  0.00    -0.241 OA
ATOM     24  O   LIG d   1       5.743  88.454 112.217  0.00  0.00    -0.241 OA
ENDBRANCH   3  22
TORSDOF 7
ENDMDL
MODEL 5
REMARK VINA RESULT:      -4.6      8.721     11.177
REMARK  7 active torsions:
REMARK  status: ('A' for Active; 'I' for Inactive)
REMARK    1  A    between atoms: C_2  and  C_3 
REMARK    2  A    between atoms: C_3  and  O_6 
REMARK    3  A    between atoms: C_3  and  C_4 
REMARK    4  A    between atoms: C_7  and  O_6 
REMARK    5  A    between atoms: C_9  and  C_10 
REMARK    6  A    between atoms: N_15  and  C_14 
REMARK    7  A    between atoms: N_20  and  C_19 
REMARK       I    between atoms: C_22  and  N_20 
ROOT
ATOM      1  C   LIG d   1       4.024  85.399 113.759  0.00  0.00     0.161 C 
ATOM      2  C   LIG d   1       4.128  86.737 113.343  0.00  0.00     0.016 C 
ATOM      3  C   LIG d   1       4.603  87.776 114.176  0.00  0.00     0.038 C 
ATOM      4  C   LIG d   1       5.152  87.520 115.441  0.00  0.00     0.028 C 
ATOM      5  C   LIG d   1       4.603  86.257 116.095  0.00  0.00    -0.047 C 
ATOM      6  C   LIG d   1       4.723  85.082 115.098  0.00  0.00     0.091 C 
ENDROOT
BRANCH   1   7
ATOM      7  O   LIG d   1       4.510  84.525 112.722  0.00  0.00    -0.368 OA
BRANCH   7   8
ATOM      8  C   LIG d   1       3.529  83.649 112.114  0.00  0.00     0.119 C 
BRANCH   8   9
ATOM      9  C   LIG d   1       2.171  83.944 112.780  0.00  0.00     0.028 C 
ATOM     10  C   LIG d   1       1.515  82.679 113.359  0.00  0.00     0.006 C 
ENDBRANCH   8   9
BRANCH   8  11
ATOM     11  C   LIG d   1       3.824  82.179 112.428  0.00  0.00     0.028 C 
ATOM     12  C   LIG d   1       5.318  81.910 112.669  0.00  0.00     0.006 C 
ENDBRANCH   8  11
ENDBRANCH   7   8
ENDBRANCH   1   7
BRANCH   6  13
ATOM     13  N   LIG d   1       4.131  83.826 115.628  0.00  0.00    -0.311 N 
ATOM     14  C   LIG d   1       4.851  82.858 116.194  0.00  0.00     0.210 C 
ATOM     15  C   LIG d   1       4.045  81.639 116.655  0.00  0.00     0.109 C 
ATOM     16  O   LIG d   1       6.075  82.908 116.386  0.00  0.00    -0.276 OA
ATOM     17  H   LIG d   1       3.140  83.717 115.542  0.00  0.00     0.149 HD
ENDBRANCH   6  13
BRANCH   5  18
ATOM     18  N   LIG d   1       5.360  86.037 117.342  0.00  0.00     0.381 N 
ATOM     19  H   LIG d   1       5.428  86.894 117.854  0.00  0.00    -0.090 HD
ATOM     20  H   LIG d   1       6.289  85.734 117.110  0.00  0.00    -0.090 HD
ATOM     21  H   LIG d   1       4.907  85.345 117.898  0.00  0.00    -0.090 HD
ENDBRANCH   5  18
BRANCH   3  22
ATOM     22  C   LIG d   1       4.494  89.094 113.759  0.00  0.00     0.382 C 
ATOM     23  O   LIG d   1       4.307  90.005 114.602  0.00  0.00    -0.241 OA
ATOM     24  O   LIG d   1       4.536  89.379 112.547  0.00  0.00    -0.241 OA
ENDBRANCH   3  22
TORSDOF 7
ENDMDL
MODEL 6
REMARK VINA RESULT:      -4.6     10.291     13.197
REMARK  7 active torsions:
REMARK  status: ('A' for Active; 'I' for Inactive)
REMARK    1  A    between atoms: C_2  and  C_3 
REMARK    2  A    between atoms: C_3  and  O_6 
REMARK    3  A    between atoms: C_3  and  C_4 
REMARK    4  A    between atoms: C_7  and  O_6 
REMARK    5  A    between atoms: C_9  and  C_10 
REMARK    6  A    between atoms: N_15  and  C_14 
REMARK    7  A    between atoms: N_20  and  C_19 
REMARK       I    between atoms: C_22  and  N_20 
ROOT
ATOM      1  C   LIG d   1       2.758  88.252 115.053  0.00  0.00     0.161 C 
ATOM      2  C   LIG d   1       3.052  89.533 115.547  0.00  0.00     0.016 C 
ATOM      3  C   LIG d   1       2.654  89.984 116.827  0.00  0.00     0.038 C 
ATOM      4  C   LIG d   1       2.061  89.126 117.764  0.00  0.00     0.028 C 
ATOM      5  C   LIG d   1       1.293  87.972 117.128  0.00  0.00    -0.047 C 
ATOM      6  C   LIG d   1       2.209  87.264 116.103  0.00  0.00     0.091 C 
ENDROOT
BRANCH   1   7
ATOM      7  O   LIG d   1       3.921  87.699 114.405  0.00  0.00    -0.368 OA
BRANCH   7   8
ATOM      8  C   LIG d   1       4.021  87.922 112.977  0.00  0.00     0.119 C 
BRANCH   8   9
ATOM      9  C   LIG d   1       3.749  86.575 112.278  0.00  0.00     0.028 C 
ATOM     10  C   LIG d   1       4.406  85.392 113.009  0.00  0.00     0.006 C 
ENDBRANCH   8   9
BRANCH   8  11
ATOM     11  C   LIG d   1       5.446  88.309 112.572  0.00  0.00     0.028 C 
ATOM     12  C   LIG d   1       6.088  89.314 113.540  0.00  0.00     0.006 C 
ENDBRANCH   8  11
ENDBRANCH   7   8
ENDBRANCH   1   7
BRANCH   6  13
ATOM     13  N   LIG d   1       1.508  86.175 115.374  0.00  0.00    -0.311 N 
ATOM     14  C   LIG d   1       1.889  84.900 115.418  0.00  0.00     0.210 C 
ATOM     15  C   LIG d   1       1.039  83.942 114.576  0.00  0.00     0.109 C 
ATOM     16  O   LIG d   1       2.830  84.466 116.099  0.00  0.00    -0.276 OA
ATOM     17  H   LIG d   1       0.714  86.434 114.821  0.00  0.00     0.149 HD
ENDBRANCH   6  13
BRANCH   5  18
ATOM     18  N   LIG d   1       0.845  87.082 118.215  0.00  0.00     0.381 N 
ATOM     19  H   LIG d   1      -0.145  86.945 118.155  0.00  0.00    -0.090 HD
ATOM     20  H   LIG d   1       1.050  87.517 119.097  0.00  0.00    -0.090 HD
ATOM     21  H   LIG d   1       1.313  86.205 118.152  0.00  0.00    -0.090 HD
ENDBRANCH   5  18
BRANCH   3  22
ATOM     22  C   LIG d   1       2.813  91.320 117.165  0.00  0.00     0.382 C 
ATOM     23  O   LIG d   1       1.842  91.971 117.620  0.00  0.00    -0.241 OA
ATOM     24  O   LIG d   1       3.903  91.893 116.979  0.00  0.00    -0.241 OA
ENDBRANCH   3  22
TORSDOF 7
ENDMDL
MODEL 7
REMARK VINA RESULT:      -4.4      2.566      5.839
REMARK  7 active torsions:
REMARK  status: ('A' for Active; 'I' for Inactive)
REMARK    1  A    between atoms: C_2  and  C_3 
REMARK    2  A    between atoms: C_3  and  O_6 
REMARK    3  A    between atoms: C_3  and  C_4 
REMARK    4  A    between atoms: C_7  and  O_6 
REMARK    5  A    between atoms: C_9  and  C_10 
REMARK    6  A    between atoms: N_15  and  C_14 
REMARK    7  A    between atoms: N_20  and  C_19 
REMARK       I    between atoms: C_22  and  N_20 
ROOT
ATOM      1  C   LIG d   1      -1.820  78.008 115.986  0.00  0.00     0.161 C 
ATOM      2  C   LIG d   1      -0.967  76.974 115.567  0.00  0.00     0.016 C 
ATOM      3  C   LIG d   1      -1.362  75.617 115.503  0.00  0.00     0.038 C 
ATOM      4  C   LIG d   1      -2.691  75.221 115.711  0.00  0.00     0.028 C 
ATOM      5  C   LIG d   1      -3.467  76.162 116.627  0.00  0.00    -0.047 C 
ATOM      6  C   LIG d   1      -3.306  77.611 116.111  0.00  0.00     0.091 C 
ENDROOT
BRANCH   1   7
ATOM      7  O   LIG d   1      -1.677  79.144 115.111  0.00  0.00    -0.368 OA
BRANCH   7   8
ATOM      8  C   LIG d   1      -0.977  78.905 113.865  0.00  0.00     0.119 C 
BRANCH   8   9
ATOM      9  C   LIG d   1       0.175  79.925 113.778  0.00  0.00     0.028 C 
ATOM     10  C   LIG d   1       0.172  80.702 112.451  0.00  0.00     0.006 C 
ENDBRANCH   8   9
BRANCH   8  11
ATOM     11  C   LIG d   1      -1.871  79.199 112.657  0.00  0.00     0.028 C 
ATOM     12  C   LIG d   1      -2.956  78.131 112.445  0.00  0.00     0.006 C 
ENDBRANCH   8  11
ENDBRANCH   7   8
ENDBRANCH   1   7
BRANCH   6  13
ATOM     13  N   LIG d   1      -3.964  78.605 116.997  0.00  0.00    -0.311 N 
ATOM     14  C   LIG d   1      -5.278  78.826 117.003  0.00  0.00     0.210 C 
ATOM     15  C   LIG d   1      -5.748  79.908 117.979  0.00  0.00     0.109 C 
ATOM     16  O   LIG d   1      -6.102  78.205 116.314  0.00  0.00    -0.276 OA
ATOM     17  H   LIG d   1      -3.374  79.131 117.611  0.00  0.00     0.149 HD
ENDBRANCH   6  13
BRANCH   5  18
ATOM     18  N   LIG d   1      -4.870  75.708 116.646  0.00  0.00     0.381 N 
ATOM     19  H   LIG d   1      -4.905  74.711 116.580  0.00  0.00    -0.090 HD
ATOM     20  H   LIG d   1      -5.348  76.094 115.851  0.00  0.00    -0.090 HD
ATOM     21  H   LIG d   1      -5.314  76.008 117.487  0.00  0.00    -0.090 HD
ENDBRANCH   5  18
BRANCH   3  22
ATOM     22  C   LIG d   1      -0.411  74.636 115.267  0.00  0.00     0.382 C 
ATOM     23  O   LIG d   1      -0.204  73.744 116.125  0.00  0.00    -0.241 OA
ATOM     24  O   LIG d   1       0.272  74.656 114.226  0.00  0.00    -0.241 OA
ENDBRANCH   3  22
TORSDOF 7
ENDMDL
MODEL 8
REMARK VINA RESULT:      -4.4      2.450      5.509
REMARK  7 active torsions:
REMARK  status: ('A' for Active; 'I' for Inactive)
REMARK    1  A    between atoms: C_2  and  C_3 
REMARK    2  A    between atoms: C_3  and  O_6 
REMARK    3  A    between atoms: C_3  and  C_4 
REMARK    4  A    between atoms: C_7  and  O_6 
REMARK    5  A    between atoms: C_9  and  C_10 
REMARK    6  A    between atoms: N_15  and  C_14 
REMARK    7  A    between atoms: N_20  and  C_19 
REMARK       I    between atoms: C_22  and  N_20 
ROOT
ATOM      1  C   LIG d   1      -1.118  77.287 114.475  0.00  0.00     0.161 C 
ATOM      2  C   LIG d   1      -2.298  76.545 114.649  0.00  0.00     0.016 C 
ATOM      3  C   LIG d   1      -3.584  77.044 114.338  0.00  0.00     0.038 C 
ATOM      4  C   LIG d   1      -3.764  78.273 113.685  0.00  0.00     0.028 C 
ATOM      5  C   LIG d   1      -2.641  79.270 113.950  0.00  0.00    -0.047 C 
ATOM      6  C   LIG d   1      -1.285  78.587 113.661  0.00  0.00     0.091 C 
ENDROOT
BRANCH   1   7
ATOM      7  O   LIG d   1      -0.100  76.454 113.886  0.00  0.00    -0.368 OA
BRANCH   7   8
ATOM      8  C   LIG d   1       0.772  75.761 114.813  0.00  0.00     0.119 C 
BRANCH   8   9
ATOM      9  C   LIG d   1       1.799  74.970 113.979  0.00  0.00     0.028 C 
ATOM     10  C   LIG d   1       1.242  74.549 112.608  0.00  0.00     0.006 C 
ENDBRANCH   8   9
BRANCH   8  11
ATOM     11  C   LIG d   1       0.005  74.708 115.618  0.00  0.00     0.028 C 
ATOM     12  C   LIG d   1       0.159  74.890 117.136  0.00  0.00     0.006 C 
ENDBRANCH   8  11
ENDBRANCH   7   8
ENDBRANCH   1   7
BRANCH   6  13
ATOM     13  N   LIG d   1      -0.129  79.466 113.975  0.00  0.00    -0.311 N 
ATOM     14  C   LIG d   1       0.343  80.385 113.135  0.00  0.00     0.210 C 
ATOM     15  C   LIG d   1       1.555  81.170 113.648  0.00  0.00     0.109 C 
ATOM     16  O   LIG d   1      -0.146  80.647 112.026  0.00  0.00    -0.276 OA
ATOM     17  H   LIG d   1       0.309  79.342 114.867  0.00  0.00     0.149 HD
ENDBRANCH   6  13
BRANCH   5  18
ATOM     18  N   LIG d   1      -2.885  80.452 113.102  0.00  0.00     0.381 N 
ATOM     19  H   LIG d   1      -2.032  80.960 112.975  0.00  0.00    -0.090 HD
ATOM     20  H   LIG d   1      -3.545  81.053 113.564  0.00  0.00    -0.090 HD
ATOM     21  H   LIG d   1      -3.246  80.169 112.218  0.00  0.00    -0.090 HD
ENDBRANCH   5  18
BRANCH   3  22
ATOM     22  C   LIG d   1      -4.709  76.329 114.716  0.00  0.00     0.382 C 
ATOM     23  O   LIG d   1      -5.642  76.904 115.327  0.00  0.00    -0.241 OA
ATOM     24  O   LIG d   1      -4.784  75.105 114.494  0.00  0.00    -0.241 OA
ENDBRANCH   3  22
TORSDOF 7
ENDMDL
MODEL 9
REMARK VINA RESULT:      -4.4     13.539     16.006
REMARK  7 active torsions:
REMARK  status: ('A' for Active; 'I' for Inactive)
REMARK    1  A    between atoms: C_2  and  C_3 
REMARK    2  A    between atoms: C_3  and  O_6 
REMARK    3  A    between atoms: C_3  and  C_4 
REMARK    4  A    between atoms: C_7  and  O_6 
REMARK    5  A    between atoms: C_9  and  C_10 
REMARK    6  A    between atoms: N_15  and  C_14 
REMARK    7  A    between atoms: N_20  and  C_19 
REMARK       I    between atoms: C_22  and  N_20 
ROOT
ATOM      1  C   LIG d   1      12.316  77.392 114.582  0.00  0.00     0.161 C 
ATOM      2  C   LIG d   1      11.047  77.993 114.535  0.00  0.00     0.016 C 
ATOM      3  C   LIG d   1      10.236  78.189 115.676  0.00  0.00     0.038 C 
ATOM      4  C   LIG d   1      10.706  77.933 116.972  0.00  0.00     0.028 C 
ATOM      5  C   LIG d   1      11.785  76.857 117.024  0.00  0.00    -0.047 C 
ATOM      6  C   LIG d   1      12.891  77.207 116.002  0.00  0.00     0.091 C 
ENDROOT
BRANCH   1   7
ATOM      7  O   LIG d   1      13.239  78.133 113.760  0.00  0.00    -0.368 OA
BRANCH   7   8
ATOM      8  C   LIG d   1      13.827  79.311 114.365  0.00  0.00     0.119 C 
BRANCH   8   9
ATOM      9  C   LIG d   1      13.430  80.523 113.500  0.00  0.00     0.028 C 
ATOM     10  C   LIG d   1      13.077  80.123 112.057  0.00  0.00     0.006 C 
ENDBRANCH   8   9
BRANCH   8  11
ATOM     11  C   LIG d   1      15.356  79.259 114.314  0.00  0.00     0.028 C 
ATOM     12  C   LIG d   1      15.885  78.097 113.459  0.00  0.00     0.006 C 
ENDBRANCH   8  11
ENDBRANCH   7   8
ENDBRANCH   1   7
BRANCH   6  13
ATOM     13  N   LIG d   1      13.945  76.162 115.928  0.00  0.00    -0.311 N 
ATOM     14  C   LIG d   1      15.088  76.223 116.609  0.00  0.00     0.210 C 
ATOM     15  C   LIG d   1      16.046  75.051 116.373  0.00  0.00     0.109 C 
ATOM     16  O   LIG d   1      15.385  77.121 117.411  0.00  0.00    -0.276 OA
ATOM     17  H   LIG d   1      13.772  75.382 115.324  0.00  0.00     0.149 HD
ENDBRANCH   6  13
BRANCH   5  18
ATOM     18  N   LIG d   1      12.281  76.789 118.411  0.00  0.00     0.381 N 
ATOM     19  H   LIG d   1      12.971  77.498 118.560  0.00  0.00    -0.090 HD
ATOM     20  H   LIG d   1      12.712  75.894 118.559  0.00  0.00    -0.090 HD
ATOM     21  H   LIG d   1      11.526  76.911 119.050  0.00  0.00    -0.090 HD
ENDBRANCH   5  18
BRANCH   3  22
ATOM     22  C   LIG d   1       8.924  78.610 115.522  0.00  0.00     0.382 C 
ATOM     23  O   LIG d   1       8.178  78.045 114.687  0.00  0.00    -0.241 OA
ATOM     24  O   LIG d   1       8.490  79.577 116.176  0.00  0.00    -0.241 OA
ENDBRANCH   3  22
TORSDOF 7
ENDMDL
