MODEL 1
REMARK VINA RESULT:      -5.2      0.000      0.000
REMARK  7 active torsions:
REMARK  status: ('A' for Active; 'I' for Inactive)
REMARK    1  A    between atoms: C_2  and  C_3 
REMARK    2  A    between atoms: C_3  and  O_6 
REMARK    3  A    between atoms: C_3  and  C_4 
REMARK    4  A    between atoms: C_7  and  O_6 
REMARK    5  A    between atoms: C_9  and  C_10 
REMARK    6  A    between atoms: N_15  and  C_14 
REMARK    7  A    between atoms: N_20  and  C_19 
REMARK       I    between atoms: C_22  and  N_20 
ROOT
ATOM      1  C   LIG d   1      -3.096  89.847 117.056  0.00  0.00     0.161 C 
ATOM      2  C   LIG d   1      -2.545  88.590 116.759  0.00  0.00     0.016 C 
ATOM      3  C   LIG d   1      -3.195  87.626 115.954  0.00  0.00     0.038 C 
ATOM      4  C   LIG d   1      -4.381  87.914 115.263  0.00  0.00     0.028 C 
ATOM      5  C   LIG d   1      -5.227  88.990 115.936  0.00  0.00    -0.047 C 
ATOM      6  C   LIG d   1      -4.339  90.222 116.221  0.00  0.00     0.091 C 
ENDROOT
BRANCH   1   7
ATOM      7  O   LIG d   1      -2.084  90.866 116.933  0.00  0.00    -0.368 OA
BRANCH   7   8
ATOM      8  C   LIG d   1      -1.674  91.508 118.165  0.00  0.00     0.119 C 
BRANCH   8   9
ATOM      9  C   LIG d   1      -2.139  92.976 118.099  0.00  0.00     0.028 C 
ATOM     10  C   LIG d   1      -0.982  93.945 117.798  0.00  0.00     0.006 C 
ENDBRANCH   8   9
BRANCH   8  11
ATOM     11  C   LIG d   1      -0.148  91.571 118.281  0.00  0.00     0.028 C 
ATOM     12  C   LIG d   1       0.565  90.725 117.213  0.00  0.00     0.006 C 
ENDBRANCH   8  11
ENDBRANCH   7   8
ENDBRANCH   1   7
BRANCH   6  13
ATOM     13  N   LIG d   1      -5.068  91.289 116.954  0.00  0.00    -0.311 N 
ATOM     14  C   LIG d   1      -5.606  92.352 116.358  0.00  0.00     0.210 C 
ATOM     15  C   LIG d   1      -6.296  93.342 117.302  0.00  0.00     0.109 C 
ATOM     16  O   LIG d   1      -5.606  92.552 115.134  0.00  0.00    -0.276 OA
ATOM     17  H   LIG d   1      -5.143  91.191 117.948  0.00  0.00     0.149 HD
ENDBRANCH   6  13
BRANCH   5  18
ATOM     18  N   LIG d   1      -6.361  89.289 115.042  0.00  0.00     0.381 N 
ATOM     19  H   LIG d   1      -7.085  88.610 115.173  0.00  0.00    -0.090 HD
ATOM     20  H   LIG d   1      -6.047  89.234 114.089  0.00  0.00    -0.090 HD
ATOM     21  H   LIG d   1      -6.714  90.201 115.231  0.00  0.00    -0.090 HD
ENDBRANCH   5  18
BRANCH   3  22
ATOM     22  C   LIG d   1      -2.677  86.342 115.866  0.00  0.00     0.382 C 
ATOM     23  O   LIG d   1      -2.414  85.699 116.911  0.00  0.00    -0.241 OA
ATOM     24  O   LIG d   1      -2.428  85.836 114.756  0.00  0.00    -0.241 OA
ENDBRANCH   3  22
TORSDOF 7
ENDMDL
MODEL 2
REMARK VINA RESULT:      -5.1      1.679      4.604
REMARK  7 active torsions:
REMARK  status: ('A' for Active; 'I' for Inactive)
REMARK    1  A    between atoms: C_2  and  C_3 
REMARK    2  A    between atoms: C_3  and  O_6 
REMARK    3  A    between atoms: C_3  and  C_4 
REMARK    4  A    between atoms: C_7  and  O_6 
REMARK    5  A    between atoms: C_9  and  C_10 
REMARK    6  A    between atoms: N_15  and  C_14 
REMARK    7  A    between atoms: N_20  and  C_19 
REMARK       I    between atoms: C_22  and  N_20 
ROOT
ATOM      1  C   LIG d   1      -2.871  90.583 116.902  0.00  0.00     0.161 C 
ATOM      2  C   LIG d   1      -3.879  91.536 116.682  0.00  0.00     0.016 C 
ATOM      3  C   LIG d   1      -5.050  91.271 115.934  0.00  0.00     0.038 C 
ATOM      4  C   LIG d   1      -5.365  89.982 115.481  0.00  0.00     0.028 C 
ATOM      5  C   LIG d   1      -4.138  89.107 115.246  0.00  0.00    -0.047 C 
ATOM      6  C   LIG d   1      -3.249  89.139 116.509  0.00  0.00     0.091 C 
ENDROOT
BRANCH   1   7
ATOM      7  O   LIG d   1      -2.444  90.632 118.278  0.00  0.00    -0.368 OA
BRANCH   7   8
ATOM      8  C   LIG d   1      -1.185  91.302 118.531  0.00  0.00     0.119 C 
BRANCH   8   9
ATOM      9  C   LIG d   1      -1.463  92.817 118.555  0.00  0.00     0.028 C 
ATOM     10  C   LIG d   1      -0.498  93.605 117.653  0.00  0.00     0.006 C 
ENDBRANCH   8   9
BRANCH   8  11
ATOM     11  C   LIG d   1      -0.199  91.088 117.379  0.00  0.00     0.028 C 
ATOM     12  C   LIG d   1       0.903  90.072 117.718  0.00  0.00     0.006 C 
ENDBRANCH   8  11
ENDBRANCH   7   8
ENDBRANCH   1   7
BRANCH   6  13
ATOM     13  N   LIG d   1      -1.986  88.376 116.333  0.00  0.00    -0.311 N 
ATOM     14  C   LIG d   1      -1.708  87.254 116.997  0.00  0.00     0.210 C 
ATOM     15  C   LIG d   1      -0.342  86.638 116.681  0.00  0.00     0.109 C 
ATOM     16  O   LIG d   1      -2.477  86.695 117.793  0.00  0.00    -0.276 OA
ATOM     17  H   LIG d   1      -1.318  88.742 115.683  0.00  0.00     0.149 HD
ENDBRANCH   6  13
BRANCH   5  18
ATOM     18  N   LIG d   1      -4.615  87.752 114.909  0.00  0.00     0.381 N 
ATOM     19  H   LIG d   1      -5.425  87.533 115.454  0.00  0.00    -0.090 HD
ATOM     20  H   LIG d   1      -3.895  87.088 115.134  0.00  0.00    -0.090 HD
ATOM     21  H   LIG d   1      -4.835  87.699 113.939  0.00  0.00    -0.090 HD
ENDBRANCH   5  18
BRANCH   3  22
ATOM     22  C   LIG d   1      -5.901  92.313 115.600  0.00  0.00     0.382 C 
ATOM     23  O   LIG d   1      -6.142  92.563 114.394  0.00  0.00    -0.241 OA
ATOM     24  O   LIG d   1      -6.396  93.035 116.487  0.00  0.00    -0.241 OA
ENDBRANCH   3  22
TORSDOF 7
ENDMDL
MODEL 3
REMARK VINA RESULT:      -4.7     11.285     13.986
REMARK  7 active torsions:
REMARK  status: ('A' for Active; 'I' for Inactive)
REMARK    1  A    between atoms: C_2  and  C_3 
REMARK    2  A    between atoms: C_3  and  O_6 
REMARK    3  A    between atoms: C_3  and  C_4 
REMARK    4  A    between atoms: C_7  and  O_6 
REMARK    5  A    between atoms: C_9  and  C_10 
REMARK    6  A    between atoms: N_15  and  C_14 
REMARK    7  A    between atoms: N_20  and  C_19 
REMARK       I    between atoms: C_22  and  N_20 
ROOT
ATOM      1  C   LIG d   1      -1.919  77.526 116.248  0.00  0.00     0.161 C 
ATOM      2  C   LIG d   1      -0.631  77.940 116.627  0.00  0.00     0.016 C 
ATOM      3  C   LIG d   1       0.337  77.067 117.176  0.00  0.00     0.038 C 
ATOM      4  C   LIG d   1       0.133  75.681 117.242  0.00  0.00     0.028 C 
ATOM      5  C   LIG d   1      -1.338  75.290 117.340  0.00  0.00    -0.047 C 
ATOM      6  C   LIG d   1      -2.121  75.997 116.210  0.00  0.00     0.091 C 
ENDROOT
BRANCH   1   7
ATOM      7  O   LIG d   1      -2.265  78.109 114.976  0.00  0.00    -0.368 OA
BRANCH   7   8
ATOM      8  C   LIG d   1      -1.218  78.120 113.974  0.00  0.00     0.119 C 
BRANCH   8   9
ATOM      9  C   LIG d   1      -1.127  79.553 113.415  0.00  0.00     0.028 C 
ATOM     10  C   LIG d   1      -1.899  80.568 114.275  0.00  0.00     0.006 C 
ENDBRANCH   8   9
BRANCH   8  11
ATOM     11  C   LIG d   1      -1.585  77.240 112.776  0.00  0.00     0.028 C 
ATOM     12  C   LIG d   1      -2.712  77.838 111.919  0.00  0.00     0.006 C 
ENDBRANCH   8  11
ENDBRANCH   7   8
ENDBRANCH   1   7
BRANCH   6  13
ATOM     13  N   LIG d   1      -3.582  75.735 116.284  0.00  0.00    -0.311 N 
ATOM     14  C   LIG d   1      -4.305  75.316 115.247  0.00  0.00     0.210 C 
ATOM     15  C   LIG d   1      -5.798  75.127 115.533  0.00  0.00     0.109 C 
ATOM     16  O   LIG d   1      -3.846  75.051 114.125  0.00  0.00    -0.276 OA
ATOM     17  H   LIG d   1      -4.031  75.894 117.165  0.00  0.00     0.149 HD
ENDBRANCH   6  13
BRANCH   5  18
ATOM     18  N   LIG d   1      -1.414  73.819 117.263  0.00  0.00     0.381 N 
ATOM     19  H   LIG d   1      -2.249  73.547 116.784  0.00  0.00    -0.090 HD
ATOM     20  H   LIG d   1      -1.450  73.446 118.195  0.00  0.00    -0.090 HD
ATOM     21  H   LIG d   1      -0.617  73.461 116.784  0.00  0.00    -0.090 HD
ENDBRANCH   5  18
BRANCH   3  22
ATOM     22  C   LIG d   1       1.511  77.586 117.702  0.00  0.00     0.382 C 
ATOM     23  O   LIG d   1       1.554  78.782 118.079  0.00  0.00    -0.241 OA
ATOM     24  O   LIG d   1       2.539  76.886 117.762  0.00  0.00    -0.241 OA
ENDBRANCH   3  22
TORSDOF 7
ENDMDL
MODEL 4
REMARK VINA RESULT:      -4.7      8.305     11.217
REMARK  7 active torsions:
REMARK  status: ('A' for Active; 'I' for Inactive)
REMARK    1  A    between atoms: C_2  and  C_3 
REMARK    2  A    between atoms: C_3  and  O_6 
REMARK    3  A    between atoms: C_3  and  C_4 
REMARK    4  A    between atoms: C_7  and  O_6 
REMARK    5  A    between atoms: C_9  and  C_10 
REMARK    6  A    between atoms: N_15  and  C_14 
REMARK    7  A    between atoms: N_20  and  C_19 
REMARK       I    between atoms: C_22  and  N_20 
ROOT
ATOM      1  C   LIG d   1      -0.360  80.097 115.646  0.00  0.00     0.161 C 
ATOM      2  C   LIG d   1      -1.005  80.929 114.715  0.00  0.00     0.016 C 
ATOM      3  C   LIG d   1      -2.042  80.485 113.863  0.00  0.00     0.038 C 
ATOM      4  C   LIG d   1      -2.612  79.210 113.990  0.00  0.00     0.028 C 
ATOM      5  C   LIG d   1      -1.655  78.174 114.571  0.00  0.00    -0.047 C 
ATOM      6  C   LIG d   1      -1.043  78.733 115.876  0.00  0.00     0.091 C 
ENDROOT
BRANCH   1   7
ATOM      7  O   LIG d   1      -0.201  80.795 116.897  0.00  0.00    -0.368 OA
BRANCH   7   8
ATOM      8  C   LIG d   1       0.057  82.218 116.805  0.00  0.00     0.119 C 
BRANCH   8   9
ATOM      9  C   LIG d   1       1.572  82.427 116.999  0.00  0.00     0.028 C 
ATOM     10  C   LIG d   1       2.194  83.283 115.883  0.00  0.00     0.006 C 
ENDBRANCH   8   9
BRANCH   8  11
ATOM     11  C   LIG d   1      -0.608  82.980 117.954  0.00  0.00     0.028 C 
ATOM     12  C   LIG d   1      -1.394  84.212 117.476  0.00  0.00     0.006 C 
ENDBRANCH   8  11
ENDBRANCH   7   8
ENDBRANCH   1   7
BRANCH   6  13
ATOM     13  N   LIG d   1      -0.032  77.817 116.465  0.00  0.00    -0.311 N 
ATOM     14  C   LIG d   1      -0.315  76.923 117.411  0.00  0.00     0.210 C 
ATOM     15  C   LIG d   1       0.878  76.092 117.894  0.00  0.00     0.109 C 
ATOM     16  O   LIG d   1      -1.448  76.716 117.873  0.00  0.00    -0.276 OA
ATOM     17  H   LIG d   1       0.907  77.895 116.126  0.00  0.00     0.149 HD
ENDBRANCH   6  13
BRANCH   5  18
ATOM     18  N   LIG d   1      -2.418  76.929 114.776  0.00  0.00     0.381 N 
ATOM     19  H   LIG d   1      -1.810  76.212 115.120  0.00  0.00    -0.090 HD
ATOM     20  H   LIG d   1      -2.793  76.628 113.894  0.00  0.00    -0.090 HD
ATOM     21  H   LIG d   1      -3.158  77.085 115.424  0.00  0.00    -0.090 HD
ENDBRANCH   5  18
BRANCH   3  22
ATOM     22  C   LIG d   1      -2.493  81.310 112.843  0.00  0.00     0.382 C 
ATOM     23  O   LIG d   1      -1.675  81.989 112.178  0.00  0.00    -0.241 OA
ATOM     24  O   LIG d   1      -3.712  81.416 112.609  0.00  0.00    -0.241 OA
ENDBRANCH   3  22
TORSDOF 7
ENDMDL
MODEL 5
REMARK VINA RESULT:      -4.7      4.986      8.024
REMARK  7 active torsions:
REMARK  status: ('A' for Active; 'I' for Inactive)
REMARK    1  A    between atoms: C_2  and  C_3 
REMARK    2  A    between atoms: C_3  and  O_6 
REMARK    3  A    between atoms: C_3  and  C_4 
REMARK    4  A    between atoms: C_7  and  O_6 
REMARK    5  A    between atoms: C_9  and  C_10 
REMARK    6  A    between atoms: N_15  and  C_14 
REMARK    7  A    between atoms: N_20  and  C_19 
REMARK       I    between atoms: C_22  and  N_20 
ROOT
ATOM      1  C   LIG d   1      -0.557  85.194 114.351  0.00  0.00     0.161 C 
ATOM      2  C   LIG d   1       0.373  86.229 114.157  0.00  0.00     0.016 C 
ATOM      3  C   LIG d   1       1.458  86.140 113.255  0.00  0.00     0.038 C 
ATOM      4  C   LIG d   1       1.600  85.062 112.369  0.00  0.00     0.028 C 
ATOM      5  C   LIG d   1       0.974  83.770 112.883  0.00  0.00    -0.047 C 
ATOM      6  C   LIG d   1      -0.483  84.055 113.313  0.00  0.00     0.091 C 
ENDROOT
BRANCH   1   7
ATOM      7  O   LIG d   1      -1.890  85.739 114.403  0.00  0.00    -0.368 OA
BRANCH   7   8
ATOM      8  C   LIG d   1      -2.537  85.719 115.699  0.00  0.00     0.119 C 
BRANCH   8   9
ATOM      9  C   LIG d   1      -2.445  87.142 116.284  0.00  0.00     0.028 C 
ATOM     10  C   LIG d   1      -3.651  88.015 115.899  0.00  0.00     0.006 C 
ENDBRANCH   8   9
BRANCH   8  11
ATOM     11  C   LIG d   1      -1.781  84.825 116.686  0.00  0.00     0.028 C 
ATOM     12  C   LIG d   1      -1.745  85.405 118.109  0.00  0.00     0.006 C 
ENDBRANCH   8  11
ENDBRANCH   7   8
ENDBRANCH   1   7
BRANCH   6  13
ATOM     13  N   LIG d   1      -1.142  82.862 113.907  0.00  0.00    -0.311 N 
ATOM     14  C   LIG d   1      -1.849  81.985 113.196  0.00  0.00     0.210 C 
ATOM     15  C   LIG d   1      -2.460  80.838 114.007  0.00  0.00     0.109 C 
ATOM     16  O   LIG d   1      -2.000  82.030 111.966  0.00  0.00    -0.276 OA
ATOM     17  H   LIG d   1      -1.044  82.731 114.895  0.00  0.00     0.149 HD
ENDBRANCH   6  13
BRANCH   5  18
ATOM     18  N   LIG d   1       1.073  82.767 111.805  0.00  0.00     0.381 N 
ATOM     19  H   LIG d   1       0.727  83.154 110.950  0.00  0.00    -0.090 HD
ATOM     20  H   LIG d   1       0.505  81.974 112.046  0.00  0.00    -0.090 HD
ATOM     21  H   LIG d   1       2.021  82.483 111.690  0.00  0.00    -0.090 HD
ENDBRANCH   5  18
BRANCH   3  22
ATOM     22  C   LIG d   1       2.439  87.121 113.261  0.00  0.00     0.382 C 
ATOM     23  O   LIG d   1       2.614  87.839 112.247  0.00  0.00    -0.241 OA
ATOM     24  O   LIG d   1       3.179  87.267 114.252  0.00  0.00    -0.241 OA
ENDBRANCH   3  22
TORSDOF 7
ENDMDL
MODEL 6
REMARK VINA RESULT:      -4.5      9.705     12.491
REMARK  7 active torsions:
REMARK  status: ('A' for Active; 'I' for Inactive)
REMARK    1  A    between atoms: C_2  and  C_3 
REMARK    2  A    between atoms: C_3  and  O_6 
REMARK    3  A    between atoms: C_3  and  C_4 
REMARK    4  A    between atoms: C_7  and  O_6 
REMARK    5  A    between atoms: C_9  and  C_10 
REMARK    6  A    between atoms: N_15  and  C_14 
REMARK    7  A    between atoms: N_20  and  C_19 
REMARK       I    between atoms: C_22  and  N_20 
ROOT
ATOM      1  C   LIG d   1      -1.258  78.188 115.475  0.00  0.00     0.161 C 
ATOM      2  C   LIG d   1      -2.101  77.096 115.210  0.00  0.00     0.016 C 
ATOM      3  C   LIG d   1      -2.900  76.995 114.048  0.00  0.00     0.038 C 
ATOM      4  C   LIG d   1      -2.795  77.913 112.993  0.00  0.00     0.028 C 
ATOM      5  C   LIG d   1      -2.331  79.296 113.438  0.00  0.00    -0.047 C 
ATOM      6  C   LIG d   1      -1.046  79.146 114.284  0.00  0.00     0.091 C 
ENDROOT
BRANCH   1   7
ATOM      7  O   LIG d   1       0.011  77.716 115.970  0.00  0.00    -0.368 OA
BRANCH   7   8
ATOM      8  C   LIG d   1       0.125  77.585 117.409  0.00  0.00     0.119 C 
BRANCH   8   9
ATOM      9  C   LIG d   1       1.150  78.631 117.888  0.00  0.00     0.028 C 
ATOM     10  C   LIG d   1       0.492  79.970 118.261  0.00  0.00     0.006 C 
ENDBRANCH   8   9
BRANCH   8  11
ATOM     11  C   LIG d   1       0.718  76.228 117.800  0.00  0.00     0.028 C 
ATOM     12  C   LIG d   1      -0.347  75.127 117.925  0.00  0.00     0.006 C 
ENDBRANCH   8  11
ENDBRANCH   7   8
ENDBRANCH   1   7
BRANCH   6  13
ATOM     13  N   LIG d   1      -0.572  80.444 114.830  0.00  0.00    -0.311 N 
ATOM     14  C   LIG d   1       0.291  81.235 114.195  0.00  0.00     0.210 C 
ATOM     15  C   LIG d   1       0.663  82.519 114.944  0.00  0.00     0.109 C 
ATOM     16  O   LIG d   1       0.760  81.011 113.069  0.00  0.00    -0.276 OA
ATOM     17  H   LIG d   1      -0.925  80.719 115.726  0.00  0.00     0.149 HD
ENDBRANCH   6  13
BRANCH   5  18
ATOM     18  N   LIG d   1      -2.132  80.112 112.225  0.00  0.00     0.381 N 
ATOM     19  H   LIG d   1      -2.422  81.053 112.399  0.00  0.00    -0.090 HD
ATOM     20  H   LIG d   1      -2.701  79.738 111.486  0.00  0.00    -0.090 HD
ATOM     21  H   LIG d   1      -1.173  80.096 111.957  0.00  0.00    -0.090 HD
ENDBRANCH   5  18
BRANCH   3  22
ATOM     22  C   LIG d   1      -3.846  75.986 113.950  0.00  0.00     0.382 C 
ATOM     23  O   LIG d   1      -3.732  74.949 114.648  0.00  0.00    -0.241 OA
ATOM     24  O   LIG d   1      -4.789  76.079 113.141  0.00  0.00    -0.241 OA
ENDBRANCH   3  22
TORSDOF 7
ENDMDL
MODEL 7
REMARK VINA RESULT:      -4.5      9.240     12.106
REMARK  7 active torsions:
REMARK  status: ('A' for Active; 'I' for Inactive)
REMARK    1  A    between atoms: C_2  and  C_3 
REMARK    2  A    between atoms: C_3  and  O_6 
REMARK    3  A    between atoms: C_3  and  C_4 
REMARK    4  A    between atoms: C_7  and  O_6 
REMARK    5  A    between atoms: C_9  and  C_10 
REMARK    6  A    between atoms: N_15  and  C_14 
REMARK    7  A    between atoms: N_20  and  C_19 
REMARK       I    between atoms: C_22  and  N_20 
ROOT
ATOM      1  C   LIG d   1      -1.543  78.819 114.438  0.00  0.00     0.161 C 
ATOM      2  C   LIG d   1      -2.288  77.628 114.401  0.00  0.00     0.016 C 
ATOM      3  C   LIG d   1      -2.159  76.600 115.363  0.00  0.00     0.038 C 
ATOM      4  C   LIG d   1      -1.381  76.760 116.519  0.00  0.00     0.028 C 
ATOM      5  C   LIG d   1      -0.225  77.738 116.341  0.00  0.00    -0.047 C 
ATOM      6  C   LIG d   1      -0.771  79.058 115.752  0.00  0.00     0.091 C 
ENDROOT
BRANCH   1   7
ATOM      7  O   LIG d   1      -2.401  79.941 114.149  0.00  0.00    -0.368 OA
BRANCH   7   8
ATOM      8  C   LIG d   1      -2.145  80.635 112.904  0.00  0.00     0.119 C 
BRANCH   8   9
ATOM      9  C   LIG d   1      -0.964  79.926 112.212  0.00  0.00     0.028 C 
ATOM     10  C   LIG d   1       0.210  80.878 111.932  0.00  0.00     0.006 C 
ENDBRANCH   8   9
BRANCH   8  11
ATOM     11  C   LIG d   1      -1.666  82.069 113.153  0.00  0.00     0.028 C 
ATOM     12  C   LIG d   1      -2.040  82.587 114.551  0.00  0.00     0.006 C 
ENDBRANCH   8  11
ENDBRANCH   7   8
ENDBRANCH   1   7
BRANCH   6  13
ATOM     13  N   LIG d   1       0.307  80.041 115.467  0.00  0.00    -0.311 N 
ATOM     14  C   LIG d   1       0.693  80.978 116.332  0.00  0.00     0.210 C 
ATOM     15  C   LIG d   1       1.808  81.901 115.831  0.00  0.00     0.109 C 
ATOM     16  O   LIG d   1       0.239  81.111 117.479  0.00  0.00    -0.276 OA
ATOM     17  H   LIG d   1       0.751  79.984 114.571  0.00  0.00     0.149 HD
ENDBRANCH   6  13
BRANCH   5  18
ATOM     18  N   LIG d   1       0.418  77.913 117.657  0.00  0.00     0.381 N 
ATOM     19  H   LIG d   1       1.006  78.723 117.642  0.00  0.00    -0.090 HD
ATOM     20  H   LIG d   1       0.991  77.111 117.849  0.00  0.00    -0.090 HD
ATOM     21  H   LIG d   1      -0.277  78.012 118.365  0.00  0.00    -0.090 HD
ENDBRANCH   5  18
BRANCH   3  22
ATOM     22  C   LIG d   1      -2.783  75.380 115.152  0.00  0.00     0.382 C 
ATOM     23  O   LIG d   1      -2.456  74.382 115.838  0.00  0.00    -0.241 OA
ATOM     24  O   LIG d   1      -3.638  75.254 114.255  0.00  0.00    -0.241 OA
ENDBRANCH   3  22
TORSDOF 7
ENDMDL
MODEL 8
REMARK VINA RESULT:      -4.5      5.200      7.144
REMARK  7 active torsions:
REMARK  status: ('A' for Active; 'I' for Inactive)
REMARK    1  A    between atoms: C_2  and  C_3 
REMARK    2  A    between atoms: C_3  and  O_6 
REMARK    3  A    between atoms: C_3  and  C_4 
REMARK    4  A    between atoms: C_7  and  O_6 
REMARK    5  A    between atoms: C_9  and  C_10 
REMARK    6  A    between atoms: N_15  and  C_14 
REMARK    7  A    between atoms: N_20  and  C_19 
REMARK       I    between atoms: C_22  and  N_20 
ROOT
ATOM      1  C   LIG d   1       1.810  86.169 114.290  0.00  0.00     0.161 C 
ATOM      2  C   LIG d   1       1.312  85.133 113.483  0.00  0.00     0.016 C 
ATOM      3  C   LIG d   1      -0.053  84.768 113.439  0.00  0.00     0.038 C 
ATOM      4  C   LIG d   1      -1.042  85.518 114.092  0.00  0.00     0.028 C 
ATOM      5  C   LIG d   1      -0.527  86.263 115.319  0.00  0.00    -0.047 C 
ATOM      6  C   LIG d   1       0.730  87.071 114.924  0.00  0.00     0.091 C 
ENDROOT
BRANCH   1   7
ATOM      7  O   LIG d   1       2.750  86.965 113.541  0.00  0.00    -0.368 OA
BRANCH   7   8
ATOM      8  C   LIG d   1       4.152  86.702 113.795  0.00  0.00     0.119 C 
BRANCH   8   9
ATOM      9  C   LIG d   1       4.747  87.962 114.454  0.00  0.00     0.028 C 
ATOM     10  C   LIG d   1       5.700  88.721 113.516  0.00  0.00     0.006 C 
ENDBRANCH   8   9
BRANCH   8  11
ATOM     11  C   LIG d   1       4.931  86.522 112.489  0.00  0.00     0.028 C 
ATOM     12  C   LIG d   1       4.646  85.175 111.806  0.00  0.00     0.006 C 
ENDBRANCH   8  11
ENDBRANCH   7   8
ENDBRANCH   1   7
BRANCH   6  13
ATOM     13  N   LIG d   1       1.347  87.763 116.086  0.00  0.00    -0.311 N 
ATOM     14  C   LIG d   1       1.682  89.052 116.078  0.00  0.00     0.210 C 
ATOM     15  C   LIG d   1       2.323  89.561 117.373  0.00  0.00     0.109 C 
ATOM     16  O   LIG d   1       1.481  89.829 115.133  0.00  0.00    -0.276 OA
ATOM     17  H   LIG d   1       1.517  87.214 116.906  0.00  0.00     0.149 HD
ENDBRANCH   6  13
BRANCH   5  18
ATOM     18  N   LIG d   1      -1.626  87.110 115.819  0.00  0.00     0.381 N 
ATOM     19  H   LIG d   1      -1.291  88.040 115.978  0.00  0.00    -0.090 HD
ATOM     20  H   LIG d   1      -1.951  86.738 116.694  0.00  0.00    -0.090 HD
ATOM     21  H   LIG d   1      -2.372  87.127 115.159  0.00  0.00    -0.090 HD
ENDBRANCH   5  18
BRANCH   3  22
ATOM     22  C   LIG d   1      -0.435  83.616 112.768  0.00  0.00     0.382 C 
ATOM     23  O   LIG d   1       0.419  82.942 112.143  0.00  0.00    -0.241 OA
ATOM     24  O   LIG d   1      -1.630  83.266 112.744  0.00  0.00    -0.241 OA
ENDBRANCH   3  22
TORSDOF 7
ENDMDL
MODEL 9
REMARK VINA RESULT:      -4.4     11.395     14.016
REMARK  7 active torsions:
REMARK  status: ('A' for Active; 'I' for Inactive)
REMARK    1  A    between atoms: C_2  and  C_3 
REMARK    2  A    between atoms: C_3  and  O_6 
REMARK    3  A    between atoms: C_3  and  C_4 
REMARK    4  A    between atoms: C_7  and  O_6 
REMARK    5  A    between atoms: C_9  and  C_10 
REMARK    6  A    between atoms: N_15  and  C_14 
REMARK    7  A    between atoms: N_20  and  C_19 
REMARK       I    between atoms: C_22  and  N_20 
ROOT
ATOM      1  C   LIG d   1      -0.742  76.612 114.761  0.00  0.00     0.161 C 
ATOM      2  C   LIG d   1      -0.335  75.821 115.848  0.00  0.00     0.016 C 
ATOM      3  C   LIG d   1      -0.009  76.351 117.118  0.00  0.00     0.038 C 
ATOM      4  C   LIG d   1      -0.215  77.703 117.431  0.00  0.00     0.028 C 
ATOM      5  C   LIG d   1      -0.144  78.624 116.218  0.00  0.00    -0.047 C 
ATOM      6  C   LIG d   1      -1.079  78.075 115.116  0.00  0.00     0.091 C 
ENDROOT
BRANCH   1   7
ATOM      7  O   LIG d   1      -1.857  75.989 114.093  0.00  0.00    -0.368 OA
BRANCH   7   8
ATOM      8  C   LIG d   1      -3.153  76.165 114.718  0.00  0.00     0.119 C 
BRANCH   8   9
ATOM      9  C   LIG d   1      -3.458  74.885 115.519  0.00  0.00     0.028 C 
ATOM     10  C   LIG d   1      -3.425  75.122 117.039  0.00  0.00     0.006 C 
ENDBRANCH   8   9
BRANCH   8  11
ATOM     11  C   LIG d   1      -4.267  76.263 113.671  0.00  0.00     0.028 C 
ATOM     12  C   LIG d   1      -5.376  75.220 113.882  0.00  0.00     0.006 C 
ENDBRANCH   8  11
ENDBRANCH   7   8
ENDBRANCH   1   7
BRANCH   6  13
ATOM     13  N   LIG d   1      -1.005  78.871 113.863  0.00  0.00    -0.311 N 
ATOM     14  C   LIG d   1      -2.040  79.539 113.357  0.00  0.00     0.210 C 
ATOM     15  C   LIG d   1      -1.754  80.278 112.046  0.00  0.00     0.109 C 
ATOM     16  O   LIG d   1      -3.159  79.617 113.887  0.00  0.00    -0.276 OA
ATOM     17  H   LIG d   1      -0.126  78.888 113.384  0.00  0.00     0.149 HD
ENDBRANCH   6  13
BRANCH   5  18
ATOM     18  N   LIG d   1      -0.512  79.980 116.666  0.00  0.00     0.381 N 
ATOM     19  H   LIG d   1      -1.419  79.964 117.086  0.00  0.00    -0.090 HD
ATOM     20  H   LIG d   1      -0.545  80.589 115.867  0.00  0.00    -0.090 HD
ATOM     21  H   LIG d   1       0.159  80.317 117.321  0.00  0.00    -0.090 HD
ENDBRANCH   5  18
BRANCH   3  22
ATOM     22  C   LIG d   1       0.566  75.532 118.077  0.00  0.00     0.382 C 
ATOM     23  O   LIG d   1       1.752  75.728 118.439  0.00  0.00    -0.241 OA
ATOM     24  O   LIG d   1      -0.070  74.574 118.554  0.00  0.00    -0.241 OA
ENDBRANCH   3  22
TORSDOF 7
ENDMDL
