MODEL 1
REMARK VINA RESULT:      -6.0      0.000      0.000
REMARK  7 active torsions:
REMARK  status: ('A' for Active; 'I' for Inactive)
REMARK    1  A    between atoms: C_2  and  C_3 
REMARK    2  A    between atoms: C_3  and  O_6 
REMARK    3  A    between atoms: C_3  and  C_4 
REMARK    4  A    between atoms: C_7  and  O_6 
REMARK    5  A    between atoms: C_9  and  C_10 
REMARK    6  A    between atoms: N_15  and  C_14 
REMARK    7  A    between atoms: N_20  and  C_19 
REMARK       I    between atoms: C_22  and  N_20 
ROOT
ATOM      1  C   LIG d   1      -3.267  76.843 114.876  0.00  0.00     0.161 C 
ATOM      2  C   LIG d   1      -3.354  77.947 114.012  0.00  0.00     0.016 C 
ATOM      3  C   LIG d   1      -2.258  78.788 113.712  0.00  0.00     0.038 C 
ATOM      4  C   LIG d   1      -0.955  78.490 114.140  0.00  0.00     0.028 C 
ATOM      5  C   LIG d   1      -0.913  77.671 115.426  0.00  0.00    -0.047 C 
ATOM      6  C   LIG d   1      -1.830  76.437 115.265  0.00  0.00     0.091 C 
ENDROOT
BRANCH   1   7
ATOM      7  O   LIG d   1      -3.967  75.719 114.306  0.00  0.00    -0.368 OA
BRANCH   7   8
ATOM      8  C   LIG d   1      -5.106  75.230 115.057  0.00  0.00     0.119 C 
BRANCH   8   9
ATOM      9  C   LIG d   1      -5.561  73.912 114.401  0.00  0.00     0.028 C 
ATOM     10  C   LIG d   1      -6.456  73.074 115.329  0.00  0.00     0.006 C 
ENDBRANCH   8   9
BRANCH   8  11
ATOM     11  C   LIG d   1      -6.303  76.178 114.934  0.00  0.00     0.028 C 
ATOM     12  C   LIG d   1      -6.785  76.708 116.294  0.00  0.00     0.006 C 
ENDBRANCH   8  11
ENDBRANCH   7   8
ENDBRANCH   1   7
BRANCH   6  13
ATOM     13  N   LIG d   1      -1.912  75.626 116.508  0.00  0.00    -0.311 N 
ATOM     14  C   LIG d   1      -1.581  74.337 116.565  0.00  0.00     0.210 C 
ATOM     15  C   LIG d   1      -1.759  73.685 117.940  0.00  0.00     0.109 C 
ATOM     16  O   LIG d   1      -1.127  73.680 115.616  0.00  0.00    -0.276 OA
ATOM     17  H   LIG d   1      -2.241  76.088 117.333  0.00  0.00     0.149 HD
ENDBRANCH   6  13
BRANCH   5  18
ATOM     18  N   LIG d   1       0.496  77.316 115.682  0.00  0.00     0.381 N 
ATOM     19  H   LIG d   1       1.004  77.303 114.820  0.00  0.00    -0.090 HD
ATOM     20  H   LIG d   1       0.531  76.395 116.083  0.00  0.00    -0.090 HD
ATOM     21  H   LIG d   1       0.905  77.974 116.307  0.00  0.00    -0.090 HD
ENDBRANCH   5  18
BRANCH   3  22
ATOM     22  C   LIG d   1      -2.467  79.964 113.008  0.00  0.00     0.382 C 
ATOM     23  O   LIG d   1      -3.039  80.933 113.562  0.00  0.00    -0.241 OA
ATOM     24  O   LIG d   1      -2.130  80.053 111.812  0.00  0.00    -0.241 OA
ENDBRANCH   3  22
TORSDOF 7
ENDMDL
MODEL 2
REMARK VINA RESULT:      -5.5      1.514      4.690
REMARK  7 active torsions:
REMARK  status: ('A' for Active; 'I' for Inactive)
REMARK    1  A    between atoms: C_2  and  C_3 
REMARK    2  A    between atoms: C_3  and  O_6 
REMARK    3  A    between atoms: C_3  and  C_4 
REMARK    4  A    between atoms: C_7  and  O_6 
REMARK    5  A    between atoms: C_9  and  C_10 
REMARK    6  A    between atoms: N_15  and  C_14 
REMARK    7  A    between atoms: N_20  and  C_19 
REMARK       I    between atoms: C_22  and  N_20 
ROOT
ATOM      1  C   LIG d   1      -2.549  75.945 114.711  0.00  0.00     0.161 C 
ATOM      2  C   LIG d   1      -2.357  75.012 115.743  0.00  0.00     0.016 C 
ATOM      3  C   LIG d   1      -1.612  75.287 116.913  0.00  0.00     0.038 C 
ATOM      4  C   LIG d   1      -1.133  76.573 117.201  0.00  0.00     0.028 C 
ATOM      5  C   LIG d   1      -0.870  77.415 115.956  0.00  0.00    -0.047 C 
ATOM      6  C   LIG d   1      -2.127  77.389 115.058  0.00  0.00     0.091 C 
ENDROOT
BRANCH   1   7
ATOM      7  O   LIG d   1      -3.922  75.916 114.275  0.00  0.00    -0.368 OA
BRANCH   7   8
ATOM      8  C   LIG d   1      -4.859  75.258 115.163  0.00  0.00     0.119 C 
BRANCH   8   9
ATOM      9  C   LIG d   1      -5.682  74.268 114.316  0.00  0.00     0.028 C 
ATOM     10  C   LIG d   1      -6.218  73.090 115.147  0.00  0.00     0.006 C 
ENDBRANCH   8   9
BRANCH   8  11
ATOM     11  C   LIG d   1      -5.878  76.250 115.732  0.00  0.00     0.028 C 
ATOM     12  C   LIG d   1      -5.323  77.062 116.913  0.00  0.00     0.006 C 
ENDBRANCH   8  11
ENDBRANCH   7   8
ENDBRANCH   1   7
BRANCH   6  13
ATOM     13  N   LIG d   1      -1.926  78.118 113.779  0.00  0.00    -0.311 N 
ATOM     14  C   LIG d   1      -2.298  79.383 113.590  0.00  0.00     0.210 C 
ATOM     15  C   LIG d   1      -2.016  79.937 112.190  0.00  0.00     0.109 C 
ATOM     16  O   LIG d   1      -2.807  80.108 114.458  0.00  0.00    -0.276 OA
ATOM     17  H   LIG d   1      -1.491  77.615 113.030  0.00  0.00     0.149 HD
ENDBRANCH   6  13
BRANCH   5  18
ATOM     18  N   LIG d   1      -0.507  78.772 116.404  0.00  0.00     0.381 N 
ATOM     19  H   LIG d   1       0.402  79.011 116.062  0.00  0.00    -0.090 HD
ATOM     20  H   LIG d   1      -0.479  78.787 117.409  0.00  0.00    -0.090 HD
ATOM     21  H   LIG d   1      -1.178  79.431 116.074  0.00  0.00    -0.090 HD
ENDBRANCH   5  18
BRANCH   3  22
ATOM     22  C   LIG d   1      -1.306  74.258 117.790  0.00  0.00     0.382 C 
ATOM     23  O   LIG d   1      -0.316  74.360 118.555  0.00  0.00    -0.241 OA
ATOM     24  O   LIG d   1      -1.981  73.211 117.797  0.00  0.00    -0.241 OA
ENDBRANCH   3  22
TORSDOF 7
ENDMDL
MODEL 3
REMARK VINA RESULT:      -5.4     14.480     17.191
REMARK  7 active torsions:
REMARK  status: ('A' for Active; 'I' for Inactive)
REMARK    1  A    between atoms: C_2  and  C_3 
REMARK    2  A    between atoms: C_3  and  O_6 
REMARK    3  A    between atoms: C_3  and  C_4 
REMARK    4  A    between atoms: C_7  and  O_6 
REMARK    5  A    between atoms: C_9  and  C_10 
REMARK    6  A    between atoms: N_15  and  C_14 
REMARK    7  A    between atoms: N_20  and  C_19 
REMARK       I    between atoms: C_22  and  N_20 
ROOT
ATOM      1  C   LIG d   1     -16.464  66.175 114.027  0.00  0.00     0.161 C 
ATOM      2  C   LIG d   1     -15.859  66.994 113.059  0.00  0.00     0.016 C 
ATOM      3  C   LIG d   1     -15.175  68.192 113.369  0.00  0.00     0.038 C 
ATOM      4  C   LIG d   1     -14.919  68.577 114.694  0.00  0.00     0.028 C 
ATOM      5  C   LIG d   1     -15.946  68.047 115.689  0.00  0.00    -0.047 C 
ATOM      6  C   LIG d   1     -16.099  66.522 115.486  0.00  0.00     0.091 C 
ENDROOT
BRANCH   1   7
ATOM      7  O   LIG d   1     -16.168  64.792 113.752  0.00  0.00    -0.368 OA
BRANCH   7   8
ATOM      8  C   LIG d   1     -17.240  64.016 113.161  0.00  0.00     0.119 C 
BRANCH   8   9
ATOM      9  C   LIG d   1     -18.261  65.010 112.574  0.00  0.00     0.028 C 
ATOM     10  C   LIG d   1     -19.689  64.754 113.084  0.00  0.00     0.006 C 
ENDBRANCH   8   9
BRANCH   8  11
ATOM     11  C   LIG d   1     -18.009  63.227 114.225  0.00  0.00     0.028 C 
ATOM     12  C   LIG d   1     -17.935  61.707 114.009  0.00  0.00     0.006 C 
ENDBRANCH   8  11
ENDBRANCH   7   8
ENDBRANCH   1   7
BRANCH   6  13
ATOM     13  N   LIG d   1     -17.146  65.936 116.363  0.00  0.00    -0.311 N 
ATOM     14  C   LIG d   1     -16.915  64.939 117.215  0.00  0.00     0.210 C 
ATOM     15  C   LIG d   1     -18.139  64.471 118.010  0.00  0.00     0.109 C 
ATOM     16  O   LIG d   1     -15.807  64.419 117.412  0.00  0.00    -0.276 OA
ATOM     17  H   LIG d   1     -18.069  66.319 116.291  0.00  0.00     0.149 HD
ENDBRANCH   6  13
BRANCH   5  18
ATOM     18  N   LIG d   1     -15.482  68.407 117.042  0.00  0.00     0.381 N 
ATOM     19  H   LIG d   1     -14.632  68.930 116.981  0.00  0.00    -0.090 HD
ATOM     20  H   LIG d   1     -15.297  67.564 117.557  0.00  0.00    -0.090 HD
ATOM     21  H   LIG d   1     -16.179  68.944 117.509  0.00  0.00    -0.090 HD
ENDBRANCH   5  18
BRANCH   3  22
ATOM     22  C   LIG d   1     -14.775  69.039 112.347  0.00  0.00     0.382 C 
ATOM     23  O   LIG d   1     -15.553  69.932 111.932  0.00  0.00    -0.241 OA
ATOM     24  O   LIG d   1     -13.663  68.894 111.806  0.00  0.00    -0.241 OA
ENDBRANCH   3  22
TORSDOF 7
ENDMDL
MODEL 4
REMARK VINA RESULT:      -5.2     15.471     18.104
REMARK  7 active torsions:
REMARK  status: ('A' for Active; 'I' for Inactive)
REMARK    1  A    between atoms: C_2  and  C_3 
REMARK    2  A    between atoms: C_3  and  O_6 
REMARK    3  A    between atoms: C_3  and  C_4 
REMARK    4  A    between atoms: C_7  and  O_6 
REMARK    5  A    between atoms: C_9  and  C_10 
REMARK    6  A    between atoms: N_15  and  C_14 
REMARK    7  A    between atoms: N_20  and  C_19 
REMARK       I    between atoms: C_22  and  N_20 
ROOT
ATOM      1  C   LIG d   1     -16.262  65.640 116.096  0.00  0.00     0.161 C 
ATOM      2  C   LIG d   1     -15.817  66.871 115.587  0.00  0.00     0.016 C 
ATOM      3  C   LIG d   1     -15.827  67.193 114.210  0.00  0.00     0.038 C 
ATOM      4  C   LIG d   1     -16.427  66.356 113.257  0.00  0.00     0.028 C 
ATOM      5  C   LIG d   1     -16.433  64.885 113.661  0.00  0.00    -0.047 C 
ATOM      6  C   LIG d   1     -17.023  64.758 115.084  0.00  0.00     0.091 C 
ENDROOT
BRANCH   1   7
ATOM      7  O   LIG d   1     -17.065  65.859 117.273  0.00  0.00    -0.368 OA
BRANCH   7   8
ATOM      8  C   LIG d   1     -18.206  66.738 117.111  0.00  0.00     0.119 C 
BRANCH   8   9
ATOM      9  C   LIG d   1     -18.232  67.691 118.322  0.00  0.00     0.028 C 
ATOM     10  C   LIG d   1     -16.878  68.381 118.555  0.00  0.00     0.006 C 
ENDBRANCH   8   9
BRANCH   8  11
ATOM     11  C   LIG d   1     -19.523  65.960 117.178  0.00  0.00     0.028 C 
ATOM     12  C   LIG d   1     -19.436  64.719 118.081  0.00  0.00     0.006 C 
ENDBRANCH   8  11
ENDBRANCH   7   8
ENDBRANCH   1   7
BRANCH   6  13
ATOM     13  N   LIG d   1     -16.988  63.361 115.589  0.00  0.00    -0.311 N 
ATOM     14  C   LIG d   1     -17.999  62.505 115.449  0.00  0.00     0.210 C 
ATOM     15  C   LIG d   1     -17.763  61.120 116.061  0.00  0.00     0.109 C 
ATOM     16  O   LIG d   1     -19.055  62.751 114.848  0.00  0.00    -0.276 OA
ATOM     17  H   LIG d   1     -16.156  63.068 116.063  0.00  0.00     0.149 HD
ENDBRANCH   6  13
BRANCH   5  18
ATOM     18  N   LIG d   1     -17.208  64.148 112.646  0.00  0.00     0.381 N 
ATOM     19  H   LIG d   1     -18.103  64.579 112.523  0.00  0.00    -0.090 HD
ATOM     20  H   LIG d   1     -17.353  63.207 112.968  0.00  0.00    -0.090 HD
ATOM     21  H   LIG d   1     -16.715  64.138 111.780  0.00  0.00    -0.090 HD
ENDBRANCH   5  18
BRANCH   3  22
ATOM     22  C   LIG d   1     -15.195  68.346 113.769  0.00  0.00     0.382 C 
ATOM     23  O   LIG d   1     -15.097  68.576 112.540  0.00  0.00    -0.241 OA
ATOM     24  O   LIG d   1     -14.683  69.136 114.584  0.00  0.00    -0.241 OA
ENDBRANCH   3  22
TORSDOF 7
ENDMDL
MODEL 5
REMARK VINA RESULT:      -5.0      1.503      2.242
REMARK  7 active torsions:
REMARK  status: ('A' for Active; 'I' for Inactive)
REMARK    1  A    between atoms: C_2  and  C_3 
REMARK    2  A    between atoms: C_3  and  O_6 
REMARK    3  A    between atoms: C_3  and  C_4 
REMARK    4  A    between atoms: C_7  and  O_6 
REMARK    5  A    between atoms: C_9  and  C_10 
REMARK    6  A    between atoms: N_15  and  C_14 
REMARK    7  A    between atoms: N_20  and  C_19 
REMARK       I    between atoms: C_22  and  N_20 
ROOT
ATOM      1  C   LIG d   1      -2.888  76.665 115.659  0.00  0.00     0.161 C 
ATOM      2  C   LIG d   1      -3.358  77.442 114.587  0.00  0.00     0.016 C 
ATOM      3  C   LIG d   1      -2.681  77.552 113.351  0.00  0.00     0.038 C 
ATOM      4  C   LIG d   1      -1.558  76.767 113.047  0.00  0.00     0.028 C 
ATOM      5  C   LIG d   1      -0.761  76.349 114.278  0.00  0.00    -0.047 C 
ATOM      6  C   LIG d   1      -1.724  75.715 115.308  0.00  0.00     0.091 C 
ENDROOT
BRANCH   1   7
ATOM      7  O   LIG d   1      -3.979  75.926 116.242  0.00  0.00    -0.368 OA
BRANCH   7   8
ATOM      8  C   LIG d   1      -5.306  76.460 116.010  0.00  0.00     0.119 C 
BRANCH   8   9
ATOM      9  C   LIG d   1      -5.811  77.042 117.344  0.00  0.00     0.028 C 
ATOM     10  C   LIG d   1      -7.154  77.775 117.194  0.00  0.00     0.006 C 
ENDBRANCH   8   9
BRANCH   8  11
ATOM     11  C   LIG d   1      -6.298  75.349 115.651  0.00  0.00     0.028 C 
ATOM     12  C   LIG d   1      -5.605  74.032 115.268  0.00  0.00     0.006 C 
ENDBRANCH   8  11
ENDBRANCH   7   8
ENDBRANCH   1   7
BRANCH   6  13
ATOM     13  N   LIG d   1      -1.039  75.354 116.577  0.00  0.00    -0.311 N 
ATOM     14  C   LIG d   1      -1.296  74.238 117.257  0.00  0.00     0.210 C 
ATOM     15  C   LIG d   1      -0.493  74.070 118.550  0.00  0.00     0.109 C 
ATOM     16  O   LIG d   1      -2.091  73.357 116.896  0.00  0.00    -0.276 OA
ATOM     17  H   LIG d   1      -0.357  75.998 116.926  0.00  0.00     0.149 HD
ENDBRANCH   6  13
BRANCH   5  18
ATOM     18  N   LIG d   1       0.298  75.424 113.831  0.00  0.00     0.381 N 
ATOM     19  H   LIG d   1       0.474  74.742 114.541  0.00  0.00    -0.090 HD
ATOM     20  H   LIG d   1       1.143  75.947 113.679  0.00  0.00    -0.090 HD
ATOM     21  H   LIG d   1       0.022  74.973 112.987  0.00  0.00    -0.090 HD
ENDBRANCH   5  18
BRANCH   3  22
ATOM     22  C   LIG d   1      -3.104  78.485 112.416  0.00  0.00     0.382 C 
ATOM     23  O   LIG d   1      -2.426  79.521 112.214  0.00  0.00    -0.241 OA
ATOM     24  O   LIG d   1      -4.177  78.325 111.805  0.00  0.00    -0.241 OA
ENDBRANCH   3  22
TORSDOF 7
ENDMDL
MODEL 6
REMARK VINA RESULT:      -4.8     10.237     12.572
REMARK  7 active torsions:
REMARK  status: ('A' for Active; 'I' for Inactive)
REMARK    1  A    between atoms: C_2  and  C_3 
REMARK    2  A    between atoms: C_3  and  O_6 
REMARK    3  A    between atoms: C_3  and  C_4 
REMARK    4  A    between atoms: C_7  and  O_6 
REMARK    5  A    between atoms: C_9  and  C_10 
REMARK    6  A    between atoms: N_15  and  C_14 
REMARK    7  A    between atoms: N_20  and  C_19 
REMARK       I    between atoms: C_22  and  N_20 
ROOT
ATOM      1  C   LIG d   1       4.372  86.082 115.160  0.00  0.00     0.161 C 
ATOM      2  C   LIG d   1       3.932  87.069 114.262  0.00  0.00     0.016 C 
ATOM      3  C   LIG d   1       4.677  88.231 113.956  0.00  0.00     0.038 C 
ATOM      4  C   LIG d   1       5.990  88.412 114.416  0.00  0.00     0.028 C 
ATOM      5  C   LIG d   1       6.278  87.687 115.726  0.00  0.00    -0.047 C 
ATOM      6  C   LIG d   1       5.849  86.208 115.586  0.00  0.00     0.091 C 
ENDROOT
BRANCH   1   7
ATOM      7  O   LIG d   1       4.118  84.774 114.611  0.00  0.00    -0.368 OA
BRANCH   7   8
ATOM      8  C   LIG d   1       3.389  84.738 113.360  0.00  0.00     0.119 C 
BRANCH   8   9
ATOM      9  C   LIG d   1       2.034  84.057 113.633  0.00  0.00     0.028 C 
ATOM     10  C   LIG d   1       0.853  84.841 113.036  0.00  0.00     0.006 C 
ENDBRANCH   8   9
BRANCH   8  11
ATOM     11  C   LIG d   1       4.091  83.846 112.331  0.00  0.00     0.028 C 
ATOM     12  C   LIG d   1       4.320  82.415 112.841  0.00  0.00     0.006 C 
ENDBRANCH   8  11
ENDBRANCH   7   8
ENDBRANCH   1   7
BRANCH   6  13
ATOM     13  N   LIG d   1       6.019  85.446 116.851  0.00  0.00    -0.311 N 
ATOM     14  C   LIG d   1       7.082  84.688 117.113  0.00  0.00     0.210 C 
ATOM     15  C   LIG d   1       7.048  83.973 118.467  0.00  0.00     0.109 C 
ATOM     16  O   LIG d   1       8.065  84.566 116.367  0.00  0.00    -0.276 OA
ATOM     17  H   LIG d   1       5.283  85.514 117.526  0.00  0.00     0.149 HD
ENDBRANCH   6  13
BRANCH   5  18
ATOM     18  N   LIG d   1       7.715  87.847 116.018  0.00  0.00     0.381 N 
ATOM     19  H   LIG d   1       7.989  88.796 115.862  0.00  0.00    -0.090 HD
ATOM     20  H   LIG d   1       8.241  87.260 115.393  0.00  0.00    -0.090 HD
ATOM     21  H   LIG d   1       7.903  87.590 116.962  0.00  0.00    -0.090 HD
ENDBRANCH   5  18
BRANCH   3  22
ATOM     22  C   LIG d   1       4.094  89.246 113.213  0.00  0.00     0.382 C 
ATOM     23  O   LIG d   1       4.602  90.393 113.211  0.00  0.00    -0.241 OA
ATOM     24  O   LIG d   1       3.040  89.041 112.581  0.00  0.00    -0.241 OA
ENDBRANCH   3  22
TORSDOF 7
ENDMDL
MODEL 7
REMARK VINA RESULT:      -4.8      3.867      6.413
REMARK  7 active torsions:
REMARK  status: ('A' for Active; 'I' for Inactive)
REMARK    1  A    between atoms: C_2  and  C_3 
REMARK    2  A    between atoms: C_3  and  O_6 
REMARK    3  A    between atoms: C_3  and  C_4 
REMARK    4  A    between atoms: C_7  and  O_6 
REMARK    5  A    between atoms: C_9  and  C_10 
REMARK    6  A    between atoms: N_15  and  C_14 
REMARK    7  A    between atoms: N_20  and  C_19 
REMARK       I    between atoms: C_22  and  N_20 
ROOT
ATOM      1  C   LIG d   1      -6.214  77.702 117.190  0.00  0.00     0.161 C 
ATOM      2  C   LIG d   1      -6.883  78.878 117.570  0.00  0.00     0.016 C 
ATOM      3  C   LIG d   1      -8.280  78.946 117.778  0.00  0.00     0.038 C 
ATOM      4  C   LIG d   1      -9.088  77.799 117.767  0.00  0.00     0.028 C 
ATOM      5  C   LIG d   1      -8.537  76.678 116.892  0.00  0.00    -0.047 C 
ATOM      6  C   LIG d   1      -7.063  76.417 117.281  0.00  0.00     0.091 C 
ENDROOT
BRANCH   1   7
ATOM      7  O   LIG d   1      -5.004  77.559 117.959  0.00  0.00    -0.368 OA
BRANCH   7   8
ATOM      8  C   LIG d   1      -3.767  77.552 117.204  0.00  0.00     0.119 C 
BRANCH   8   9
ATOM      9  C   LIG d   1      -2.912  76.381 117.726  0.00  0.00     0.028 C 
ATOM     10  C   LIG d   1      -2.739  75.269 116.678  0.00  0.00     0.006 C 
ENDBRANCH   8   9
BRANCH   8  11
ATOM     11  C   LIG d   1      -2.940  78.812 117.479  0.00  0.00     0.028 C 
ATOM     12  C   LIG d   1      -1.775  78.987 116.492  0.00  0.00     0.006 C 
ENDBRANCH   8  11
ENDBRANCH   7   8
ENDBRANCH   1   7
BRANCH   6  13
ATOM     13  N   LIG d   1      -6.422  75.392 116.417  0.00  0.00    -0.311 N 
ATOM     14  C   LIG d   1      -6.201  75.566 115.115  0.00  0.00     0.210 C 
ATOM     15  C   LIG d   1      -5.547  74.376 114.406  0.00  0.00     0.109 C 
ATOM     16  O   LIG d   1      -6.456  76.604 114.486  0.00  0.00    -0.276 OA
ATOM     17  H   LIG d   1      -6.155  74.531 116.852  0.00  0.00     0.149 HD
ENDBRANCH   6  13
BRANCH   5  18
ATOM     18  N   LIG d   1      -9.402  75.499 117.081  0.00  0.00     0.381 N 
ATOM     19  H   LIG d   1     -10.156  75.728 117.697  0.00  0.00    -0.090 HD
ATOM     20  H   LIG d   1      -8.862  74.764 117.502  0.00  0.00    -0.090 HD
ATOM     21  H   LIG d   1      -9.762  75.196 116.203  0.00  0.00    -0.090 HD
ENDBRANCH   5  18
BRANCH   3  22
ATOM     22  C   LIG d   1      -8.888  80.179 117.962  0.00  0.00     0.382 C 
ATOM     23  O   LIG d   1     -10.121  80.242 118.185  0.00  0.00    -0.241 OA
ATOM     24  O   LIG d   1      -8.227  81.230 117.863  0.00  0.00    -0.241 OA
ENDBRANCH   3  22
TORSDOF 7
ENDMDL
MODEL 8
REMARK VINA RESULT:      -4.7      2.784      4.252
REMARK  7 active torsions:
REMARK  status: ('A' for Active; 'I' for Inactive)
REMARK    1  A    between atoms: C_2  and  C_3 
REMARK    2  A    between atoms: C_3  and  O_6 
REMARK    3  A    between atoms: C_3  and  C_4 
REMARK    4  A    between atoms: C_7  and  O_6 
REMARK    5  A    between atoms: C_9  and  C_10 
REMARK    6  A    between atoms: N_15  and  C_14 
REMARK    7  A    between atoms: N_20  and  C_19 
REMARK       I    between atoms: C_22  and  N_20 
ROOT
ATOM      1  C   LIG d   1      -3.476  77.251 117.222  0.00  0.00     0.161 C 
ATOM      2  C   LIG d   1      -2.523  78.216 117.590  0.00  0.00     0.016 C 
ATOM      3  C   LIG d   1      -1.630  78.816 116.674  0.00  0.00     0.038 C 
ATOM      4  C   LIG d   1      -1.730  78.602 115.292  0.00  0.00     0.028 C 
ATOM      5  C   LIG d   1      -2.345  77.254 114.931  0.00  0.00    -0.047 C 
ATOM      6  C   LIG d   1      -3.675  77.087 115.701  0.00  0.00     0.091 C 
ENDROOT
BRANCH   1   7
ATOM      7  O   LIG d   1      -4.734  77.537 117.864  0.00  0.00    -0.368 OA
BRANCH   7   8
ATOM      8  C   LIG d   1      -5.664  78.354 117.110  0.00  0.00     0.119 C 
BRANCH   8   9
ATOM      9  C   LIG d   1      -5.462  79.815 117.554  0.00  0.00     0.028 C 
ATOM     10  C   LIG d   1      -6.792  80.522 117.869  0.00  0.00     0.006 C 
ENDBRANCH   8   9
BRANCH   8  11
ATOM     11  C   LIG d   1      -7.115  78.018 117.464  0.00  0.00     0.028 C 
ATOM     12  C   LIG d   1      -7.513  76.591 117.058  0.00  0.00     0.006 C 
ENDBRANCH   8  11
ENDBRANCH   7   8
ENDBRANCH   1   7
BRANCH   6  13
ATOM     13  N   LIG d   1      -4.300  75.759 115.470  0.00  0.00    -0.311 N 
ATOM     14  C   LIG d   1      -5.195  75.526 114.511  0.00  0.00     0.210 C 
ATOM     15  C   LIG d   1      -5.730  74.092 114.459  0.00  0.00     0.109 C 
ATOM     16  O   LIG d   1      -5.572  76.364 113.678  0.00  0.00    -0.276 OA
ATOM     17  H   LIG d   1      -4.028  75.014 116.081  0.00  0.00     0.149 HD
ENDBRANCH   6  13
BRANCH   5  18
ATOM     18  N   LIG d   1      -2.517  77.220 113.466  0.00  0.00     0.381 N 
ATOM     19  H   LIG d   1      -3.473  77.032 113.242  0.00  0.00    -0.090 HD
ATOM     20  H   LIG d   1      -1.953  76.478 113.090  0.00  0.00    -0.090 HD
ATOM     21  H   LIG d   1      -2.240  78.091 113.070  0.00  0.00    -0.090 HD
ENDBRANCH   5  18
BRANCH   3  22
ATOM     22  C   LIG d   1      -0.595  79.612 117.144  0.00  0.00     0.382 C 
ATOM     23  O   LIG d   1      -0.588  79.988 118.341  0.00  0.00    -0.241 OA
ATOM     24  O   LIG d   1       0.307  79.994 116.375  0.00  0.00    -0.241 OA
ENDBRANCH   3  22
TORSDOF 7
ENDMDL
MODEL 9
REMARK VINA RESULT:      -4.5      3.361      6.142
REMARK  7 active torsions:
REMARK  status: ('A' for Active; 'I' for Inactive)
REMARK    1  A    between atoms: C_2  and  C_3 
REMARK    2  A    between atoms: C_3  and  O_6 
REMARK    3  A    between atoms: C_3  and  C_4 
REMARK    4  A    between atoms: C_7  and  O_6 
REMARK    5  A    between atoms: C_9  and  C_10 
REMARK    6  A    between atoms: N_15  and  C_14 
REMARK    7  A    between atoms: N_20  and  C_19 
REMARK       I    between atoms: C_22  and  N_20 
ROOT
ATOM      1  C   LIG d   1      -5.495  77.332 117.035  0.00  0.00     0.161 C 
ATOM      2  C   LIG d   1      -6.790  77.135 117.545  0.00  0.00     0.016 C 
ATOM      3  C   LIG d   1      -7.672  76.141 117.064  0.00  0.00     0.038 C 
ATOM      4  C   LIG d   1      -7.262  75.170 116.138  0.00  0.00     0.028 C 
ATOM      5  C   LIG d   1      -6.131  75.640 115.229  0.00  0.00    -0.047 C 
ATOM      6  C   LIG d   1      -4.991  76.212 116.101  0.00  0.00     0.091 C 
ENDROOT
BRANCH   1   7
ATOM      7  O   LIG d   1      -4.569  77.536 118.120  0.00  0.00    -0.368 OA
BRANCH   7   8
ATOM      8  C   LIG d   1      -4.067  78.884 118.285  0.00  0.00     0.119 C 
BRANCH   8   9
ATOM      9  C   LIG d   1      -4.952  79.815 117.434  0.00  0.00     0.028 C 
ATOM     10  C   LIG d   1      -5.879  80.691 118.293  0.00  0.00     0.006 C 
ENDBRANCH   8   9
BRANCH   8  11
ATOM     11  C   LIG d   1      -2.655  79.028 117.709  0.00  0.00     0.028 C 
ATOM     12  C   LIG d   1      -1.737  77.852 118.081  0.00  0.00     0.006 C 
ENDBRANCH   8  11
ENDBRANCH   7   8
ENDBRANCH   1   7
BRANCH   6  13
ATOM     13  N   LIG d   1      -3.880  76.772 115.287  0.00  0.00    -0.311 N 
ATOM     14  C   LIG d   1      -2.808  76.068 114.928  0.00  0.00     0.210 C 
ATOM     15  C   LIG d   1      -1.772  76.842 114.107  0.00  0.00     0.109 C 
ATOM     16  O   LIG d   1      -2.631  74.868 115.185  0.00  0.00    -0.276 OA
ATOM     17  H   LIG d   1      -3.956  77.730 115.009  0.00  0.00     0.149 HD
ENDBRANCH   6  13
BRANCH   5  18
ATOM     18  N   LIG d   1      -5.710  74.489 114.409  0.00  0.00     0.381 N 
ATOM     19  H   LIG d   1      -4.889  74.725 113.889  0.00  0.00    -0.090 HD
ATOM     20  H   LIG d   1      -6.443  74.268 113.758  0.00  0.00    -0.090 HD
ATOM     21  H   LIG d   1      -5.527  73.703 114.994  0.00  0.00    -0.090 HD
ENDBRANCH   5  18
BRANCH   3  22
ATOM     22  C   LIG d   1      -8.994  76.135 117.482  0.00  0.00     0.382 C 
ATOM     23  O   LIG d   1      -9.866  75.547 116.797  0.00  0.00    -0.241 OA
ATOM     24  O   LIG d   1      -9.334  76.747 118.512  0.00  0.00    -0.241 OA
ENDBRANCH   3  22
TORSDOF 7
ENDMDL
