MODEL 1
REMARK VINA RESULT:      -5.2      0.000      0.000
REMARK  7 active torsions:
REMARK  status: ('A' for Active; 'I' for Inactive)
REMARK    1  A    between atoms: C_2  and  C_3 
REMARK    2  A    between atoms: C_3  and  O_6 
REMARK    3  A    between atoms: C_3  and  C_4 
REMARK    4  A    between atoms: C_7  and  O_6 
REMARK    5  A    between atoms: C_9  and  C_10 
REMARK    6  A    between atoms: N_15  and  C_14 
REMARK    7  A    between atoms: N_20  and  C_19 
REMARK       I    between atoms: C_22  and  N_20 
ROOT
ATOM      1  C   LIG d   1      -4.753  75.805 118.230  0.00  0.00     0.161 C 
ATOM      2  C   LIG d   1      -5.784  76.756 118.147  0.00  0.00     0.016 C 
ATOM      3  C   LIG d   1      -5.588  78.077 117.685  0.00  0.00     0.038 C 
ATOM      4  C   LIG d   1      -4.370  78.495 117.127  0.00  0.00     0.028 C 
ATOM      5  C   LIG d   1      -3.166  77.723 117.656  0.00  0.00    -0.047 C 
ATOM      6  C   LIG d   1      -3.442  76.208 117.522  0.00  0.00     0.091 C 
ENDROOT
BRANCH   1   7
ATOM      7  O   LIG d   1      -5.219  74.534 117.734  0.00  0.00    -0.368 OA
BRANCH   7   8
ATOM      8  C   LIG d   1      -6.287  74.585 116.756  0.00  0.00     0.119 C 
BRANCH   8   9
ATOM      9  C   LIG d   1      -7.280  73.457 117.096  0.00  0.00     0.028 C 
ATOM     10  C   LIG d   1      -6.947  72.142 116.371  0.00  0.00     0.006 C 
ENDBRANCH   8   9
BRANCH   8  11
ATOM     11  C   LIG d   1      -5.771  74.260 115.351  0.00  0.00     0.028 C 
ATOM     12  C   LIG d   1      -5.527  75.517 114.501  0.00  0.00     0.006 C 
ENDBRANCH   8  11
ENDBRANCH   7   8
ENDBRANCH   1   7
BRANCH   6  13
ATOM     13  N   LIG d   1      -2.349  75.380 118.094  0.00  0.00    -0.311 N 
ATOM     14  C   LIG d   1      -1.840  74.313 117.480  0.00  0.00     0.210 C 
ATOM     15  C   LIG d   1      -0.733  73.590 118.253  0.00  0.00     0.109 C 
ATOM     16  O   LIG d   1      -2.177  73.917 116.354  0.00  0.00    -0.276 OA
ATOM     17  H   LIG d   1      -1.994  75.649 118.991  0.00  0.00     0.149 HD
ENDBRANCH   6  13
BRANCH   5  18
ATOM     18  N   LIG d   1      -1.984  78.165 116.892  0.00  0.00     0.381 N 
ATOM     19  H   LIG d   1      -1.554  78.943 117.352  0.00  0.00    -0.090 HD
ATOM     20  H   LIG d   1      -2.279  78.462 115.979  0.00  0.00    -0.090 HD
ATOM     21  H   LIG d   1      -1.331  77.416 116.811  0.00  0.00    -0.090 HD
ENDBRANCH   5  18
BRANCH   3  22
ATOM     22  C   LIG d   1      -6.607  79.009 117.814  0.00  0.00     0.382 C 
ATOM     23  O   LIG d   1      -7.701  78.673 118.328  0.00  0.00    -0.241 OA
ATOM     24  O   LIG d   1      -6.461  80.168 117.384  0.00  0.00    -0.241 OA
ENDBRANCH   3  22
TORSDOF 7
ENDMDL
MODEL 2
REMARK VINA RESULT:      -5.1      2.238      4.907
REMARK  7 active torsions:
REMARK  status: ('A' for Active; 'I' for Inactive)
REMARK    1  A    between atoms: C_2  and  C_3 
REMARK    2  A    between atoms: C_3  and  O_6 
REMARK    3  A    between atoms: C_3  and  C_4 
REMARK    4  A    between atoms: C_7  and  O_6 
REMARK    5  A    between atoms: C_9  and  C_10 
REMARK    6  A    between atoms: N_15  and  C_14 
REMARK    7  A    between atoms: N_20  and  C_19 
REMARK       I    between atoms: C_22  and  N_20 
ROOT
ATOM      1  C   LIG d   1      -4.093  74.548 116.561  0.00  0.00     0.161 C 
ATOM      2  C   LIG d   1      -5.059  73.545 116.379  0.00  0.00     0.016 C 
ATOM      3  C   LIG d   1      -6.421  73.705 116.723  0.00  0.00     0.038 C 
ATOM      4  C   LIG d   1      -6.942  74.941 117.134  0.00  0.00     0.028 C 
ATOM      5  C   LIG d   1      -5.910  75.837 117.812  0.00  0.00    -0.047 C 
ATOM      6  C   LIG d   1      -4.662  75.940 116.906  0.00  0.00     0.091 C 
ENDROOT
BRANCH   1   7
ATOM      7  O   LIG d   1      -3.245  74.627 115.398  0.00  0.00    -0.368 OA
BRANCH   7   8
ATOM      8  C   LIG d   1      -1.842  74.335 115.611  0.00  0.00     0.119 C 
BRANCH   8   9
ATOM      9  C   LIG d   1      -1.689  73.829 117.058  0.00  0.00     0.028 C 
ATOM     10  C   LIG d   1      -0.556  74.545 117.813  0.00  0.00     0.006 C 
ENDBRANCH   8   9
BRANCH   8  11
ATOM     11  C   LIG d   1      -0.990  75.605 115.532  0.00  0.00     0.028 C 
ATOM     12  C   LIG d   1      -1.536  76.627 114.524  0.00  0.00     0.006 C 
ENDBRANCH   8  11
ENDBRANCH   7   8
ENDBRANCH   1   7
BRANCH   6  13
ATOM     13  N   LIG d   1      -3.571  76.731 117.532  0.00  0.00    -0.311 N 
ATOM     14  C   LIG d   1      -3.406  78.038 117.335  0.00  0.00     0.210 C 
ATOM     15  C   LIG d   1      -2.205  78.655 118.059  0.00  0.00     0.109 C 
ATOM     16  O   LIG d   1      -4.159  78.751 116.654  0.00  0.00    -0.276 OA
ATOM     17  H   LIG d   1      -2.932  76.237 118.124  0.00  0.00     0.149 HD
ENDBRANCH   6  13
BRANCH   5  18
ATOM     18  N   LIG d   1      -6.551  77.142 118.065  0.00  0.00     0.381 N 
ATOM     19  H   LIG d   1      -7.132  77.082 118.876  0.00  0.00    -0.090 HD
ATOM     20  H   LIG d   1      -7.130  77.377 117.278  0.00  0.00    -0.090 HD
ATOM     21  H   LIG d   1      -5.855  77.843 118.196  0.00  0.00    -0.090 HD
ENDBRANCH   5  18
BRANCH   3  22
ATOM     22  C   LIG d   1      -7.271  72.610 116.693  0.00  0.00     0.382 C 
ATOM     23  O   LIG d   1      -6.947  71.583 116.049  0.00  0.00    -0.241 OA
ATOM     24  O   LIG d   1      -8.376  72.652 117.266  0.00  0.00    -0.241 OA
ENDBRANCH   3  22
TORSDOF 7
ENDMDL
MODEL 3
REMARK VINA RESULT:      -4.8     12.037     13.866
REMARK  7 active torsions:
REMARK  status: ('A' for Active; 'I' for Inactive)
REMARK    1  A    between atoms: C_2  and  C_3 
REMARK    2  A    between atoms: C_3  and  O_6 
REMARK    3  A    between atoms: C_3  and  C_4 
REMARK    4  A    between atoms: C_7  and  O_6 
REMARK    5  A    between atoms: C_9  and  C_10 
REMARK    6  A    between atoms: N_15  and  C_14 
REMARK    7  A    between atoms: N_20  and  C_19 
REMARK       I    between atoms: C_22  and  N_20 
ROOT
ATOM      1  C   LIG d   1       1.768  87.174 115.200  0.00  0.00     0.161 C 
ATOM      2  C   LIG d   1       0.645  87.007 116.028  0.00  0.00     0.016 C 
ATOM      3  C   LIG d   1       0.216  87.978 116.962  0.00  0.00     0.038 C 
ATOM      4  C   LIG d   1       0.795  89.254 117.024  0.00  0.00     0.028 C 
ATOM      5  C   LIG d   1       2.248  89.283 116.560  0.00  0.00    -0.047 C 
ATOM      6  C   LIG d   1       2.346  88.604 115.175  0.00  0.00     0.091 C 
ENDROOT
BRANCH   1   7
ATOM      7  O   LIG d   1       1.458  86.735 113.863  0.00  0.00    -0.368 OA
BRANCH   7   8
ATOM      8  C   LIG d   1       1.647  85.324 113.595  0.00  0.00     0.119 C 
BRANCH   8   9
ATOM      9  C   LIG d   1       3.052  85.153 112.985  0.00  0.00     0.028 C 
ATOM     10  C   LIG d   1       3.359  86.211 111.912  0.00  0.00     0.006 C 
ENDBRANCH   8   9
BRANCH   8  11
ATOM     11  C   LIG d   1       0.676  84.826 112.521  0.00  0.00     0.028 C 
ATOM     12  C   LIG d   1      -0.491  85.796 112.276  0.00  0.00     0.006 C 
ENDBRANCH   8  11
ENDBRANCH   7   8
ENDBRANCH   1   7
BRANCH   6  13
ATOM     13  N   LIG d   1       3.747  88.515 114.686  0.00  0.00    -0.311 N 
ATOM     14  C   LIG d   1       4.236  89.289 113.719  0.00  0.00     0.210 C 
ATOM     15  C   LIG d   1       5.699  89.019 113.353  0.00  0.00     0.109 C 
ATOM     16  O   LIG d   1       3.608  90.196 113.153  0.00  0.00    -0.276 OA
ATOM     17  H   LIG d   1       4.336  87.827 115.113  0.00  0.00     0.149 HD
ENDBRANCH   6  13
BRANCH   5  18
ATOM     18  N   LIG d   1       2.683  90.693 116.546  0.00  0.00     0.381 N 
ATOM     19  H   LIG d   1       1.900  91.287 116.357  0.00  0.00    -0.090 HD
ATOM     20  H   LIG d   1       3.357  90.817 115.812  0.00  0.00    -0.090 HD
ATOM     21  H   LIG d   1       3.088  90.933 117.424  0.00  0.00    -0.090 HD
ENDBRANCH   5  18
BRANCH   3  22
ATOM     22  C   LIG d   1      -0.780  87.661 117.874  0.00  0.00     0.382 C 
ATOM     23  O   LIG d   1      -1.740  88.449 118.052  0.00  0.00    -0.241 OA
ATOM     24  O   LIG d   1      -0.706  86.619 118.552  0.00  0.00    -0.241 OA
ENDBRANCH   3  22
TORSDOF 7
ENDMDL
MODEL 4
REMARK VINA RESULT:      -4.7      2.593      4.925
REMARK  7 active torsions:
REMARK  status: ('A' for Active; 'I' for Inactive)
REMARK    1  A    between atoms: C_2  and  C_3 
REMARK    2  A    between atoms: C_3  and  O_6 
REMARK    3  A    between atoms: C_3  and  C_4 
REMARK    4  A    between atoms: C_7  and  O_6 
REMARK    5  A    between atoms: C_9  and  C_10 
REMARK    6  A    between atoms: N_15  and  C_14 
REMARK    7  A    between atoms: N_20  and  C_19 
REMARK       I    between atoms: C_22  and  N_20 
ROOT
ATOM      1  C   LIG d   1      -3.870  75.979 116.969  0.00  0.00     0.161 C 
ATOM      2  C   LIG d   1      -4.771  75.035 117.487  0.00  0.00     0.016 C 
ATOM      3  C   LIG d   1      -5.816  74.458 116.728  0.00  0.00     0.038 C 
ATOM      4  C   LIG d   1      -5.937  74.677 115.348  0.00  0.00     0.028 C 
ATOM      5  C   LIG d   1      -5.359  76.013 114.893  0.00  0.00    -0.047 C 
ATOM      6  C   LIG d   1      -3.918  76.147 115.436  0.00  0.00     0.091 C 
ENDROOT
BRANCH   1   7
ATOM      7  O   LIG d   1      -2.530  75.663 117.397  0.00  0.00    -0.368 OA
BRANCH   7   8
ATOM      8  C   LIG d   1      -1.666  75.068 116.398  0.00  0.00     0.119 C 
BRANCH   8   9
ATOM      9  C   LIG d   1      -1.315  73.646 116.875  0.00  0.00     0.028 C 
ATOM     10  C   LIG d   1      -0.797  73.624 118.323  0.00  0.00     0.006 C 
ENDBRANCH   8   9
BRANCH   8  11
ATOM     11  C   LIG d   1      -0.327  75.807 116.308  0.00  0.00     0.028 C 
ATOM     12  C   LIG d   1      -0.328  77.137 117.080  0.00  0.00     0.006 C 
ENDBRANCH   8  11
ENDBRANCH   7   8
ENDBRANCH   1   7
BRANCH   6  13
ATOM     13  N   LIG d   1      -3.308  77.462 115.108  0.00  0.00    -0.311 N 
ATOM     14  C   LIG d   1      -2.592  77.683 114.007  0.00  0.00     0.210 C 
ATOM     15  C   LIG d   1      -2.038  79.105 113.871  0.00  0.00     0.109 C 
ATOM     16  O   LIG d   1      -2.392  76.847 113.113  0.00  0.00    -0.276 OA
ATOM     17  H   LIG d   1      -3.448  78.205 115.763  0.00  0.00     0.149 HD
ENDBRANCH   6  13
BRANCH   5  18
ATOM     18  N   LIG d   1      -5.427  76.050 113.420  0.00  0.00     0.381 N 
ATOM     19  H   LIG d   1      -5.545  75.122 113.063  0.00  0.00    -0.090 HD
ATOM     20  H   LIG d   1      -4.563  76.417 113.064  0.00  0.00    -0.090 HD
ATOM     21  H   LIG d   1      -6.187  76.624 113.128  0.00  0.00    -0.090 HD
ENDBRANCH   5  18
BRANCH   3  22
ATOM     22  C   LIG d   1      -6.777  73.684 117.360  0.00  0.00     0.382 C 
ATOM     23  O   LIG d   1      -7.961  74.093 117.434  0.00  0.00    -0.241 OA
ATOM     24  O   LIG d   1      -6.467  72.603 117.894  0.00  0.00    -0.241 OA
ENDBRANCH   3  22
TORSDOF 7
ENDMDL
MODEL 5
REMARK VINA RESULT:      -4.6     11.602     13.575
REMARK  7 active torsions:
REMARK  status: ('A' for Active; 'I' for Inactive)
REMARK    1  A    between atoms: C_2  and  C_3 
REMARK    2  A    between atoms: C_3  and  O_6 
REMARK    3  A    between atoms: C_3  and  C_4 
REMARK    4  A    between atoms: C_7  and  O_6 
REMARK    5  A    between atoms: C_9  and  C_10 
REMARK    6  A    between atoms: N_15  and  C_14 
REMARK    7  A    between atoms: N_20  and  C_19 
REMARK       I    between atoms: C_22  and  N_20 
ROOT
ATOM      1  C   LIG d   1       2.559  86.603 115.488  0.00  0.00     0.161 C 
ATOM      2  C   LIG d   1       2.625  87.872 114.888  0.00  0.00     0.016 C 
ATOM      3  C   LIG d   1       3.798  88.661 114.865  0.00  0.00     0.038 C 
ATOM      4  C   LIG d   1       5.033  88.168 115.311  0.00  0.00     0.028 C 
ATOM      5  C   LIG d   1       4.903  87.089 116.381  0.00  0.00    -0.047 C 
ATOM      6  C   LIG d   1       3.924  86.002 115.881  0.00  0.00     0.091 C 
ENDROOT
BRANCH   1   7
ATOM      7  O   LIG d   1       1.839  85.695 114.631  0.00  0.00    -0.368 OA
BRANCH   7   8
ATOM      8  C   LIG d   1       1.842  86.014 113.218  0.00  0.00     0.119 C 
BRANCH   8   9
ATOM      9  C   LIG d   1       0.491  85.555 112.636  0.00  0.00     0.028 C 
ATOM     10  C   LIG d   1       0.326  84.026 112.671  0.00  0.00     0.006 C 
ENDBRANCH   8   9
BRANCH   8  11
ATOM     11  C   LIG d   1       2.903  85.205 112.466  0.00  0.00     0.028 C 
ATOM     12  C   LIG d   1       3.974  86.091 111.809  0.00  0.00     0.006 C 
ENDBRANCH   8  11
ENDBRANCH   7   8
ENDBRANCH   1   7
BRANCH   6  13
ATOM     13  N   LIG d   1       3.675  84.951 116.902  0.00  0.00    -0.311 N 
ATOM     14  C   LIG d   1       3.758  83.646 116.647  0.00  0.00     0.210 C 
ATOM     15  C   LIG d   1       3.443  82.733 117.836  0.00  0.00     0.109 C 
ATOM     16  O   LIG d   1       4.095  83.159 115.557  0.00  0.00    -0.276 OA
ATOM     17  H   LIG d   1       3.427  85.258 117.822  0.00  0.00     0.149 HD
ENDBRANCH   6  13
BRANCH   5  18
ATOM     18  N   LIG d   1       6.256  86.567 116.654  0.00  0.00     0.381 N 
ATOM     19  H   LIG d   1       6.411  85.733 116.123  0.00  0.00    -0.090 HD
ATOM     20  H   LIG d   1       6.324  86.337 117.630  0.00  0.00    -0.090 HD
ATOM     21  H   LIG d   1       6.939  87.252 116.418  0.00  0.00    -0.090 HD
ENDBRANCH   5  18
BRANCH   3  22
ATOM     22  C   LIG d   1       3.733  89.976 114.427  0.00  0.00     0.382 C 
ATOM     23  O   LIG d   1       3.392  90.885 115.222  0.00  0.00    -0.241 OA
ATOM     24  O   LIG d   1       3.969  90.257 113.237  0.00  0.00    -0.241 OA
ENDBRANCH   3  22
TORSDOF 7
ENDMDL
MODEL 6
REMARK VINA RESULT:      -4.4      2.912      4.799
REMARK  7 active torsions:
REMARK  status: ('A' for Active; 'I' for Inactive)
REMARK    1  A    between atoms: C_2  and  C_3 
REMARK    2  A    between atoms: C_3  and  O_6 
REMARK    3  A    between atoms: C_3  and  C_4 
REMARK    4  A    between atoms: C_7  and  O_6 
REMARK    5  A    between atoms: C_9  and  C_10 
REMARK    6  A    between atoms: N_15  and  C_14 
REMARK    7  A    between atoms: N_20  and  C_19 
REMARK       I    between atoms: C_22  and  N_20 
ROOT
ATOM      1  C   LIG d   1      -2.909  77.078 117.728  0.00  0.00     0.161 C 
ATOM      2  C   LIG d   1      -2.010  78.023 118.252  0.00  0.00     0.016 C 
ATOM      3  C   LIG d   1      -1.039  78.690 117.470  0.00  0.00     0.038 C 
ATOM      4  C   LIG d   1      -1.000  78.567 116.073  0.00  0.00     0.028 C 
ATOM      5  C   LIG d   1      -1.558  77.242 115.565  0.00  0.00    -0.047 C 
ATOM      6  C   LIG d   1      -2.955  77.014 116.187  0.00  0.00     0.091 C 
ENDROOT
BRANCH   1   7
ATOM      7  O   LIG d   1      -4.228  77.311 118.260  0.00  0.00    -0.368 OA
BRANCH   7   8
ATOM      8  C   LIG d   1      -5.092  78.164 117.469  0.00  0.00     0.119 C 
BRANCH   8   9
ATOM      9  C   LIG d   1      -5.286  79.478 118.251  0.00  0.00     0.028 C 
ATOM     10  C   LIG d   1      -6.602  80.187 117.888  0.00  0.00     0.006 C 
ENDBRANCH   8   9
BRANCH   8  11
ATOM     11  C   LIG d   1      -6.494  77.563 117.331  0.00  0.00     0.028 C 
ATOM     12  C   LIG d   1      -6.513  76.041 117.544  0.00  0.00     0.006 C 
ENDBRANCH   8  11
ENDBRANCH   7   8
ENDBRANCH   1   7
BRANCH   6  13
ATOM     13  N   LIG d   1      -3.536  75.700 115.809  0.00  0.00    -0.311 N 
ATOM     14  C   LIG d   1      -4.355  75.532 114.772  0.00  0.00     0.210 C 
ATOM     15  C   LIG d   1      -4.857  74.098 114.570  0.00  0.00     0.109 C 
ATOM     16  O   LIG d   1      -4.689  76.427 113.982  0.00  0.00    -0.276 OA
ATOM     17  H   LIG d   1      -3.293  74.913 116.378  0.00  0.00     0.149 HD
ENDBRANCH   6  13
BRANCH   5  18
ATOM     18  N   LIG d   1      -1.584  77.305 114.092  0.00  0.00     0.381 N 
ATOM     19  H   LIG d   1      -2.275  76.674 113.738  0.00  0.00    -0.090 HD
ATOM     20  H   LIG d   1      -0.688  77.021 113.738  0.00  0.00    -0.090 HD
ATOM     21  H   LIG d   1      -1.788  78.233 113.794  0.00  0.00    -0.090 HD
ENDBRANCH   5  18
BRANCH   3  22
ATOM     22  C   LIG d   1      -0.067  79.459 118.091  0.00  0.00     0.382 C 
ATOM     23  O   LIG d   1       0.967  78.914 118.548  0.00  0.00    -0.241 OA
ATOM     24  O   LIG d   1      -0.231  80.685 118.240  0.00  0.00    -0.241 OA
ENDBRANCH   3  22
TORSDOF 7
ENDMDL
MODEL 7
REMARK VINA RESULT:      -4.3      2.521      4.841
REMARK  7 active torsions:
REMARK  status: ('A' for Active; 'I' for Inactive)
REMARK    1  A    between atoms: C_2  and  C_3 
REMARK    2  A    between atoms: C_3  and  O_6 
REMARK    3  A    between atoms: C_3  and  C_4 
REMARK    4  A    between atoms: C_7  and  O_6 
REMARK    5  A    between atoms: C_9  and  C_10 
REMARK    6  A    between atoms: N_15  and  C_14 
REMARK    7  A    between atoms: N_20  and  C_19 
REMARK       I    between atoms: C_22  and  N_20 
ROOT
ATOM      1  C   LIG d   1      -2.981  75.598 115.761  0.00  0.00     0.161 C 
ATOM      2  C   LIG d   1      -2.282  74.810 116.690  0.00  0.00     0.016 C 
ATOM      3  C   LIG d   1      -1.172  75.279 117.430  0.00  0.00     0.038 C 
ATOM      4  C   LIG d   1      -0.777  76.624 117.401  0.00  0.00     0.028 C 
ATOM      5  C   LIG d   1      -1.136  77.333 116.099  0.00  0.00    -0.047 C 
ATOM      6  C   LIG d   1      -2.634  77.101 115.798  0.00  0.00     0.091 C 
ENDROOT
BRANCH   1   7
ATOM      7  O   LIG d   1      -4.400  75.407 115.928  0.00  0.00    -0.368 OA
BRANCH   7   8
ATOM      8  C   LIG d   1      -4.803  74.536 117.013  0.00  0.00     0.119 C 
BRANCH   8   9
ATOM      9  C   LIG d   1      -5.711  73.443 116.417  0.00  0.00     0.028 C 
ATOM     10  C   LIG d   1      -6.573  72.750 117.486  0.00  0.00     0.006 C 
ENDBRANCH   8   9
BRANCH   8  11
ATOM     11  C   LIG d   1      -5.675  75.279 118.029  0.00  0.00     0.028 C 
ATOM     12  C   LIG d   1      -6.111  76.668 117.537  0.00  0.00     0.006 C 
ENDBRANCH   8  11
ENDBRANCH   7   8
ENDBRANCH   1   7
BRANCH   6  13
ATOM     13  N   LIG d   1      -3.049  77.690 114.498  0.00  0.00    -0.311 N 
ATOM     14  C   LIG d   1      -2.480  77.376 113.336  0.00  0.00     0.210 C 
ATOM     15  C   LIG d   1      -3.045  78.114 112.118  0.00  0.00     0.109 C 
ATOM     16  O   LIG d   1      -1.582  76.532 113.193  0.00  0.00    -0.276 OA
ATOM     17  H   LIG d   1      -3.792  78.361 114.518  0.00  0.00     0.149 HD
ENDBRANCH   6  13
BRANCH   5  18
ATOM     18  N   LIG d   1      -0.792  78.759 116.258  0.00  0.00     0.381 N 
ATOM     19  H   LIG d   1      -0.951  79.244 115.398  0.00  0.00    -0.090 HD
ATOM     20  H   LIG d   1       0.183  78.834 116.487  0.00  0.00    -0.090 HD
ATOM     21  H   LIG d   1      -1.343  79.163 116.983  0.00  0.00    -0.090 HD
ENDBRANCH   5  18
BRANCH   3  22
ATOM     22  C   LIG d   1      -0.420  74.387 118.179  0.00  0.00     0.382 C 
ATOM     23  O   LIG d   1       0.735  74.703 118.555  0.00  0.00    -0.241 OA
ATOM     24  O   LIG d   1      -0.864  73.255 118.447  0.00  0.00    -0.241 OA
ENDBRANCH   3  22
TORSDOF 7
ENDMDL
MODEL 8
REMARK VINA RESULT:      -4.3     11.557     14.024
REMARK  7 active torsions:
REMARK  status: ('A' for Active; 'I' for Inactive)
REMARK    1  A    between atoms: C_2  and  C_3 
REMARK    2  A    between atoms: C_3  and  O_6 
REMARK    3  A    between atoms: C_3  and  C_4 
REMARK    4  A    between atoms: C_7  and  O_6 
REMARK    5  A    between atoms: C_9  and  C_10 
REMARK    6  A    between atoms: N_15  and  C_14 
REMARK    7  A    between atoms: N_20  and  C_19 
REMARK       I    between atoms: C_22  and  N_20 
ROOT
ATOM      1  C   LIG d   1       1.806  87.008 114.697  0.00  0.00     0.161 C 
ATOM      2  C   LIG d   1       2.932  87.229 113.887  0.00  0.00     0.016 C 
ATOM      3  C   LIG d   1       3.740  88.386 113.975  0.00  0.00     0.038 C 
ATOM      4  C   LIG d   1       3.562  89.338 114.989  0.00  0.00     0.028 C 
ATOM      5  C   LIG d   1       2.131  89.409 115.510  0.00  0.00    -0.047 C 
ATOM      6  C   LIG d   1       1.662  87.984 115.884  0.00  0.00     0.091 C 
ENDROOT
BRANCH   1   7
ATOM      7  O   LIG d   1       1.800  85.645 115.165  0.00  0.00    -0.368 OA
BRANCH   7   8
ATOM      8  C   LIG d   1       2.721  84.741 114.507  0.00  0.00     0.119 C 
BRANCH   8   9
ATOM      9  C   LIG d   1       1.898  83.563 113.952  0.00  0.00     0.028 C 
ATOM     10  C   LIG d   1       0.829  84.017 112.944  0.00  0.00     0.006 C 
ENDBRANCH   8   9
BRANCH   8  11
ATOM     11  C   LIG d   1       3.700  84.118 115.506  0.00  0.00     0.028 C 
ATOM     12  C   LIG d   1       3.271  82.714 115.963  0.00  0.00     0.006 C 
ENDBRANCH   8  11
ENDBRANCH   7   8
ENDBRANCH   1   7
BRANCH   6  13
ATOM     13  N   LIG d   1       0.243  87.951 116.324  0.00  0.00    -0.311 N 
ATOM     14  C   LIG d   1      -0.132  88.050 117.598  0.00  0.00     0.210 C 
ATOM     15  C   LIG d   1      -1.644  87.973 117.835  0.00  0.00     0.109 C 
ATOM     16  O   LIG d   1       0.641  88.226 118.551  0.00  0.00    -0.276 OA
ATOM     17  H   LIG d   1      -0.453  87.841 115.612  0.00  0.00     0.149 HD
ENDBRANCH   6  13
BRANCH   5  18
ATOM     18  N   LIG d   1       2.118  90.340 116.655  0.00  0.00     0.381 N 
ATOM     19  H   LIG d   1       2.873  90.991 116.569  0.00  0.00    -0.090 HD
ATOM     20  H   LIG d   1       2.249  89.815 117.502  0.00  0.00    -0.090 HD
ATOM     21  H   LIG d   1       1.250  90.828 116.688  0.00  0.00    -0.090 HD
ENDBRANCH   5  18
BRANCH   3  22
ATOM     22  C   LIG d   1       4.714  88.619 113.016  0.00  0.00     0.382 C 
ATOM     23  O   LIG d   1       5.005  87.723 112.187  0.00  0.00    -0.241 OA
ATOM     24  O   LIG d   1       5.336  89.698 112.996  0.00  0.00    -0.241 OA
ENDBRANCH   3  22
TORSDOF 7
ENDMDL
MODEL 9
REMARK VINA RESULT:      -3.9     15.198     18.363
REMARK  7 active torsions:
REMARK  status: ('A' for Active; 'I' for Inactive)
REMARK    1  A    between atoms: C_2  and  C_3 
REMARK    2  A    between atoms: C_3  and  O_6 
REMARK    3  A    between atoms: C_3  and  C_4 
REMARK    4  A    between atoms: C_7  and  O_6 
REMARK    5  A    between atoms: C_9  and  C_10 
REMARK    6  A    between atoms: N_15  and  C_14 
REMARK    7  A    between atoms: N_20  and  C_19 
REMARK       I    between atoms: C_22  and  N_20 
ROOT
ATOM      1  C   LIG d   1     -18.357  65.135 115.198  0.00  0.00     0.161 C 
ATOM      2  C   LIG d   1     -17.106  65.062 115.833  0.00  0.00     0.016 C 
ATOM      3  C   LIG d   1     -16.751  65.858 116.946  0.00  0.00     0.038 C 
ATOM      4  C   LIG d   1     -17.682  66.679 117.598  0.00  0.00     0.028 C 
ATOM      5  C   LIG d   1     -18.805  67.163 116.686  0.00  0.00    -0.047 C 
ATOM      6  C   LIG d   1     -19.424  65.945 115.963  0.00  0.00     0.091 C 
ENDROOT
BRANCH   1   7
ATOM      7  O   LIG d   1     -18.842  63.807 114.918  0.00  0.00    -0.368 OA
BRANCH   7   8
ATOM      8  C   LIG d   1     -18.088  62.717 115.504  0.00  0.00     0.119 C 
BRANCH   8   9
ATOM      9  C   LIG d   1     -17.946  61.622 114.429  0.00  0.00     0.028 C 
ATOM     10  C   LIG d   1     -19.228  61.444 113.599  0.00  0.00     0.006 C 
ENDBRANCH   8   9
BRANCH   8  11
ATOM     11  C   LIG d   1     -18.861  62.060 116.652  0.00  0.00     0.028 C 
ATOM     12  C   LIG d   1     -18.329  62.465 118.036  0.00  0.00     0.006 C 
ENDBRANCH   8  11
ENDBRANCH   7   8
ENDBRANCH   1   7
BRANCH   6  13
ATOM     13  N   LIG d   1     -20.475  66.339 114.988  0.00  0.00    -0.311 N 
ATOM     14  C   LIG d   1     -21.769  66.410 115.294  0.00  0.00     0.210 C 
ATOM     15  C   LIG d   1     -22.686  66.817 114.136  0.00  0.00     0.109 C 
ATOM     16  O   LIG d   1     -22.241  66.207 116.422  0.00  0.00    -0.276 OA
ATOM     17  H   LIG d   1     -20.176  66.551 114.056  0.00  0.00     0.149 HD
ENDBRANCH   6  13
BRANCH   5  18
ATOM     18  N   LIG d   1     -19.776  67.893 117.523  0.00  0.00     0.381 N 
ATOM     19  H   LIG d   1     -20.640  67.994 117.030  0.00  0.00    -0.090 HD
ATOM     20  H   LIG d   1     -19.413  68.810 117.716  0.00  0.00    -0.090 HD
ATOM     21  H   LIG d   1     -19.928  67.402 118.376  0.00  0.00    -0.090 HD
ENDBRANCH   5  18
BRANCH   3  22
ATOM     22  C   LIG d   1     -15.438  65.866 117.394  0.00  0.00     0.382 C 
ATOM     23  O   LIG d   1     -14.706  66.860 117.169  0.00  0.00    -0.241 OA
ATOM     24  O   LIG d   1     -14.965  64.875 117.980  0.00  0.00    -0.241 OA
ENDBRANCH   3  22
TORSDOF 7
ENDMDL
