MODEL 1
REMARK VINA RESULT:      -6.2      0.000      0.000
REMARK  7 active torsions:
REMARK  status: ('A' for Active; 'I' for Inactive)
REMARK    1  A    between atoms: C_2  and  C_3 
REMARK    2  A    between atoms: C_3  and  O_6 
REMARK    3  A    between atoms: C_3  and  C_4 
REMARK    4  A    between atoms: C_7  and  O_6 
REMARK    5  A    between atoms: C_9  and  C_10 
REMARK    6  A    between atoms: N_15  and  C_14 
REMARK    7  A    between atoms: N_20  and  C_19 
REMARK       I    between atoms: C_22  and  N_20 
ROOT
ATOM      1  C   LIG d   1      -7.362  76.300 117.330  0.00  0.00     0.161 C 
ATOM      2  C   LIG d   1      -8.359  77.259 117.575  0.00  0.00     0.016 C 
ATOM      3  C   LIG d   1      -8.108  78.649 117.616  0.00  0.00     0.038 C 
ATOM      4  C   LIG d   1      -6.862  79.188 117.263  0.00  0.00     0.028 C 
ATOM      5  C   LIG d   1      -5.698  78.232 117.502  0.00  0.00    -0.047 C 
ATOM      6  C   LIG d   1      -6.019  76.875 116.833  0.00  0.00     0.091 C 
ENDROOT
BRANCH   1   7
ATOM      7  O   LIG d   1      -7.854  75.308 116.408  0.00  0.00    -0.368 OA
BRANCH   7   8
ATOM      8  C   LIG d   1      -7.885  73.944 116.895  0.00  0.00     0.119 C 
BRANCH   8   9
ATOM      9  C   LIG d   1      -7.091  73.078 115.898  0.00  0.00     0.028 C 
ATOM     10  C   LIG d   1      -7.608  71.631 115.835  0.00  0.00     0.006 C 
ENDBRANCH   8   9
BRANCH   8  11
ATOM     11  C   LIG d   1      -9.308  73.378 116.879  0.00  0.00     0.028 C 
ATOM     12  C   LIG d   1     -10.370  74.445 116.566  0.00  0.00     0.006 C 
ENDBRANCH   8  11
ENDBRANCH   7   8
ENDBRANCH   1   7
BRANCH   6  13
ATOM     13  N   LIG d   1      -4.970  75.855 117.090  0.00  0.00    -0.311 N 
ATOM     14  C   LIG d   1      -3.986  75.583 116.234  0.00  0.00     0.210 C 
ATOM     15  C   LIG d   1      -3.022  74.482 116.685  0.00  0.00     0.109 C 
ATOM     16  O   LIG d   1      -3.802  76.173 115.159  0.00  0.00    -0.276 OA
ATOM     17  H   LIG d   1      -5.025  75.350 117.953  0.00  0.00     0.149 HD
ENDBRANCH   6  13
BRANCH   5  18
ATOM     18  N   LIG d   1      -4.481  78.868 116.964  0.00  0.00     0.381 N 
ATOM     19  H   LIG d   1      -4.558  78.962 115.971  0.00  0.00    -0.090 HD
ATOM     20  H   LIG d   1      -3.691  78.279 117.164  0.00  0.00    -0.090 HD
ATOM     21  H   LIG d   1      -4.351  79.763 117.380  0.00  0.00    -0.090 HD
ENDBRANCH   5  18
BRANCH   3  22
ATOM     22  C   LIG d   1      -9.100  79.514 118.053  0.00  0.00     0.382 C 
ATOM     23  O   LIG d   1     -10.286  79.116 118.137  0.00  0.00    -0.241 OA
ATOM     24  O   LIG d   1      -8.830  80.701 118.321  0.00  0.00    -0.241 OA
ENDBRANCH   3  22
TORSDOF 7
ENDMDL
MODEL 2
REMARK VINA RESULT:      -6.2      1.734      4.940
REMARK  7 active torsions:
REMARK  status: ('A' for Active; 'I' for Inactive)
REMARK    1  A    between atoms: C_2  and  C_3 
REMARK    2  A    between atoms: C_3  and  O_6 
REMARK    3  A    between atoms: C_3  and  C_4 
REMARK    4  A    between atoms: C_7  and  O_6 
REMARK    5  A    between atoms: C_9  and  C_10 
REMARK    6  A    between atoms: N_15  and  C_14 
REMARK    7  A    between atoms: N_20  and  C_19 
REMARK       I    between atoms: C_22  and  N_20 
ROOT
ATOM      1  C   LIG d   1      -6.411  74.960 116.600  0.00  0.00     0.161 C 
ATOM      2  C   LIG d   1      -5.286  74.443 115.935  0.00  0.00     0.016 C 
ATOM      3  C   LIG d   1      -3.977  74.946 116.114  0.00  0.00     0.038 C 
ATOM      4  C   LIG d   1      -3.679  75.908 117.091  0.00  0.00     0.028 C 
ATOM      5  C   LIG d   1      -4.859  76.813 117.429  0.00  0.00    -0.047 C 
ATOM      6  C   LIG d   1      -6.089  75.934 117.752  0.00  0.00     0.091 C 
ENDROOT
BRANCH   1   7
ATOM      7  O   LIG d   1      -7.237  73.878 117.074  0.00  0.00    -0.368 OA
BRANCH   7   8
ATOM      8  C   LIG d   1      -8.259  73.409 116.161  0.00  0.00     0.119 C 
BRANCH   8   9
ATOM      9  C   LIG d   1      -9.620  73.571 116.866  0.00  0.00     0.028 C 
ATOM     10  C   LIG d   1     -10.234  74.963 116.645  0.00  0.00     0.006 C 
ENDBRANCH   8   9
BRANCH   8  11
ATOM     11  C   LIG d   1      -8.118  71.908 115.890  0.00  0.00     0.028 C 
ATOM     12  C   LIG d   1      -9.326  71.097 116.387  0.00  0.00     0.006 C 
ENDBRANCH   8  11
ENDBRANCH   7   8
ENDBRANCH   1   7
BRANCH   6  13
ATOM     13  N   LIG d   1      -7.310  76.742 118.012  0.00  0.00    -0.311 N 
ATOM     14  C   LIG d   1      -7.564  77.901 117.407  0.00  0.00     0.210 C 
ATOM     15  C   LIG d   1      -8.869  78.580 117.835  0.00  0.00     0.109 C 
ATOM     16  O   LIG d   1      -6.849  78.415 116.534  0.00  0.00    -0.276 OA
ATOM     17  H   LIG d   1      -7.959  76.383 118.684  0.00  0.00     0.149 HD
ENDBRANCH   6  13
BRANCH   5  18
ATOM     18  N   LIG d   1      -4.451  77.674 118.555  0.00  0.00     0.381 N 
ATOM     19  H   LIG d   1      -3.627  78.185 118.309  0.00  0.00    -0.090 HD
ATOM     20  H   LIG d   1      -4.239  77.094 119.347  0.00  0.00    -0.090 HD
ATOM     21  H   LIG d   1      -5.187  78.306 118.784  0.00  0.00    -0.090 HD
ENDBRANCH   5  18
BRANCH   3  22
ATOM     22  C   LIG d   1      -2.955  74.514 115.281  0.00  0.00     0.382 C 
ATOM     23  O   LIG d   1      -1.938  73.967 115.770  0.00  0.00    -0.241 OA
ATOM     24  O   LIG d   1      -3.018  74.705 114.052  0.00  0.00    -0.241 OA
ENDBRANCH   3  22
TORSDOF 7
ENDMDL
MODEL 3
REMARK VINA RESULT:      -5.9      2.623      5.529
REMARK  7 active torsions:
REMARK  status: ('A' for Active; 'I' for Inactive)
REMARK    1  A    between atoms: C_2  and  C_3 
REMARK    2  A    between atoms: C_3  and  O_6 
REMARK    3  A    between atoms: C_3  and  C_4 
REMARK    4  A    between atoms: C_7  and  O_6 
REMARK    5  A    between atoms: C_9  and  C_10 
REMARK    6  A    between atoms: N_15  and  C_14 
REMARK    7  A    between atoms: N_20  and  C_19 
REMARK       I    between atoms: C_22  and  N_20 
ROOT
ATOM      1  C   LIG d   1      -5.382  74.823 116.391  0.00  0.00     0.161 C 
ATOM      2  C   LIG d   1      -6.111  73.663 116.081  0.00  0.00     0.016 C 
ATOM      3  C   LIG d   1      -7.524  73.603 116.100  0.00  0.00     0.038 C 
ATOM      4  C   LIG d   1      -8.312  74.749 116.284  0.00  0.00     0.028 C 
ATOM      5  C   LIG d   1      -7.619  75.836 117.099  0.00  0.00    -0.047 C 
ATOM      6  C   LIG d   1      -6.227  76.111 116.487  0.00  0.00     0.091 C 
ENDROOT
BRANCH   1   7
ATOM      7  O   LIG d   1      -4.311  74.996 115.442  0.00  0.00    -0.368 OA
BRANCH   7   8
ATOM      8  C   LIG d   1      -3.032  74.425 115.814  0.00  0.00     0.119 C 
BRANCH   8   9
ATOM      9  C   LIG d   1      -2.727  74.874 117.256  0.00  0.00     0.028 C 
ATOM     10  C   LIG d   1      -1.663  73.993 117.933  0.00  0.00     0.006 C 
ENDBRANCH   8   9
BRANCH   8  11
ATOM     11  C   LIG d   1      -1.897  75.000 114.962  0.00  0.00     0.028 C 
ATOM     12  C   LIG d   1      -1.124  73.918 114.192  0.00  0.00     0.006 C 
ENDBRANCH   8  11
ENDBRANCH   7   8
ENDBRANCH   1   7
BRANCH   6  13
ATOM     13  N   LIG d   1      -5.448  77.103 117.273  0.00  0.00    -0.311 N 
ATOM     14  C   LIG d   1      -4.752  78.094 116.719  0.00  0.00     0.210 C 
ATOM     15  C   LIG d   1      -4.004  78.992 117.711  0.00  0.00     0.109 C 
ATOM     16  O   LIG d   1      -4.710  78.336 115.504  0.00  0.00    -0.276 OA
ATOM     17  H   LIG d   1      -5.453  77.000 118.269  0.00  0.00     0.149 HD
ENDBRANCH   6  13
BRANCH   5  18
ATOM     18  N   LIG d   1      -8.497  77.022 117.097  0.00  0.00     0.381 N 
ATOM     19  H   LIG d   1      -8.758  77.248 116.158  0.00  0.00    -0.090 HD
ATOM     20  H   LIG d   1      -7.991  77.801 117.480  0.00  0.00    -0.090 HD
ATOM     21  H   LIG d   1      -9.311  76.844 117.643  0.00  0.00    -0.090 HD
ENDBRANCH   5  18
BRANCH   3  22
ATOM     22  C   LIG d   1      -8.161  72.378 115.971  0.00  0.00     0.382 C 
ATOM     23  O   LIG d   1      -7.537  71.392 115.512  0.00  0.00    -0.241 OA
ATOM     24  O   LIG d   1      -9.365  72.259 116.268  0.00  0.00    -0.241 OA
ENDBRANCH   3  22
TORSDOF 7
ENDMDL
MODEL 4
REMARK VINA RESULT:      -5.9      2.569      5.539
REMARK  7 active torsions:
REMARK  status: ('A' for Active; 'I' for Inactive)
REMARK    1  A    between atoms: C_2  and  C_3 
REMARK    2  A    between atoms: C_3  and  O_6 
REMARK    3  A    between atoms: C_3  and  C_4 
REMARK    4  A    between atoms: C_7  and  O_6 
REMARK    5  A    between atoms: C_9  and  C_10 
REMARK    6  A    between atoms: N_15  and  C_14 
REMARK    7  A    between atoms: N_20  and  C_19 
REMARK       I    between atoms: C_22  and  N_20 
ROOT
ATOM      1  C   LIG d   1      -6.736  74.932 117.039  0.00  0.00     0.161 C 
ATOM      2  C   LIG d   1      -6.853  73.605 116.592  0.00  0.00     0.016 C 
ATOM      3  C   LIG d   1      -8.083  73.015 116.221  0.00  0.00     0.038 C 
ATOM      4  C   LIG d   1      -9.266  73.762 116.129  0.00  0.00     0.028 C 
ATOM      5  C   LIG d   1      -9.290  74.975 117.054  0.00  0.00    -0.047 C 
ATOM      6  C   LIG d   1      -7.998  75.795 116.839  0.00  0.00     0.091 C 
ENDROOT
BRANCH   1   7
ATOM      7  O   LIG d   1      -5.596  75.558 116.418  0.00  0.00    -0.368 OA
BRANCH   7   8
ATOM      8  C   LIG d   1      -5.148  74.972 115.171  0.00  0.00     0.119 C 
BRANCH   8   9
ATOM      9  C   LIG d   1      -3.613  74.853 115.240  0.00  0.00     0.028 C 
ATOM     10  C   LIG d   1      -3.124  74.356 116.611  0.00  0.00     0.006 C 
ENDBRANCH   8   9
BRANCH   8  11
ATOM     11  C   LIG d   1      -5.429  75.900 113.985  0.00  0.00     0.028 C 
ATOM     12  C   LIG d   1      -6.856  75.746 113.434  0.00  0.00     0.006 C 
ENDBRANCH   8  11
ENDBRANCH   7   8
ENDBRANCH   1   7
BRANCH   6  13
ATOM     13  N   LIG d   1      -7.902  76.954 117.765  0.00  0.00    -0.311 N 
ATOM     14  C   LIG d   1      -7.303  78.100 117.446  0.00  0.00     0.210 C 
ATOM     15  C   LIG d   1      -7.299  79.157 118.555  0.00  0.00     0.109 C 
ATOM     16  O   LIG d   1      -6.804  78.353 116.340  0.00  0.00    -0.276 OA
ATOM     17  H   LIG d   1      -8.309  76.846 118.674  0.00  0.00     0.149 HD
ENDBRANCH   6  13
BRANCH   5  18
ATOM     18  N   LIG d   1     -10.517  75.738 116.755  0.00  0.00     0.381 N 
ATOM     19  H   LIG d   1     -10.298  76.711 116.674  0.00  0.00    -0.090 HD
ATOM     20  H   LIG d   1     -11.164  75.623 117.515  0.00  0.00    -0.090 HD
ATOM     21  H   LIG d   1     -10.925  75.410 115.908  0.00  0.00    -0.090 HD
ENDBRANCH   5  18
BRANCH   3  22
ATOM     22  C   LIG d   1      -8.144  71.651 115.976  0.00  0.00     0.382 C 
ATOM     23  O   LIG d   1      -7.124  71.039 115.580  0.00  0.00    -0.241 OA
ATOM     24  O   LIG d   1      -9.219  71.034 116.105  0.00  0.00    -0.241 OA
ENDBRANCH   3  22
TORSDOF 7
ENDMDL
MODEL 5
REMARK VINA RESULT:      -5.7      2.386      5.249
REMARK  7 active torsions:
REMARK  status: ('A' for Active; 'I' for Inactive)
REMARK    1  A    between atoms: C_2  and  C_3 
REMARK    2  A    between atoms: C_3  and  O_6 
REMARK    3  A    between atoms: C_3  and  C_4 
REMARK    4  A    between atoms: C_7  and  O_6 
REMARK    5  A    between atoms: C_9  and  C_10 
REMARK    6  A    between atoms: N_15  and  C_14 
REMARK    7  A    between atoms: N_20  and  C_19 
REMARK       I    between atoms: C_22  and  N_20 
ROOT
ATOM      1  C   LIG d   1      -5.662  74.637 116.734  0.00  0.00     0.161 C 
ATOM      2  C   LIG d   1      -6.451  73.529 116.382  0.00  0.00     0.016 C 
ATOM      3  C   LIG d   1      -7.861  73.576 116.286  0.00  0.00     0.038 C 
ATOM      4  C   LIG d   1      -8.571  74.781 116.389  0.00  0.00     0.028 C 
ATOM      5  C   LIG d   1      -7.864  75.830 117.242  0.00  0.00    -0.047 C 
ATOM      6  C   LIG d   1      -6.410  75.986 116.741  0.00  0.00     0.091 C 
ENDROOT
BRANCH   1   7
ATOM      7  O   LIG d   1      -4.508  74.708 115.873  0.00  0.00    -0.368 OA
BRANCH   7   8
ATOM      8  C   LIG d   1      -4.553  75.711 114.829  0.00  0.00     0.119 C 
BRANCH   8   9
ATOM      9  C   LIG d   1      -5.020  75.015 113.536  0.00  0.00     0.028 C 
ATOM     10  C   LIG d   1      -6.157  75.778 112.836  0.00  0.00     0.006 C 
ENDBRANCH   8   9
BRANCH   8  11
ATOM     11  C   LIG d   1      -3.154  76.252 114.516  0.00  0.00     0.028 C 
ATOM     12  C   LIG d   1      -3.088  77.787 114.546  0.00  0.00     0.006 C 
ENDBRANCH   8  11
ENDBRANCH   7   8
ENDBRANCH   1   7
BRANCH   6  13
ATOM     13  N   LIG d   1      -5.623  76.932 117.574  0.00  0.00    -0.311 N 
ATOM     14  C   LIG d   1      -5.492  78.227 117.288  0.00  0.00     0.210 C 
ATOM     15  C   LIG d   1      -4.620  79.020 118.267  0.00  0.00     0.109 C 
ATOM     16  O   LIG d   1      -6.042  78.800 116.336  0.00  0.00    -0.276 OA
ATOM     17  H   LIG d   1      -5.168  76.558 118.384  0.00  0.00     0.149 HD
ENDBRANCH   6  13
BRANCH   5  18
ATOM     18  N   LIG d   1      -8.645  77.078 117.151  0.00  0.00     0.381 N 
ATOM     19  H   LIG d   1      -8.059  77.821 116.824  0.00  0.00    -0.090 HD
ATOM     20  H   LIG d   1      -8.979  77.320 118.067  0.00  0.00    -0.090 HD
ATOM     21  H   LIG d   1      -9.414  76.955 116.530  0.00  0.00    -0.090 HD
ENDBRANCH   5  18
BRANCH   3  22
ATOM     22  C   LIG d   1      -8.579  72.400 116.125  0.00  0.00     0.382 C 
ATOM     23  O   LIG d   1      -8.018  71.385 115.647  0.00  0.00    -0.241 OA
ATOM     24  O   LIG d   1      -9.790  72.356 116.410  0.00  0.00    -0.241 OA
ENDBRANCH   3  22
TORSDOF 7
ENDMDL
MODEL 6
REMARK VINA RESULT:      -5.7      2.449      5.636
REMARK  7 active torsions:
REMARK  status: ('A' for Active; 'I' for Inactive)
REMARK    1  A    between atoms: C_2  and  C_3 
REMARK    2  A    between atoms: C_3  and  O_6 
REMARK    3  A    between atoms: C_3  and  C_4 
REMARK    4  A    between atoms: C_7  and  O_6 
REMARK    5  A    between atoms: C_9  and  C_10 
REMARK    6  A    between atoms: N_15  and  C_14 
REMARK    7  A    between atoms: N_20  and  C_19 
REMARK       I    between atoms: C_22  and  N_20 
ROOT
ATOM      1  C   LIG d   1      -4.471  75.206 115.914  0.00  0.00     0.161 C 
ATOM      2  C   LIG d   1      -3.413  74.608 115.209  0.00  0.00     0.016 C 
ATOM      3  C   LIG d   1      -2.052  74.899 115.454  0.00  0.00     0.038 C 
ATOM      4  C   LIG d   1      -1.648  75.702 116.531  0.00  0.00     0.028 C 
ATOM      5  C   LIG d   1      -2.698  76.725 116.952  0.00  0.00    -0.047 C 
ATOM      6  C   LIG d   1      -4.046  76.000 117.167  0.00  0.00     0.091 C 
ENDROOT
BRANCH   1   7
ATOM      7  O   LIG d   1      -5.452  74.209 116.261  0.00  0.00    -0.368 OA
BRANCH   7   8
ATOM      8  C   LIG d   1      -6.461  73.930 115.259  0.00  0.00     0.119 C 
BRANCH   8   9
ATOM      9  C   LIG d   1      -7.071  75.278 114.829  0.00  0.00     0.028 C 
ATOM     10  C   LIG d   1      -8.277  75.678 115.696  0.00  0.00     0.006 C 
ENDBRANCH   8   9
BRANCH   8  11
ATOM     11  C   LIG d   1      -7.624  73.127 115.847  0.00  0.00     0.028 C 
ATOM     12  C   LIG d   1      -7.372  71.611 115.828  0.00  0.00     0.006 C 
ENDBRANCH   8  11
ENDBRANCH   7   8
ENDBRANCH   1   7
BRANCH   6  13
ATOM     13  N   LIG d   1      -5.149  76.940 117.498  0.00  0.00    -0.311 N 
ATOM     14  C   LIG d   1      -5.453  78.004 116.757  0.00  0.00     0.210 C 
ATOM     15  C   LIG d   1      -6.612  78.852 117.289  0.00  0.00     0.109 C 
ATOM     16  O   LIG d   1      -4.894  78.307 115.692  0.00  0.00    -0.276 OA
ATOM     17  H   LIG d   1      -5.674  76.751 118.329  0.00  0.00     0.149 HD
ENDBRANCH   6  13
BRANCH   5  18
ATOM     18  N   LIG d   1      -2.203  77.397 118.168  0.00  0.00     0.381 N 
ATOM     19  H   LIG d   1      -2.921  77.409 118.865  0.00  0.00    -0.090 HD
ATOM     20  H   LIG d   1      -1.968  78.347 117.941  0.00  0.00    -0.090 HD
ATOM     21  H   LIG d   1      -1.400  76.923 118.517  0.00  0.00    -0.090 HD
ENDBRANCH   5  18
BRANCH   3  22
ATOM     22  C   LIG d   1      -1.079  74.417 114.591  0.00  0.00     0.382 C 
ATOM     23  O   LIG d   1      -0.455  73.366 114.875  0.00  0.00    -0.241 OA
ATOM     24  O   LIG d   1      -0.787  75.043 113.555  0.00  0.00    -0.241 OA
ENDBRANCH   3  22
TORSDOF 7
ENDMDL
MODEL 7
REMARK VINA RESULT:      -5.2      3.285      5.864
REMARK  7 active torsions:
REMARK  status: ('A' for Active; 'I' for Inactive)
REMARK    1  A    between atoms: C_2  and  C_3 
REMARK    2  A    between atoms: C_3  and  O_6 
REMARK    3  A    between atoms: C_3  and  C_4 
REMARK    4  A    between atoms: C_7  and  O_6 
REMARK    5  A    between atoms: C_9  and  C_10 
REMARK    6  A    between atoms: N_15  and  C_14 
REMARK    7  A    between atoms: N_20  and  C_19 
REMARK       I    between atoms: C_22  and  N_20 
ROOT
ATOM      1  C   LIG d   1      -3.683  75.407 114.784  0.00  0.00     0.161 C 
ATOM      2  C   LIG d   1      -3.006  76.637 114.736  0.00  0.00     0.016 C 
ATOM      3  C   LIG d   1      -3.556  77.847 115.219  0.00  0.00     0.038 C 
ATOM      4  C   LIG d   1      -4.767  77.881 115.925  0.00  0.00     0.028 C 
ATOM      5  C   LIG d   1      -5.718  76.748 115.553  0.00  0.00    -0.047 C 
ATOM      6  C   LIG d   1      -4.959  75.405 115.651  0.00  0.00     0.091 C 
ENDROOT
BRANCH   1   7
ATOM      7  O   LIG d   1      -2.781  74.370 115.218  0.00  0.00    -0.368 OA
BRANCH   7   8
ATOM      8  C   LIG d   1      -1.532  74.815 115.802  0.00  0.00     0.119 C 
BRANCH   8   9
ATOM      9  C   LIG d   1      -0.404  73.965 115.185  0.00  0.00     0.028 C 
ATOM     10  C   LIG d   1      -0.678  73.604 113.716  0.00  0.00     0.006 C 
ENDBRANCH   8   9
BRANCH   8  11
ATOM     11  C   LIG d   1      -1.485  74.522 117.305  0.00  0.00     0.028 C 
ATOM     12  C   LIG d   1      -0.148  74.925 117.948  0.00  0.00     0.006 C 
ENDBRANCH   8  11
ENDBRANCH   7   8
ENDBRANCH   1   7
BRANCH   6  13
ATOM     13  N   LIG d   1      -5.792  74.251 115.222  0.00  0.00    -0.311 N 
ATOM     14  C   LIG d   1      -6.583  73.569 116.049  0.00  0.00     0.210 C 
ATOM     15  C   LIG d   1      -7.340  72.403 115.406  0.00  0.00     0.109 C 
ATOM     16  O   LIG d   1      -6.754  73.840 117.247  0.00  0.00    -0.276 OA
ATOM     17  H   LIG d   1      -5.738  73.983 114.258  0.00  0.00     0.149 HD
ENDBRANCH   6  13
BRANCH   5  18
ATOM     18  N   LIG d   1      -6.879  76.824 116.459  0.00  0.00     0.381 N 
ATOM     19  H   LIG d   1      -7.342  75.938 116.491  0.00  0.00    -0.090 HD
ATOM     20  H   LIG d   1      -7.526  77.505 116.102  0.00  0.00    -0.090 HD
ATOM     21  H   LIG d   1      -6.582  77.085 117.373  0.00  0.00    -0.090 HD
ENDBRANCH   5  18
BRANCH   3  22
ATOM     22  C   LIG d   1      -2.909  79.047 114.962  0.00  0.00     0.382 C 
ATOM     23  O   LIG d   1      -3.193  79.703 113.931  0.00  0.00    -0.241 OA
ATOM     24  O   LIG d   1      -2.015  79.458 115.725  0.00  0.00    -0.241 OA
ENDBRANCH   3  22
TORSDOF 7
ENDMDL
MODEL 8
REMARK VINA RESULT:      -5.1      3.769      6.469
REMARK  7 active torsions:
REMARK  status: ('A' for Active; 'I' for Inactive)
REMARK    1  A    between atoms: C_2  and  C_3 
REMARK    2  A    between atoms: C_3  and  O_6 
REMARK    3  A    between atoms: C_3  and  C_4 
REMARK    4  A    between atoms: C_7  and  O_6 
REMARK    5  A    between atoms: C_9  and  C_10 
REMARK    6  A    between atoms: N_15  and  C_14 
REMARK    7  A    between atoms: N_20  and  C_19 
REMARK       I    between atoms: C_22  and  N_20 
ROOT
ATOM      1  C   LIG d   1      -2.895  75.907 114.401  0.00  0.00     0.161 C 
ATOM      2  C   LIG d   1      -3.882  76.717 114.986  0.00  0.00     0.016 C 
ATOM      3  C   LIG d   1      -4.316  76.572 116.324  0.00  0.00     0.038 C 
ATOM      4  C   LIG d   1      -3.681  75.699 117.219  0.00  0.00     0.028 C 
ATOM      5  C   LIG d   1      -3.019  74.507 116.536  0.00  0.00    -0.047 C 
ATOM      6  C   LIG d   1      -2.112  75.023 115.395  0.00  0.00     0.091 C 
ENDROOT
BRANCH   1   7
ATOM      7  O   LIG d   1      -1.987  76.720 113.632  0.00  0.00    -0.368 OA
BRANCH   7   8
ATOM      8  C   LIG d   1      -2.119  78.154 113.798  0.00  0.00     0.119 C 
BRANCH   8   9
ATOM      9  C   LIG d   1      -2.287  78.768 112.394  0.00  0.00     0.028 C 
ATOM     10  C   LIG d   1      -0.986  79.399 111.870  0.00  0.00     0.006 C 
ENDBRANCH   8   9
BRANCH   8  11
ATOM     11  C   LIG d   1      -0.835  78.770 114.359  0.00  0.00     0.028 C 
ATOM     12  C   LIG d   1      -0.573  78.374 115.821  0.00  0.00     0.006 C 
ENDBRANCH   8  11
ENDBRANCH   7   8
ENDBRANCH   1   7
BRANCH   6  13
ATOM     13  N   LIG d   1      -1.492  73.916 114.620  0.00  0.00    -0.311 N 
ATOM     14  C   LIG d   1      -0.230  73.937 114.195  0.00  0.00     0.210 C 
ATOM     15  C   LIG d   1       0.204  72.704 113.397  0.00  0.00     0.109 C 
ATOM     16  O   LIG d   1       0.581  74.845 114.432  0.00  0.00    -0.276 OA
ATOM     17  H   LIG d   1      -2.070  73.126 114.410  0.00  0.00     0.149 HD
ENDBRANCH   6  13
BRANCH   5  18
ATOM     18  N   LIG d   1      -2.280  73.756 117.567  0.00  0.00     0.381 N 
ATOM     19  H   LIG d   1      -2.838  72.993 117.896  0.00  0.00    -0.090 HD
ATOM     20  H   LIG d   1      -2.093  74.367 118.343  0.00  0.00    -0.090 HD
ATOM     21  H   LIG d   1      -1.423  73.413 117.191  0.00  0.00    -0.090 HD
ENDBRANCH   5  18
BRANCH   3  22
ATOM     22  C   LIG d   1      -5.424  77.278 116.767  0.00  0.00     0.382 C 
ATOM     23  O   LIG d   1      -6.242  77.747 115.938  0.00  0.00    -0.241 OA
ATOM     24  O   LIG d   1      -5.594  77.490 117.983  0.00  0.00    -0.241 OA
ENDBRANCH   3  22
TORSDOF 7
ENDMDL
MODEL 9
REMARK VINA RESULT:      -5.0     12.490     15.394
REMARK  7 active torsions:
REMARK  status: ('A' for Active; 'I' for Inactive)
REMARK    1  A    between atoms: C_2  and  C_3 
REMARK    2  A    between atoms: C_3  and  O_6 
REMARK    3  A    between atoms: C_3  and  C_4 
REMARK    4  A    between atoms: C_7  and  O_6 
REMARK    5  A    between atoms: C_9  and  C_10 
REMARK    6  A    between atoms: N_15  and  C_14 
REMARK    7  A    between atoms: N_20  and  C_19 
REMARK       I    between atoms: C_22  and  N_20 
ROOT
ATOM      1  C   LIG d   1     -16.544  64.855 114.425  0.00  0.00     0.161 C 
ATOM      2  C   LIG d   1     -16.138  65.827 113.495  0.00  0.00     0.016 C 
ATOM      3  C   LIG d   1     -15.330  66.937 113.833  0.00  0.00     0.038 C 
ATOM      4  C   LIG d   1     -14.744  67.069 115.101  0.00  0.00     0.028 C 
ATOM      5  C   LIG d   1     -15.535  66.381 116.208  0.00  0.00    -0.047 C 
ATOM      6  C   LIG d   1     -15.823  64.922 115.787  0.00  0.00     0.091 C 
ENDROOT
BRANCH   1   7
ATOM      7  O   LIG d   1     -16.405  63.541 113.849  0.00  0.00    -0.368 OA
BRANCH   7   8
ATOM      8  C   LIG d   1     -17.637  62.877 113.473  0.00  0.00     0.119 C 
BRANCH   8   9
ATOM      9  C   LIG d   1     -18.802  63.809 113.858  0.00  0.00     0.028 C 
ATOM     10  C   LIG d   1     -19.620  64.261 112.636  0.00  0.00     0.006 C 
ENDBRANCH   8   9
BRANCH   8  11
ATOM     11  C   LIG d   1     -17.853  61.599 114.289  0.00  0.00     0.028 C 
ATOM     12  C   LIG d   1     -16.535  60.956 114.749  0.00  0.00     0.006 C 
ENDBRANCH   8  11
ENDBRANCH   7   8
ENDBRANCH   1   7
BRANCH   6  13
ATOM     13  N   LIG d   1     -16.665  64.202 116.777  0.00  0.00    -0.311 N 
ATOM     14  C   LIG d   1     -16.204  63.228 117.561  0.00  0.00     0.210 C 
ATOM     15  C   LIG d   1     -17.245  62.605 118.497  0.00  0.00     0.109 C 
ATOM     16  O   LIG d   1     -15.026  62.843 117.593  0.00  0.00    -0.276 OA
ATOM     17  H   LIG d   1     -17.627  64.472 116.840  0.00  0.00     0.149 HD
ENDBRANCH   6  13
BRANCH   5  18
ATOM     18  N   LIG d   1     -14.742  66.479 117.449  0.00  0.00     0.381 N 
ATOM     19  H   LIG d   1     -13.973  67.104 117.311  0.00  0.00    -0.090 HD
ATOM     20  H   LIG d   1     -14.375  65.571 117.672  0.00  0.00    -0.090 HD
ATOM     21  H   LIG d   1     -15.316  66.807 118.195  0.00  0.00    -0.090 HD
ENDBRANCH   5  18
BRANCH   3  22
ATOM     22  C   LIG d   1     -15.134  67.952 112.908  0.00  0.00     0.382 C 
ATOM     23  O   LIG d   1     -14.405  68.931 113.197  0.00  0.00    -0.241 OA
ATOM     24  O   LIG d   1     -15.712  67.921 111.805  0.00  0.00    -0.241 OA
ENDBRANCH   3  22
TORSDOF 7
ENDMDL
