MODEL 1
REMARK VINA RESULT:      -5.0      0.000      0.000
REMARK  7 active torsions:
REMARK  status: ('A' for Active; 'I' for Inactive)
REMARK    1  A    between atoms: C_2  and  C_3 
REMARK    2  A    between atoms: C_3  and  O_6 
REMARK    3  A    between atoms: C_3  and  C_4 
REMARK    4  A    between atoms: C_7  and  O_6 
REMARK    5  A    between atoms: C_9  and  C_10 
REMARK    6  A    between atoms: N_15  and  C_14 
REMARK    7  A    between atoms: N_20  and  C_19 
REMARK       I    between atoms: C_22  and  N_20 
ROOT
ATOM      1  C   LIG d   1      -6.117  74.912 117.095  0.00  0.00     0.161 C 
ATOM      2  C   LIG d   1      -6.817  73.728 116.807  0.00  0.00     0.016 C 
ATOM      3  C   LIG d   1      -8.195  73.555 117.070  0.00  0.00     0.038 C 
ATOM      4  C   LIG d   1      -9.006  74.614 117.503  0.00  0.00     0.028 C 
ATOM      5  C   LIG d   1      -8.244  75.680 118.285  0.00  0.00    -0.047 C 
ATOM      6  C   LIG d   1      -7.008  76.116 117.464  0.00  0.00     0.091 C 
ENDROOT
BRANCH   1   7
ATOM      7  O   LIG d   1      -5.252  75.248 115.992  0.00  0.00    -0.368 OA
BRANCH   7   8
ATOM      8  C   LIG d   1      -3.901  74.730 116.060  0.00  0.00     0.119 C 
BRANCH   8   9
ATOM      9  C   LIG d   1      -3.395  74.945 117.500  0.00  0.00     0.028 C 
ATOM     10  C   LIG d   1      -2.199  74.041 117.843  0.00  0.00     0.006 C 
ENDBRANCH   8   9
BRANCH   8  11
ATOM     11  C   LIG d   1      -2.949  75.536 115.171  0.00  0.00     0.028 C 
ATOM     12  C   LIG d   1      -3.666  76.639 114.378  0.00  0.00     0.006 C 
ENDBRANCH   8  11
ENDBRANCH   7   8
ENDBRANCH   1   7
BRANCH   6  13
ATOM     13  N   LIG d   1      -6.161  77.095 118.193  0.00  0.00    -0.311 N 
ATOM     14  C   LIG d   1      -5.662  78.195 117.631  0.00  0.00     0.210 C 
ATOM     15  C   LIG d   1      -4.798  79.059 118.555  0.00  0.00     0.109 C 
ATOM     16  O   LIG d   1      -5.880  78.553 116.464  0.00  0.00    -0.276 OA
ATOM     17  H   LIG d   1      -5.960  76.898 119.154  0.00  0.00     0.149 HD
ENDBRANCH   6  13
BRANCH   5  18
ATOM     18  N   LIG d   1      -9.179  76.788 118.555  0.00  0.00     0.381 N 
ATOM     19  H   LIG d   1      -8.701  77.526 119.031  0.00  0.00    -0.090 HD
ATOM     20  H   LIG d   1      -9.916  76.454 119.151  0.00  0.00    -0.090 HD
ATOM     21  H   LIG d   1      -9.561  77.128 117.700  0.00  0.00    -0.090 HD
ENDBRANCH   5  18
BRANCH   3  22
ATOM     22  C   LIG d   1      -8.767  72.299 116.938  0.00  0.00     0.382 C 
ATOM     23  O   LIG d   1      -8.137  71.380 116.362  0.00  0.00    -0.241 OA
ATOM     24  O   LIG d   1      -9.924  72.085 117.348  0.00  0.00    -0.241 OA
ENDBRANCH   3  22
TORSDOF 7
ENDMDL
MODEL 2
REMARK VINA RESULT:      -5.0      2.236      4.047
REMARK  7 active torsions:
REMARK  status: ('A' for Active; 'I' for Inactive)
REMARK    1  A    between atoms: C_2  and  C_3 
REMARK    2  A    between atoms: C_3  and  O_6 
REMARK    3  A    between atoms: C_3  and  C_4 
REMARK    4  A    between atoms: C_7  and  O_6 
REMARK    5  A    between atoms: C_9  and  C_10 
REMARK    6  A    between atoms: N_15  and  C_14 
REMARK    7  A    between atoms: N_20  and  C_19 
REMARK       I    between atoms: C_22  and  N_20 
ROOT
ATOM      1  C   LIG d   1      -6.428  76.115 116.630  0.00  0.00     0.161 C 
ATOM      2  C   LIG d   1      -7.810  76.120 116.886  0.00  0.00     0.016 C 
ATOM      3  C   LIG d   1      -8.580  74.941 117.019  0.00  0.00     0.038 C 
ATOM      4  C   LIG d   1      -7.989  73.670 117.055  0.00  0.00     0.028 C 
ATOM      5  C   LIG d   1      -6.668  73.593 116.298  0.00  0.00    -0.047 C 
ATOM      6  C   LIG d   1      -5.748  74.739 116.778  0.00  0.00     0.091 C 
ENDROOT
BRANCH   1   7
ATOM      7  O   LIG d   1      -5.774  77.090 117.467  0.00  0.00    -0.368 OA
BRANCH   7   8
ATOM      8  C   LIG d   1      -5.842  78.465 117.016  0.00  0.00     0.119 C 
BRANCH   8   9
ATOM      9  C   LIG d   1      -4.395  78.970 116.851  0.00  0.00     0.028 C 
ATOM     10  C   LIG d   1      -3.423  78.300 117.837  0.00  0.00     0.006 C 
ENDBRANCH   8   9
BRANCH   8  11
ATOM     11  C   LIG d   1      -6.468  79.370 118.081  0.00  0.00     0.028 C 
ATOM     12  C   LIG d   1      -6.364  80.863 117.730  0.00  0.00     0.006 C 
ENDBRANCH   8  11
ENDBRANCH   7   8
ENDBRANCH   1   7
BRANCH   6  13
ATOM     13  N   LIG d   1      -4.466  74.788 116.027  0.00  0.00    -0.311 N 
ATOM     14  C   LIG d   1      -3.271  74.779 116.615  0.00  0.00     0.210 C 
ATOM     15  C   LIG d   1      -2.078  74.857 115.657  0.00  0.00     0.109 C 
ATOM     16  O   LIG d   1      -3.085  74.682 117.837  0.00  0.00    -0.276 OA
ATOM     17  H   LIG d   1      -4.524  74.836 115.028  0.00  0.00     0.149 HD
ENDBRANCH   6  13
BRANCH   5  18
ATOM     18  N   LIG d   1      -6.096  72.254 116.533  0.00  0.00     0.381 N 
ATOM     19  H   LIG d   1      -6.768  71.676 116.997  0.00  0.00    -0.090 HD
ATOM     20  H   LIG d   1      -5.292  72.344 117.129  0.00  0.00    -0.090 HD
ATOM     21  H   LIG d   1      -5.832  71.839 115.666  0.00  0.00    -0.090 HD
ENDBRANCH   5  18
BRANCH   3  22
ATOM     22  C   LIG d   1      -9.963  75.027 117.077  0.00  0.00     0.382 C 
ATOM     23  O   LIG d   1     -10.509  75.793 117.908  0.00  0.00    -0.241 OA
ATOM     24  O   LIG d   1     -10.672  74.316 116.341  0.00  0.00    -0.241 OA
ENDBRANCH   3  22
TORSDOF 7
ENDMDL
MODEL 3
REMARK VINA RESULT:      -4.9      2.607      5.570
REMARK  7 active torsions:
REMARK  status: ('A' for Active; 'I' for Inactive)
REMARK    1  A    between atoms: C_2  and  C_3 
REMARK    2  A    between atoms: C_3  and  O_6 
REMARK    3  A    between atoms: C_3  and  C_4 
REMARK    4  A    between atoms: C_7  and  O_6 
REMARK    5  A    between atoms: C_9  and  C_10 
REMARK    6  A    between atoms: N_15  and  C_14 
REMARK    7  A    between atoms: N_20  and  C_19 
REMARK       I    between atoms: C_22  and  N_20 
ROOT
ATOM      1  C   LIG d   1      -5.937  76.690 118.135  0.00  0.00     0.161 C 
ATOM      2  C   LIG d   1      -6.786  77.810 118.126  0.00  0.00     0.016 C 
ATOM      3  C   LIG d   1      -6.372  79.096 117.709  0.00  0.00     0.038 C 
ATOM      4  C   LIG d   1      -5.116  79.318 117.125  0.00  0.00     0.028 C 
ATOM      5  C   LIG d   1      -4.053  78.325 117.581  0.00  0.00    -0.047 C 
ATOM      6  C   LIG d   1      -4.596  76.889 117.398  0.00  0.00     0.091 C 
ENDROOT
BRANCH   1   7
ATOM      7  O   LIG d   1      -6.634  75.545 117.608  0.00  0.00    -0.368 OA
BRANCH   7   8
ATOM      8  C   LIG d   1      -6.845  75.531 116.174  0.00  0.00     0.119 C 
BRANCH   8   9
ATOM      9  C   LIG d   1      -8.365  75.599 115.929  0.00  0.00     0.028 C 
ATOM     10  C   LIG d   1      -9.174  75.009 117.096  0.00  0.00     0.006 C 
ENDBRANCH   8   9
BRANCH   8  11
ATOM     11  C   LIG d   1      -6.393  74.205 115.557  0.00  0.00     0.028 C 
ATOM     12  C   LIG d   1      -6.149  73.111 116.608  0.00  0.00     0.006 C 
ENDBRANCH   8  11
ENDBRANCH   7   8
ENDBRANCH   1   7
BRANCH   6  13
ATOM     13  N   LIG d   1      -3.651  75.857 117.898  0.00  0.00    -0.311 N 
ATOM     14  C   LIG d   1      -2.981  75.028 117.100  0.00  0.00     0.210 C 
ATOM     15  C   LIG d   1      -2.074  74.027 117.822  0.00  0.00     0.109 C 
ATOM     16  O   LIG d   1      -3.028  75.048 115.861  0.00  0.00    -0.276 OA
ATOM     17  H   LIG d   1      -3.529  75.792 118.890  0.00  0.00     0.149 HD
ENDBRANCH   6  13
BRANCH   5  18
ATOM     18  N   LIG d   1      -2.833  78.585 116.793  0.00  0.00     0.381 N 
ATOM     19  H   LIG d   1      -2.650  79.569 116.768  0.00  0.00    -0.090 HD
ATOM     20  H   LIG d   1      -2.979  78.267 115.852  0.00  0.00    -0.090 HD
ATOM     21  H   LIG d   1      -2.058  78.107 117.197  0.00  0.00    -0.090 HD
ENDBRANCH   5  18
BRANCH   3  22
ATOM     22  C   LIG d   1      -7.207  80.185 117.910  0.00  0.00     0.382 C 
ATOM     23  O   LIG d   1      -8.274  80.046 118.555  0.00  0.00    -0.241 OA
ATOM     24  O   LIG d   1      -6.928  81.295 117.418  0.00  0.00    -0.241 OA
ENDBRANCH   3  22
TORSDOF 7
ENDMDL
MODEL 4
REMARK VINA RESULT:      -4.8      2.204      5.477
REMARK  7 active torsions:
REMARK  status: ('A' for Active; 'I' for Inactive)
REMARK    1  A    between atoms: C_2  and  C_3 
REMARK    2  A    between atoms: C_3  and  O_6 
REMARK    3  A    between atoms: C_3  and  C_4 
REMARK    4  A    between atoms: C_7  and  O_6 
REMARK    5  A    between atoms: C_9  and  C_10 
REMARK    6  A    between atoms: N_15  and  C_14 
REMARK    7  A    between atoms: N_20  and  C_19 
REMARK       I    between atoms: C_22  and  N_20 
ROOT
ATOM      1  C   LIG d   1      -4.572  75.380 116.383  0.00  0.00     0.161 C 
ATOM      2  C   LIG d   1      -3.562  75.133 115.438  0.00  0.00     0.016 C 
ATOM      3  C   LIG d   1      -2.295  75.760 115.471  0.00  0.00     0.038 C 
ATOM      4  C   LIG d   1      -1.896  76.569 116.546  0.00  0.00     0.028 C 
ATOM      5  C   LIG d   1      -3.061  77.244 117.261  0.00  0.00    -0.047 C 
ATOM      6  C   LIG d   1      -4.116  76.174 117.625  0.00  0.00     0.091 C 
ENDROOT
BRANCH   1   7
ATOM      7  O   LIG d   1      -5.183  74.136 116.780  0.00  0.00    -0.368 OA
BRANCH   7   8
ATOM      8  C   LIG d   1      -6.368  73.745 116.042  0.00  0.00     0.119 C 
BRANCH   8   9
ATOM      9  C   LIG d   1      -7.592  74.244 116.834  0.00  0.00     0.028 C 
ATOM     10  C   LIG d   1      -8.315  75.403 116.127  0.00  0.00     0.006 C 
ENDBRANCH   8   9
BRANCH   8  11
ATOM     11  C   LIG d   1      -6.513  72.221 115.990  0.00  0.00     0.028 C 
ATOM     12  C   LIG d   1      -7.650  71.700 116.883  0.00  0.00     0.006 C 
ENDBRANCH   8  11
ENDBRANCH   7   8
ENDBRANCH   1   7
BRANCH   6  13
ATOM     13  N   LIG d   1      -5.328  76.762 118.253  0.00  0.00    -0.311 N 
ATOM     14  C   LIG d   1      -6.065  77.709 117.677  0.00  0.00     0.210 C 
ATOM     15  C   LIG d   1      -7.261  78.191 118.504  0.00  0.00     0.109 C 
ATOM     16  O   LIG d   1      -5.861  78.175 116.545  0.00  0.00    -0.276 OA
ATOM     17  H   LIG d   1      -5.584  76.420 119.158  0.00  0.00     0.149 HD
ENDBRANCH   6  13
BRANCH   5  18
ATOM     18  N   LIG d   1      -2.516  77.942 118.441  0.00  0.00     0.381 N 
ATOM     19  H   LIG d   1      -3.131  78.685 118.709  0.00  0.00    -0.090 HD
ATOM     20  H   LIG d   1      -1.626  78.341 118.200  0.00  0.00    -0.090 HD
ATOM     21  H   LIG d   1      -2.408  77.302 119.196  0.00  0.00    -0.090 HD
ENDBRANCH   5  18
BRANCH   3  22
ATOM     22  C   LIG d   1      -1.426  75.613 114.401  0.00  0.00     0.382 C 
ATOM     23  O   LIG d   1      -1.588  76.299 113.363  0.00  0.00    -0.241 OA
ATOM     24  O   LIG d   1      -0.510  74.770 114.442  0.00  0.00    -0.241 OA
ENDBRANCH   3  22
TORSDOF 7
ENDMDL
MODEL 5
REMARK VINA RESULT:      -4.7     13.025     16.684
REMARK  7 active torsions:
REMARK  status: ('A' for Active; 'I' for Inactive)
REMARK    1  A    between atoms: C_2  and  C_3 
REMARK    2  A    between atoms: C_3  and  O_6 
REMARK    3  A    between atoms: C_3  and  C_4 
REMARK    4  A    between atoms: C_7  and  O_6 
REMARK    5  A    between atoms: C_9  and  C_10 
REMARK    6  A    between atoms: N_15  and  C_14 
REMARK    7  A    between atoms: N_20  and  C_19 
REMARK       I    between atoms: C_22  and  N_20 
ROOT
ATOM      1  C   LIG d   1       2.439  87.640 115.576  0.00  0.00     0.161 C 
ATOM      2  C   LIG d   1       2.786  88.993 115.725  0.00  0.00     0.016 C 
ATOM      3  C   LIG d   1       3.868  89.436 116.520  0.00  0.00     0.038 C 
ATOM      4  C   LIG d   1       4.776  88.539 117.103  0.00  0.00     0.028 C 
ATOM      5  C   LIG d   1       4.172  87.170 117.394  0.00  0.00    -0.047 C 
ATOM      6  C   LIG d   1       3.485  86.641 116.114  0.00  0.00     0.091 C 
ENDROOT
BRANCH   1   7
ATOM      7  O   LIG d   1       2.145  87.360 114.193  0.00  0.00    -0.368 OA
BRANCH   7   8
ATOM      8  C   LIG d   1       2.844  88.171 113.216  0.00  0.00     0.119 C 
BRANCH   8   9
ATOM      9  C   LIG d   1       1.959  88.245 111.957  0.00  0.00     0.028 C 
ATOM     10  C   LIG d   1       1.051  87.013 111.805  0.00  0.00     0.006 C 
ENDBRANCH   8   9
BRANCH   8  11
ATOM     11  C   LIG d   1       4.142  87.497 112.760  0.00  0.00     0.028 C 
ATOM     12  C   LIG d   1       5.394  88.314 113.117  0.00  0.00     0.006 C 
ENDBRANCH   8  11
ENDBRANCH   7   8
ENDBRANCH   1   7
BRANCH   6  13
ATOM     13  N   LIG d   1       2.796  85.343 116.336  0.00  0.00    -0.311 N 
ATOM     14  C   LIG d   1       3.065  84.242 115.637  0.00  0.00     0.210 C 
ATOM     15  C   LIG d   1       2.225  83.017 116.012  0.00  0.00     0.109 C 
ATOM     16  O   LIG d   1       3.941  84.154 114.764  0.00  0.00    -0.276 OA
ATOM     17  H   LIG d   1       2.091  85.316 117.047  0.00  0.00     0.149 HD
ENDBRANCH   6  13
BRANCH   5  18
ATOM     18  N   LIG d   1       5.260  86.295 117.870  0.00  0.00     0.381 N 
ATOM     19  H   LIG d   1       5.435  85.575 117.197  0.00  0.00    -0.090 HD
ATOM     20  H   LIG d   1       4.975  85.860 118.730  0.00  0.00    -0.090 HD
ATOM     21  H   LIG d   1       6.088  86.830 118.018  0.00  0.00    -0.090 HD
ENDBRANCH   5  18
BRANCH   3  22
ATOM     22  C   LIG d   1       4.027  90.790 116.771  0.00  0.00     0.382 C 
ATOM     23  O   LIG d   1       3.290  91.626 116.194  0.00  0.00    -0.241 OA
ATOM     24  O   LIG d   1       4.927  91.190 117.534  0.00  0.00    -0.241 OA
ENDBRANCH   3  22
TORSDOF 7
ENDMDL
MODEL 6
REMARK VINA RESULT:      -4.6     18.915     21.105
REMARK  7 active torsions:
REMARK  status: ('A' for Active; 'I' for Inactive)
REMARK    1  A    between atoms: C_2  and  C_3 
REMARK    2  A    between atoms: C_3  and  O_6 
REMARK    3  A    between atoms: C_3  and  C_4 
REMARK    4  A    between atoms: C_7  and  O_6 
REMARK    5  A    between atoms: C_9  and  C_10 
REMARK    6  A    between atoms: N_15  and  C_14 
REMARK    7  A    between atoms: N_20  and  C_19 
REMARK       I    between atoms: C_22  and  N_20 
ROOT
ATOM      1  C   LIG d   1     -23.617  83.982 113.712  0.00  0.00     0.161 C 
ATOM      2  C   LIG d   1     -22.724  85.039 113.958  0.00  0.00     0.016 C 
ATOM      3  C   LIG d   1     -23.130  86.389 114.073  0.00  0.00     0.038 C 
ATOM      4  C   LIG d   1     -24.483  86.757 114.099  0.00  0.00     0.028 C 
ATOM      5  C   LIG d   1     -25.389  85.786 113.349  0.00  0.00    -0.047 C 
ATOM      6  C   LIG d   1     -25.109  84.351 113.848  0.00  0.00     0.091 C 
ENDROOT
BRANCH   1   7
ATOM      7  O   LIG d   1     -23.297  82.864 114.563  0.00  0.00    -0.368 OA
BRANCH   7   8
ATOM      8  C   LIG d   1     -23.857  82.900 115.899  0.00  0.00     0.119 C 
BRANCH   8   9
ATOM      9  C   LIG d   1     -22.684  83.040 116.889  0.00  0.00     0.028 C 
ATOM     10  C   LIG d   1     -22.694  84.392 117.622  0.00  0.00     0.006 C 
ENDBRANCH   8   9
BRANCH   8  11
ATOM     11  C   LIG d   1     -24.532  81.572 116.256  0.00  0.00     0.028 C 
ATOM     12  C   LIG d   1     -24.584  80.593 115.072  0.00  0.00     0.006 C 
ENDBRANCH   8  11
ENDBRANCH   7   8
ENDBRANCH   1   7
BRANCH   6  13
ATOM     13  N   LIG d   1     -25.894  83.329 113.107  0.00  0.00    -0.311 N 
ATOM     14  C   LIG d   1     -27.056  82.842 113.539  0.00  0.00     0.210 C 
ATOM     15  C   LIG d   1     -27.690  81.782 112.632  0.00  0.00     0.109 C 
ATOM     16  O   LIG d   1     -27.637  83.209 114.571  0.00  0.00    -0.276 OA
ATOM     17  H   LIG d   1     -25.511  82.998 112.243  0.00  0.00     0.149 HD
ENDBRANCH   6  13
BRANCH   5  18
ATOM     18  N   LIG d   1     -26.783  86.215 113.574  0.00  0.00     0.381 N 
ATOM     19  H   LIG d   1     -26.797  87.145 113.940  0.00  0.00    -0.090 HD
ATOM     20  H   LIG d   1     -27.206  85.603 114.250  0.00  0.00    -0.090 HD
ATOM     21  H   LIG d   1     -27.292  86.179 112.718  0.00  0.00    -0.090 HD
ENDBRANCH   5  18
BRANCH   3  22
ATOM     22  C   LIG d   1     -22.173  87.391 114.122  0.00  0.00     0.382 C 
ATOM     23  O   LIG d   1     -22.364  88.405 114.836  0.00  0.00    -0.241 OA
ATOM     24  O   LIG d   1     -21.141  87.315 113.428  0.00  0.00    -0.241 OA
ENDBRANCH   3  22
TORSDOF 7
ENDMDL
MODEL 7
REMARK VINA RESULT:      -4.6     11.917     15.572
REMARK  7 active torsions:
REMARK  status: ('A' for Active; 'I' for Inactive)
REMARK    1  A    between atoms: C_2  and  C_3 
REMARK    2  A    between atoms: C_3  and  O_6 
REMARK    3  A    between atoms: C_3  and  C_4 
REMARK    4  A    between atoms: C_7  and  O_6 
REMARK    5  A    between atoms: C_9  and  C_10 
REMARK    6  A    between atoms: N_15  and  C_14 
REMARK    7  A    between atoms: N_20  and  C_19 
REMARK       I    between atoms: C_22  and  N_20 
ROOT
ATOM      1  C   LIG d   1       1.991  86.441 115.063  0.00  0.00     0.161 C 
ATOM      2  C   LIG d   1       2.263  87.731 114.578  0.00  0.00     0.016 C 
ATOM      3  C   LIG d   1       3.299  88.550 115.084  0.00  0.00     0.038 C 
ATOM      4  C   LIG d   1       4.236  88.072 116.012  0.00  0.00     0.028 C 
ATOM      5  C   LIG d   1       3.696  86.953 116.897  0.00  0.00    -0.047 C 
ATOM      6  C   LIG d   1       3.072  85.860 115.999  0.00  0.00     0.091 C 
ENDROOT
BRANCH   1   7
ATOM      7  O   LIG d   1       1.750  85.545 113.960  0.00  0.00    -0.368 OA
BRANCH   7   8
ATOM      8  C   LIG d   1       1.703  86.151 112.645  0.00  0.00     0.119 C 
BRANCH   8   9
ATOM      9  C   LIG d   1       0.487  85.560 111.906  0.00  0.00     0.028 C 
ATOM     10  C   LIG d   1      -0.799  86.365 112.154  0.00  0.00     0.006 C 
ENDBRANCH   8   9
BRANCH   8  11
ATOM     11  C   LIG d   1       2.921  85.755 111.805  0.00  0.00     0.028 C 
ATOM     12  C   LIG d   1       4.020  86.829 111.805  0.00  0.00     0.006 C 
ENDBRANCH   8  11
ENDBRANCH   7   8
ENDBRANCH   1   7
BRANCH   6  13
ATOM     13  N   LIG d   1       2.445  84.768 116.788  0.00  0.00    -0.311 N 
ATOM     14  C   LIG d   1       2.583  83.477 116.491  0.00  0.00     0.210 C 
ATOM     15  C   LIG d   1       1.836  82.517 117.422  0.00  0.00     0.109 C 
ATOM     16  O   LIG d   1       3.278  83.035 115.565  0.00  0.00    -0.276 OA
ATOM     17  H   LIG d   1       1.889  85.036 117.576  0.00  0.00     0.149 HD
ENDBRANCH   6  13
BRANCH   5  18
ATOM     18  N   LIG d   1       4.814  86.457 117.720  0.00  0.00     0.381 N 
ATOM     19  H   LIG d   1       5.638  86.376 117.159  0.00  0.00    -0.090 HD
ATOM     20  H   LIG d   1       4.580  85.545 118.071  0.00  0.00    -0.090 HD
ATOM     21  H   LIG d   1       4.981  87.080 118.480  0.00  0.00    -0.090 HD
ENDBRANCH   5  18
BRANCH   3  22
ATOM     22  C   LIG d   1       3.381  89.876 114.689  0.00  0.00     0.382 C 
ATOM     23  O   LIG d   1       3.300  90.791 115.544  0.00  0.00    -0.241 OA
ATOM     24  O   LIG d   1       3.490  90.171 113.484  0.00  0.00    -0.241 OA
ENDBRANCH   3  22
TORSDOF 7
ENDMDL
MODEL 8
REMARK VINA RESULT:      -4.5     19.794     22.328
REMARK  7 active torsions:
REMARK  status: ('A' for Active; 'I' for Inactive)
REMARK    1  A    between atoms: C_2  and  C_3 
REMARK    2  A    between atoms: C_3  and  O_6 
REMARK    3  A    between atoms: C_3  and  C_4 
REMARK    4  A    between atoms: C_7  and  O_6 
REMARK    5  A    between atoms: C_9  and  C_10 
REMARK    6  A    between atoms: N_15  and  C_14 
REMARK    7  A    between atoms: N_20  and  C_19 
REMARK       I    between atoms: C_22  and  N_20 
ROOT
ATOM      1  C   LIG d   1     -25.397  85.650 114.782  0.00  0.00     0.161 C 
ATOM      2  C   LIG d   1     -24.434  86.645 114.546  0.00  0.00     0.016 C 
ATOM      3  C   LIG d   1     -23.100  86.363 114.168  0.00  0.00     0.038 C 
ATOM      4  C   LIG d   1     -22.678  85.063 113.852  0.00  0.00     0.028 C 
ATOM      5  C   LIG d   1     -23.478  83.977 114.563  0.00  0.00    -0.047 C 
ATOM      6  C   LIG d   1     -24.985  84.232 114.334  0.00  0.00     0.091 C 
ENDROOT
BRANCH   1   7
ATOM      7  O   LIG d   1     -26.647  86.025 114.170  0.00  0.00    -0.368 OA
BRANCH   7   8
ATOM      8  C   LIG d   1     -26.650  86.105 112.724  0.00  0.00     0.119 C 
BRANCH   8   9
ATOM      9  C   LIG d   1     -27.399  87.394 112.333  0.00  0.00     0.028 C 
ATOM     10  C   LIG d   1     -26.452  88.591 112.150  0.00  0.00     0.006 C 
ENDBRANCH   8   9
BRANCH   8  11
ATOM     11  C   LIG d   1     -27.459  84.962 112.104  0.00  0.00     0.028 C 
ATOM     12  C   LIG d   1     -28.698  84.590 112.934  0.00  0.00     0.006 C 
ENDBRANCH   8  11
ENDBRANCH   7   8
ENDBRANCH   1   7
BRANCH   6  13
ATOM     13  N   LIG d   1     -25.841  83.262 115.066  0.00  0.00    -0.311 N 
ATOM     14  C   LIG d   1     -26.329  82.152 114.514  0.00  0.00     0.210 C 
ATOM     15  C   LIG d   1     -27.205  81.302 115.438  0.00  0.00     0.109 C 
ATOM     16  O   LIG d   1     -26.092  81.775 113.357  0.00  0.00    -0.276 OA
ATOM     17  H   LIG d   1     -26.058  83.475 116.020  0.00  0.00     0.149 HD
ENDBRANCH   6  13
BRANCH   5  18
ATOM     18  N   LIG d   1     -23.025  82.675 114.038  0.00  0.00     0.381 N 
ATOM     19  H   LIG d   1     -23.811  82.148 113.714  0.00  0.00    -0.090 HD
ATOM     20  H   LIG d   1     -22.586  82.160 114.781  0.00  0.00    -0.090 HD
ATOM     21  H   LIG d   1     -22.379  82.813 113.293  0.00  0.00    -0.090 HD
ENDBRANCH   5  18
BRANCH   3  22
ATOM     22  C   LIG d   1     -22.163  87.385 114.143  0.00  0.00     0.382 C 
ATOM     23  O   LIG d   1     -22.360  88.433 114.803  0.00  0.00    -0.241 OA
ATOM     24  O   LIG d   1     -21.144  87.290 113.432  0.00  0.00    -0.241 OA
ENDBRANCH   3  22
TORSDOF 7
ENDMDL
MODEL 9
REMARK VINA RESULT:      -4.5     15.100     17.814
REMARK  7 active torsions:
REMARK  status: ('A' for Active; 'I' for Inactive)
REMARK    1  A    between atoms: C_2  and  C_3 
REMARK    2  A    between atoms: C_3  and  O_6 
REMARK    3  A    between atoms: C_3  and  C_4 
REMARK    4  A    between atoms: C_7  and  O_6 
REMARK    5  A    between atoms: C_9  and  C_10 
REMARK    6  A    between atoms: N_15  and  C_14 
REMARK    7  A    between atoms: N_20  and  C_19 
REMARK       I    between atoms: C_22  and  N_20 
ROOT
ATOM      1  C   LIG d   1      10.236  80.303 115.235  0.00  0.00     0.161 C 
ATOM      2  C   LIG d   1       8.914  79.959 115.565  0.00  0.00     0.016 C 
ATOM      3  C   LIG d   1       8.408  78.642 115.478  0.00  0.00     0.038 C 
ATOM      4  C   LIG d   1       9.237  77.546 115.198  0.00  0.00     0.028 C 
ATOM      5  C   LIG d   1      10.463  77.910 114.367  0.00  0.00    -0.047 C 
ATOM      6  C   LIG d   1      11.185  79.103 115.035  0.00  0.00     0.091 C 
ENDROOT
BRANCH   1   7
ATOM      7  O   LIG d   1      10.769  81.203 116.227  0.00  0.00    -0.368 OA
BRANCH   7   8
ATOM      8  C   LIG d   1      10.255  81.045 117.572  0.00  0.00     0.119 C 
BRANCH   8   9
ATOM      9  C   LIG d   1      10.058  82.456 118.161  0.00  0.00     0.028 C 
ATOM     10  C   LIG d   1      10.000  83.542 117.074  0.00  0.00     0.006 C 
ENDBRANCH   8   9
BRANCH   8  11
ATOM     11  C   LIG d   1      11.280  80.365 118.485  0.00  0.00     0.028 C 
ATOM     12  C   LIG d   1      12.731  80.645 118.064  0.00  0.00     0.006 C 
ENDBRANCH   8  11
ENDBRANCH   7   8
ENDBRANCH   1   7
BRANCH   6  13
ATOM     13  N   LIG d   1      12.349  79.577 114.241  0.00  0.00    -0.311 N 
ATOM     14  C   LIG d   1      13.590  79.130 114.421  0.00  0.00     0.210 C 
ATOM     15  C   LIG d   1      14.645  79.766 113.510  0.00  0.00     0.109 C 
ATOM     16  O   LIG d   1      13.913  78.243 115.226  0.00  0.00    -0.276 OA
ATOM     17  H   LIG d   1      12.172  80.274 113.544  0.00  0.00     0.149 HD
ENDBRANCH   6  13
BRANCH   5  18
ATOM     18  N   LIG d   1      11.308  76.705 114.267  0.00  0.00     0.381 N 
ATOM     19  H   LIG d   1      12.197  76.946 113.877  0.00  0.00    -0.090 HD
ATOM     20  H   LIG d   1      10.862  76.046 113.654  0.00  0.00    -0.090 HD
ATOM     21  H   LIG d   1      11.431  76.300 115.169  0.00  0.00    -0.090 HD
ENDBRANCH   5  18
BRANCH   3  22
ATOM     22  C   LIG d   1       7.049  78.417 115.633  0.00  0.00     0.382 C 
ATOM     23  O   LIG d   1       6.575  78.207 116.776  0.00  0.00    -0.241 OA
ATOM     24  O   LIG d   1       6.297  78.378 114.641  0.00  0.00    -0.241 OA
ENDBRANCH   3  22
TORSDOF 7
ENDMDL
