MODEL 1
REMARK VINA RESULT:      -5.3      0.000      0.000
REMARK  7 active torsions:
REMARK  status: ('A' for Active; 'I' for Inactive)
REMARK    1  A    between atoms: C_2  and  C_3 
REMARK    2  A    between atoms: C_3  and  O_6 
REMARK    3  A    between atoms: C_3  and  C_4 
REMARK    4  A    between atoms: C_7  and  O_6 
REMARK    5  A    between atoms: C_9  and  C_10 
REMARK    6  A    between atoms: N_15  and  C_14 
REMARK    7  A    between atoms: N_20  and  C_19 
REMARK       I    between atoms: C_22  and  N_20 
ROOT
ATOM      1  C   LIG d   1      -2.466  75.243 115.654  0.00  0.00     0.161 C 
ATOM      2  C   LIG d   1      -1.818  74.499 116.655  0.00  0.00     0.016 C 
ATOM      3  C   LIG d   1      -0.541  74.828 117.166  0.00  0.00     0.038 C 
ATOM      4  C   LIG d   1       0.113  76.018 116.815  0.00  0.00     0.028 C 
ATOM      5  C   LIG d   1      -0.274  76.539 115.436  0.00  0.00    -0.047 C 
ATOM      6  C   LIG d   1      -1.816  76.607 115.340  0.00  0.00     0.091 C 
ENDROOT
BRANCH   1   7
ATOM      7  O   LIG d   1      -3.855  75.417 115.997  0.00  0.00    -0.368 OA
BRANCH   7   8
ATOM      8  C   LIG d   1      -4.733  74.310 115.679  0.00  0.00     0.119 C 
BRANCH   8   9
ATOM      9  C   LIG d   1      -5.049  74.387 114.173  0.00  0.00     0.028 C 
ATOM     10  C   LIG d   1      -5.715  75.716 113.780  0.00  0.00     0.006 C 
ENDBRANCH   8   9
BRANCH   8  11
ATOM     11  C   LIG d   1      -6.085  74.451 116.384  0.00  0.00     0.028 C 
ATOM     12  C   LIG d   1      -6.639  73.108 116.886  0.00  0.00     0.006 C 
ENDBRANCH   8  11
ENDBRANCH   7   8
ENDBRANCH   1   7
BRANCH   6  13
ATOM     13  N   LIG d   1      -2.282  77.027 113.992  0.00  0.00    -0.311 N 
ATOM     14  C   LIG d   1      -2.493  78.297 113.653  0.00  0.00     0.210 C 
ATOM     15  C   LIG d   1      -2.991  78.509 112.220  0.00  0.00     0.109 C 
ATOM     16  O   LIG d   1      -2.283  79.271 114.392  0.00  0.00    -0.276 OA
ATOM     17  H   LIG d   1      -2.447  76.303 113.321  0.00  0.00     0.149 HD
ENDBRANCH   6  13
BRANCH   5  18
ATOM     18  N   LIG d   1       0.374  77.852 115.257  0.00  0.00     0.381 N 
ATOM     19  H   LIG d   1       0.412  78.081 114.283  0.00  0.00    -0.090 HD
ATOM     20  H   LIG d   1       1.315  77.800 115.605  0.00  0.00    -0.090 HD
ATOM     21  H   LIG d   1      -0.132  78.553 115.751  0.00  0.00    -0.090 HD
ENDBRANCH   5  18
BRANCH   3  22
ATOM     22  C   LIG d   1       0.111  73.941 118.008  0.00  0.00     0.382 C 
ATOM     23  O   LIG d   1       1.226  74.244 118.496  0.00  0.00    -0.241 OA
ATOM     24  O   LIG d   1      -0.381  72.822 118.251  0.00  0.00    -0.241 OA
ENDBRANCH   3  22
TORSDOF 7
ENDMDL
MODEL 2
REMARK VINA RESULT:      -5.2      2.697      4.969
REMARK  7 active torsions:
REMARK  status: ('A' for Active; 'I' for Inactive)
REMARK    1  A    between atoms: C_2  and  C_3 
REMARK    2  A    between atoms: C_3  and  O_6 
REMARK    3  A    between atoms: C_3  and  C_4 
REMARK    4  A    between atoms: C_7  and  O_6 
REMARK    5  A    between atoms: C_9  and  C_10 
REMARK    6  A    between atoms: N_15  and  C_14 
REMARK    7  A    between atoms: N_20  and  C_19 
REMARK       I    between atoms: C_22  and  N_20 
ROOT
ATOM      1  C   LIG d   1      -4.047  76.037 117.067  0.00  0.00     0.161 C 
ATOM      2  C   LIG d   1      -5.312  76.605 117.291  0.00  0.00     0.016 C 
ATOM      3  C   LIG d   1      -5.630  77.946 116.976  0.00  0.00     0.038 C 
ATOM      4  C   LIG d   1      -4.741  78.773 116.272  0.00  0.00     0.028 C 
ATOM      5  C   LIG d   1      -3.277  78.401 116.476  0.00  0.00    -0.047 C 
ATOM      6  C   LIG d   1      -3.099  76.891 116.199  0.00  0.00     0.091 C 
ENDROOT
BRANCH   1   7
ATOM      7  O   LIG d   1      -4.195  74.720 116.501  0.00  0.00    -0.368 OA
BRANCH   7   8
ATOM      8  C   LIG d   1      -5.401  74.489 115.733  0.00  0.00     0.119 C 
BRANCH   8   9
ATOM      9  C   LIG d   1      -5.813  73.019 115.949  0.00  0.00     0.028 C 
ATOM     10  C   LIG d   1      -6.817  72.855 117.102  0.00  0.00     0.006 C 
ENDBRANCH   8   9
BRANCH   8  11
ATOM     11  C   LIG d   1      -5.139  74.619 114.230  0.00  0.00     0.028 C 
ATOM     12  C   LIG d   1      -5.836  75.839 113.607  0.00  0.00     0.006 C 
ENDBRANCH   8  11
ENDBRANCH   7   8
ENDBRANCH   1   7
BRANCH   6  13
ATOM     13  N   LIG d   1      -1.711  76.426 116.458  0.00  0.00    -0.311 N 
ATOM     14  C   LIG d   1      -1.009  75.697 115.592  0.00  0.00     0.210 C 
ATOM     15  C   LIG d   1       0.395  75.307 116.065  0.00  0.00     0.109 C 
ATOM     16  O   LIG d   1      -1.403  75.364 114.465  0.00  0.00    -0.276 OA
ATOM     17  H   LIG d   1      -1.302  76.678 117.336  0.00  0.00     0.149 HD
ENDBRANCH   6  13
BRANCH   5  18
ATOM     18  N   LIG d   1      -2.471  79.252 115.580  0.00  0.00     0.381 N 
ATOM     19  H   LIG d   1      -2.986  79.447 114.745  0.00  0.00    -0.090 HD
ATOM     20  H   LIG d   1      -1.635  78.757 115.327  0.00  0.00    -0.090 HD
ATOM     21  H   LIG d   1      -2.235  80.104 116.040  0.00  0.00    -0.090 HD
ENDBRANCH   5  18
BRANCH   3  22
ATOM     22  C   LIG d   1      -6.834  78.485 117.401  0.00  0.00     0.382 C 
ATOM     23  O   LIG d   1      -7.659  77.769 118.018  0.00  0.00    -0.241 OA
ATOM     24  O   LIG d   1      -7.125  79.668 117.138  0.00  0.00    -0.241 OA
ENDBRANCH   3  22
TORSDOF 7
ENDMDL
MODEL 3
REMARK VINA RESULT:      -5.1      1.982      4.917
REMARK  7 active torsions:
REMARK  status: ('A' for Active; 'I' for Inactive)
REMARK    1  A    between atoms: C_2  and  C_3 
REMARK    2  A    between atoms: C_3  and  O_6 
REMARK    3  A    between atoms: C_3  and  C_4 
REMARK    4  A    between atoms: C_7  and  O_6 
REMARK    5  A    between atoms: C_9  and  C_10 
REMARK    6  A    between atoms: N_15  and  C_14 
REMARK    7  A    between atoms: N_20  and  C_19 
REMARK       I    between atoms: C_22  and  N_20 
ROOT
ATOM      1  C   LIG d   1      -3.335  75.477 115.719  0.00  0.00     0.161 C 
ATOM      2  C   LIG d   1      -4.073  74.417 116.271  0.00  0.00     0.016 C 
ATOM      3  C   LIG d   1      -5.333  74.006 115.776  0.00  0.00     0.038 C 
ATOM      4  C   LIG d   1      -5.874  74.534 114.595  0.00  0.00     0.028 C 
ATOM      5  C   LIG d   1      -5.402  75.952 114.293  0.00  0.00    -0.047 C 
ATOM      6  C   LIG d   1      -3.858  75.992 114.362  0.00  0.00     0.091 C 
ENDROOT
BRANCH   1   7
ATOM      7  O   LIG d   1      -1.947  75.103 115.613  0.00  0.00    -0.368 OA
BRANCH   7   8
ATOM      8  C   LIG d   1      -1.024  75.831 116.459  0.00  0.00     0.119 C 
BRANCH   8   9
ATOM      9  C   LIG d   1      -0.085  76.633 115.538  0.00  0.00     0.028 C 
ATOM     10  C   LIG d   1      -0.118  78.142 115.836  0.00  0.00     0.006 C 
ENDBRANCH   8   9
BRANCH   8  11
ATOM     11  C   LIG d   1      -0.112  74.878 117.238  0.00  0.00     0.028 C 
ATOM     12  C   LIG d   1      -0.889  73.952 118.187  0.00  0.00     0.006 C 
ENDBRANCH   8  11
ENDBRANCH   7   8
ENDBRANCH   1   7
BRANCH   6  13
ATOM     13  N   LIG d   1      -3.317  77.362 114.162  0.00  0.00    -0.311 N 
ATOM     14  C   LIG d   1      -2.906  77.823 112.982  0.00  0.00     0.210 C 
ATOM     15  C   LIG d   1      -2.365  79.256 113.001  0.00  0.00     0.109 C 
ATOM     16  O   LIG d   1      -2.967  77.192 111.916  0.00  0.00    -0.276 OA
ATOM     17  H   LIG d   1      -3.261  77.953 114.969  0.00  0.00     0.149 HD
ENDBRANCH   6  13
BRANCH   5  18
ATOM     18  N   LIG d   1      -5.931  76.326 112.968  0.00  0.00     0.381 N 
ATOM     19  H   LIG d   1      -6.897  76.072 112.906  0.00  0.00    -0.090 HD
ATOM     20  H   LIG d   1      -5.426  75.820 112.262  0.00  0.00    -0.090 HD
ATOM     21  H   LIG d   1      -5.828  77.306 112.824  0.00  0.00    -0.090 HD
ENDBRANCH   5  18
BRANCH   3  22
ATOM     22  C   LIG d   1      -6.083  73.084 116.490  0.00  0.00     0.382 C 
ATOM     23  O   LIG d   1      -6.046  71.869 116.177  0.00  0.00    -0.241 OA
ATOM     24  O   LIG d   1      -6.830  73.457 117.414  0.00  0.00    -0.241 OA
ENDBRANCH   3  22
TORSDOF 7
ENDMDL
MODEL 4
REMARK VINA RESULT:      -5.0     11.329     14.208
REMARK  7 active torsions:
REMARK  status: ('A' for Active; 'I' for Inactive)
REMARK    1  A    between atoms: C_2  and  C_3 
REMARK    2  A    between atoms: C_3  and  O_6 
REMARK    3  A    between atoms: C_3  and  C_4 
REMARK    4  A    between atoms: C_7  and  O_6 
REMARK    5  A    between atoms: C_9  and  C_10 
REMARK    6  A    between atoms: N_15  and  C_14 
REMARK    7  A    between atoms: N_20  and  C_19 
REMARK       I    between atoms: C_22  and  N_20 
ROOT
ATOM      1  C   LIG d   1       3.788  87.587 115.499  0.00  0.00     0.161 C 
ATOM      2  C   LIG d   1       2.826  87.260 114.529  0.00  0.00     0.016 C 
ATOM      3  C   LIG d   1       2.989  87.527 113.150  0.00  0.00     0.038 C 
ATOM      4  C   LIG d   1       4.199  88.006 112.626  0.00  0.00     0.028 C 
ATOM      5  C   LIG d   1       5.013  88.821 113.626  0.00  0.00    -0.047 C 
ATOM      6  C   LIG d   1       5.160  88.008 114.933  0.00  0.00     0.091 C 
ENDROOT
BRANCH   1   7
ATOM      7  O   LIG d   1       3.943  86.492 116.423  0.00  0.00    -0.368 OA
BRANCH   7   8
ATOM      8  C   LIG d   1       4.236  85.200 115.837  0.00  0.00     0.119 C 
BRANCH   8   9
ATOM      9  C   LIG d   1       3.067  84.257 116.185  0.00  0.00     0.028 C 
ATOM     10  C   LIG d   1       2.464  83.585 114.941  0.00  0.00     0.006 C 
ENDBRANCH   8   9
BRANCH   8  11
ATOM     11  C   LIG d   1       5.474  84.565 116.477  0.00  0.00     0.028 C 
ATOM     12  C   LIG d   1       6.135  85.474 117.525  0.00  0.00     0.006 C 
ENDBRANCH   8  11
ENDBRANCH   7   8
ENDBRANCH   1   7
BRANCH   6  13
ATOM     13  N   LIG d   1       5.871  88.767 115.995  0.00  0.00    -0.311 N 
ATOM     14  C   LIG d   1       5.422  89.914 116.502  0.00  0.00     0.210 C 
ATOM     15  C   LIG d   1       6.319  90.542 117.573  0.00  0.00     0.109 C 
ATOM     16  O   LIG d   1       4.350  90.454 116.189  0.00  0.00    -0.276 OA
ATOM     17  H   LIG d   1       6.734  88.385 116.329  0.00  0.00     0.149 HD
ENDBRANCH   6  13
BRANCH   5  18
ATOM     18  N   LIG d   1       6.307  89.139 112.994  0.00  0.00     0.381 N 
ATOM     19  H   LIG d   1       6.352  88.722 112.086  0.00  0.00    -0.090 HD
ATOM     20  H   LIG d   1       7.046  88.755 113.555  0.00  0.00    -0.090 HD
ATOM     21  H   LIG d   1       6.416  90.127 112.919  0.00  0.00    -0.090 HD
ENDBRANCH   5  18
BRANCH   3  22
ATOM     22  C   LIG d   1       1.920  87.352 112.285  0.00  0.00     0.382 C 
ATOM     23  O   LIG d   1       1.332  88.351 111.805  0.00  0.00    -0.241 OA
ATOM     24  O   LIG d   1       1.508  86.208 112.014  0.00  0.00    -0.241 OA
ENDBRANCH   3  22
TORSDOF 7
ENDMDL
MODEL 5
REMARK VINA RESULT:      -4.9     22.651     23.863
REMARK  7 active torsions:
REMARK  status: ('A' for Active; 'I' for Inactive)
REMARK    1  A    between atoms: C_2  and  C_3 
REMARK    2  A    between atoms: C_3  and  O_6 
REMARK    3  A    between atoms: C_3  and  C_4 
REMARK    4  A    between atoms: C_7  and  O_6 
REMARK    5  A    between atoms: C_9  and  C_10 
REMARK    6  A    between atoms: N_15  and  C_14 
REMARK    7  A    between atoms: N_20  and  C_19 
REMARK       I    between atoms: C_22  and  N_20 
ROOT
ATOM      1  C   LIG d   1     -23.410  83.706 115.982  0.00  0.00     0.161 C 
ATOM      2  C   LIG d   1     -22.969  85.012 115.713  0.00  0.00     0.016 C 
ATOM      3  C   LIG d   1     -22.962  85.579 114.418  0.00  0.00     0.038 C 
ATOM      4  C   LIG d   1     -23.541  84.927 113.319  0.00  0.00     0.028 C 
ATOM      5  C   LIG d   1     -23.539  83.407 113.448  0.00  0.00    -0.047 C 
ATOM      6  C   LIG d   1     -24.148  83.018 114.814  0.00  0.00     0.091 C 
ENDROOT
BRANCH   1   7
ATOM      7  O   LIG d   1     -24.232  83.701 117.166  0.00  0.00    -0.368 OA
BRANCH   7   8
ATOM      8  C   LIG d   1     -25.632  84.019 116.971  0.00  0.00     0.119 C 
BRANCH   8   9
ATOM      9  C   LIG d   1     -25.921  85.326 117.735  0.00  0.00     0.028 C 
ATOM     10  C   LIG d   1     -26.260  86.494 116.794  0.00  0.00     0.006 C 
ENDBRANCH   8   9
BRANCH   8  11
ATOM     11  C   LIG d   1     -26.538  82.965 117.614  0.00  0.00     0.028 C 
ATOM     12  C   LIG d   1     -25.749  81.873 118.355  0.00  0.00     0.006 C 
ENDBRANCH   8  11
ENDBRANCH   7   8
ENDBRANCH   1   7
BRANCH   6  13
ATOM     13  N   LIG d   1     -24.107  81.553 115.057  0.00  0.00    -0.311 N 
ATOM     14  C   LIG d   1     -25.143  80.744 114.837  0.00  0.00     0.210 C 
ATOM     15  C   LIG d   1     -24.895  79.270 115.172  0.00  0.00     0.109 C 
ATOM     16  O   LIG d   1     -26.233  81.103 114.367  0.00  0.00    -0.276 OA
ATOM     17  H   LIG d   1     -23.251  81.172 115.409  0.00  0.00     0.149 HD
ENDBRANCH   6  13
BRANCH   5  18
ATOM     18  N   LIG d   1     -24.293  82.862 112.303  0.00  0.00     0.381 N 
ATOM     19  H   LIG d   1     -24.613  81.939 112.516  0.00  0.00    -0.090 HD
ATOM     20  H   LIG d   1     -23.682  82.809 111.507  0.00  0.00    -0.090 HD
ATOM     21  H   LIG d   1     -25.070  83.451 112.095  0.00  0.00    -0.090 HD
ENDBRANCH   5  18
BRANCH   3  22
ATOM     22  C   LIG d   1     -22.335  86.798 114.205  0.00  0.00     0.382 C 
ATOM     23  O   LIG d   1     -21.357  86.871 113.423  0.00  0.00    -0.241 OA
ATOM     24  O   LIG d   1     -22.707  87.816 114.819  0.00  0.00    -0.241 OA
ENDBRANCH   3  22
TORSDOF 7
ENDMDL
MODEL 6
REMARK VINA RESULT:      -4.8      2.424      5.289
REMARK  7 active torsions:
REMARK  status: ('A' for Active; 'I' for Inactive)
REMARK    1  A    between atoms: C_2  and  C_3 
REMARK    2  A    between atoms: C_3  and  O_6 
REMARK    3  A    between atoms: C_3  and  C_4 
REMARK    4  A    between atoms: C_7  and  O_6 
REMARK    5  A    between atoms: C_9  and  C_10 
REMARK    6  A    between atoms: N_15  and  C_14 
REMARK    7  A    between atoms: N_20  and  C_19 
REMARK       I    between atoms: C_22  and  N_20 
ROOT
ATOM      1  C   LIG d   1      -3.564  75.149 116.040  0.00  0.00     0.161 C 
ATOM      2  C   LIG d   1      -4.413  74.031 115.969  0.00  0.00     0.016 C 
ATOM      3  C   LIG d   1      -5.806  74.096 116.204  0.00  0.00     0.038 C 
ATOM      4  C   LIG d   1      -6.473  75.318 116.377  0.00  0.00     0.028 C 
ATOM      5  C   LIG d   1      -5.586  76.415 116.956  0.00  0.00    -0.047 C 
ATOM      6  C   LIG d   1      -4.290  76.508 116.118  0.00  0.00     0.091 C 
ENDROOT
BRANCH   1   7
ATOM      7  O   LIG d   1      -2.645  75.135 114.930  0.00  0.00    -0.368 OA
BRANCH   7   8
ATOM      8  C   LIG d   1      -1.246  74.957 115.263  0.00  0.00     0.119 C 
BRANCH   8   9
ATOM      9  C   LIG d   1      -1.148  74.831 116.795  0.00  0.00     0.028 C 
ATOM     10  C   LIG d   1      -0.069  73.826 117.233  0.00  0.00     0.006 C 
ENDBRANCH   8   9
BRANCH   8  11
ATOM     11  C   LIG d   1      -0.426  76.199 114.904  0.00  0.00     0.028 C 
ATOM     12  C   LIG d   1      -1.088  77.056 113.814  0.00  0.00     0.006 C 
ENDBRANCH   8  11
ENDBRANCH   7   8
ENDBRANCH   1   7
BRANCH   6  13
ATOM     13  N   LIG d   1      -3.330  77.500 116.668  0.00  0.00    -0.311 N 
ATOM     14  C   LIG d   1      -3.220  78.746 116.210  0.00  0.00     0.210 C 
ATOM     15  C   LIG d   1      -2.153  79.598 116.904  0.00  0.00     0.109 C 
ATOM     16  O   LIG d   1      -3.928  79.236 115.318  0.00  0.00    -0.276 OA
ATOM     17  H   LIG d   1      -2.738  77.196 117.416  0.00  0.00     0.149 HD
ENDBRANCH   6  13
BRANCH   5  18
ATOM     18  N   LIG d   1      -6.367  77.667 116.955  0.00  0.00     0.381 N 
ATOM     19  H   LIG d   1      -6.259  78.134 117.833  0.00  0.00    -0.090 HD
ATOM     20  H   LIG d   1      -7.339  77.443 116.834  0.00  0.00    -0.090 HD
ATOM     21  H   LIG d   1      -6.060  78.259 116.215  0.00  0.00    -0.090 HD
ENDBRANCH   5  18
BRANCH   3  22
ATOM     22  C   LIG d   1      -6.541  72.925 116.306  0.00  0.00     0.382 C 
ATOM     23  O   LIG d   1      -7.660  72.934 116.873  0.00  0.00    -0.241 OA
ATOM     24  O   LIG d   1      -6.079  71.850 115.877  0.00  0.00    -0.241 OA
ENDBRANCH   3  22
TORSDOF 7
ENDMDL
MODEL 7
REMARK VINA RESULT:      -4.7      9.328     12.283
REMARK  7 active torsions:
REMARK  status: ('A' for Active; 'I' for Inactive)
REMARK    1  A    between atoms: C_2  and  C_3 
REMARK    2  A    between atoms: C_3  and  O_6 
REMARK    3  A    between atoms: C_3  and  C_4 
REMARK    4  A    between atoms: C_7  and  O_6 
REMARK    5  A    between atoms: C_9  and  C_10 
REMARK    6  A    between atoms: N_15  and  C_14 
REMARK    7  A    between atoms: N_20  and  C_19 
REMARK       I    between atoms: C_22  and  N_20 
ROOT
ATOM      1  C   LIG d   1       2.793  85.873 113.909  0.00  0.00     0.161 C 
ATOM      2  C   LIG d   1       3.319  87.151 113.657  0.00  0.00     0.016 C 
ATOM      3  C   LIG d   1       4.216  87.809 114.529  0.00  0.00     0.038 C 
ATOM      4  C   LIG d   1       4.771  87.166 115.646  0.00  0.00     0.028 C 
ATOM      5  C   LIG d   1       3.884  86.063 116.212  0.00  0.00    -0.047 C 
ATOM      6  C   LIG d   1       3.473  85.111 115.066  0.00  0.00     0.091 C 
ENDROOT
BRANCH   1   7
ATOM      7  O   LIG d   1       2.826  85.085 112.702  0.00  0.00    -0.368 OA
BRANCH   7   8
ATOM      8  C   LIG d   1       1.541  84.775 112.109  0.00  0.00     0.119 C 
BRANCH   8   9
ATOM      9  C   LIG d   1       0.464  85.522 112.920  0.00  0.00     0.028 C 
ATOM     10  C   LIG d   1      -0.540  86.261 112.019  0.00  0.00     0.006 C 
ENDBRANCH   8   9
BRANCH   8  11
ATOM     11  C   LIG d   1       1.202  83.288 112.260  0.00  0.00     0.028 C 
ATOM     12  C   LIG d   1       2.448  82.389 112.239  0.00  0.00     0.006 C 
ENDBRANCH   8  11
ENDBRANCH   7   8
ENDBRANCH   1   7
BRANCH   6  13
ATOM     13  N   LIG d   1       2.535  84.050 115.518  0.00  0.00    -0.311 N 
ATOM     14  C   LIG d   1       2.930  82.840 115.909  0.00  0.00     0.210 C 
ATOM     15  C   LIG d   1       1.799  81.891 116.317  0.00  0.00     0.109 C 
ATOM     16  O   LIG d   1       4.112  82.473 115.987  0.00  0.00    -0.276 OA
ATOM     17  H   LIG d   1       1.559  84.273 115.516  0.00  0.00     0.149 HD
ENDBRANCH   6  13
BRANCH   5  18
ATOM     18  N   LIG d   1       4.641  85.386 117.282  0.00  0.00     0.381 N 
ATOM     19  H   LIG d   1       4.008  84.960 117.928  0.00  0.00    -0.090 HD
ATOM     20  H   LIG d   1       5.185  86.071 117.778  0.00  0.00    -0.090 HD
ATOM     21  H   LIG d   1       5.242  84.695 116.890  0.00  0.00    -0.090 HD
ENDBRANCH   5  18
BRANCH   3  22
ATOM     22  C   LIG d   1       4.537  89.140 114.309  0.00  0.00     0.382 C 
ATOM     23  O   LIG d   1       4.813  89.887 115.279  0.00  0.00    -0.241 OA
ATOM     24  O   LIG d   1       4.511  89.614 113.158  0.00  0.00    -0.241 OA
ENDBRANCH   3  22
TORSDOF 7
ENDMDL
MODEL 8
REMARK VINA RESULT:      -4.5      9.475     12.337
REMARK  7 active torsions:
REMARK  status: ('A' for Active; 'I' for Inactive)
REMARK    1  A    between atoms: C_2  and  C_3 
REMARK    2  A    between atoms: C_3  and  O_6 
REMARK    3  A    between atoms: C_3  and  C_4 
REMARK    4  A    between atoms: C_7  and  O_6 
REMARK    5  A    between atoms: C_9  and  C_10 
REMARK    6  A    between atoms: N_15  and  C_14 
REMARK    7  A    between atoms: N_20  and  C_19 
REMARK       I    between atoms: C_22  and  N_20 
ROOT
ATOM      1  C   LIG d   1       3.839  85.579 115.140  0.00  0.00     0.161 C 
ATOM      2  C   LIG d   1       4.150  86.947 115.217  0.00  0.00     0.016 C 
ATOM      3  C   LIG d   1       3.743  87.893 114.249  0.00  0.00     0.038 C 
ATOM      4  C   LIG d   1       2.862  87.559 113.210  0.00  0.00     0.028 C 
ATOM      5  C   LIG d   1       2.931  86.090 112.807  0.00  0.00    -0.047 C 
ATOM      6  C   LIG d   1       2.786  85.215 114.073  0.00  0.00     0.091 C 
ENDROOT
BRANCH   1   7
ATOM      7  O   LIG d   1       3.427  85.098 116.435  0.00  0.00    -0.368 OA
BRANCH   7   8
ATOM      8  C   LIG d   1       2.005  85.146 116.710  0.00  0.00     0.119 C 
BRANCH   8   9
ATOM      9  C   LIG d   1       1.789  86.149 117.859  0.00  0.00     0.028 C 
ATOM     10  C   LIG d   1       1.139  87.458 117.380  0.00  0.00     0.006 C 
ENDBRANCH   8   9
BRANCH   8  11
ATOM     11  C   LIG d   1       1.496  83.803 117.243  0.00  0.00     0.028 C 
ATOM     12  C   LIG d   1       2.572  82.707 117.222  0.00  0.00     0.006 C 
ENDBRANCH   8  11
ENDBRANCH   7   8
ENDBRANCH   1   7
BRANCH   6  13
ATOM     13  N   LIG d   1       2.926  83.765 113.779  0.00  0.00    -0.311 N 
ATOM     14  C   LIG d   1       1.902  82.982 113.444  0.00  0.00     0.210 C 
ATOM     15  C   LIG d   1       2.263  81.513 113.202  0.00  0.00     0.109 C 
ATOM     16  O   LIG d   1       0.734  83.372 113.291  0.00  0.00    -0.276 OA
ATOM     17  H   LIG d   1       3.845  83.372 113.849  0.00  0.00     0.149 HD
ENDBRANCH   6  13
BRANCH   5  18
ATOM     18  N   LIG d   1       1.868  85.850 111.813  0.00  0.00     0.381 N 
ATOM     19  H   LIG d   1       1.135  85.307 112.225  0.00  0.00    -0.090 HD
ATOM     20  H   LIG d   1       2.253  85.329 111.045  0.00  0.00    -0.090 HD
ATOM     21  H   LIG d   1       1.504  86.718 111.486  0.00  0.00    -0.090 HD
ENDBRANCH   5  18
BRANCH   3  22
ATOM     22  C   LIG d   1       4.250  89.183 114.293  0.00  0.00     0.382 C 
ATOM     23  O   LIG d   1       4.207  89.838 115.362  0.00  0.00    -0.241 OA
ATOM     24  O   LIG d   1       4.710  89.716 113.266  0.00  0.00    -0.241 OA
ENDBRANCH   3  22
TORSDOF 7
ENDMDL
MODEL 9
REMARK VINA RESULT:      -4.4     22.662     24.380
REMARK  7 active torsions:
REMARK  status: ('A' for Active; 'I' for Inactive)
REMARK    1  A    between atoms: C_2  and  C_3 
REMARK    2  A    between atoms: C_3  and  O_6 
REMARK    3  A    between atoms: C_3  and  C_4 
REMARK    4  A    between atoms: C_7  and  O_6 
REMARK    5  A    between atoms: C_9  and  C_10 
REMARK    6  A    between atoms: N_15  and  C_14 
REMARK    7  A    between atoms: N_20  and  C_19 
REMARK       I    between atoms: C_22  and  N_20 
ROOT
ATOM      1  C   LIG d   1     -24.125  83.649 113.823  0.00  0.00     0.161 C 
ATOM      2  C   LIG d   1     -23.132  84.628 113.998  0.00  0.00     0.016 C 
ATOM      3  C   LIG d   1     -23.416  86.002 114.169  0.00  0.00     0.038 C 
ATOM      4  C   LIG d   1     -24.728  86.474 114.328  0.00  0.00     0.028 C 
ATOM      5  C   LIG d   1     -25.775  85.593 113.655  0.00  0.00    -0.047 C 
ATOM      6  C   LIG d   1     -25.564  84.129 114.106  0.00  0.00     0.091 C 
ENDROOT
BRANCH   1   7
ATOM      7  O   LIG d   1     -23.816  82.492 114.626  0.00  0.00    -0.368 OA
BRANCH   7   8
ATOM      8  C   LIG d   1     -24.381  82.472 115.960  0.00  0.00     0.119 C 
BRANCH   8   9
ATOM      9  C   LIG d   1     -23.220  82.654 116.956  0.00  0.00     0.028 C 
ATOM     10  C   LIG d   1     -23.234  84.037 117.628  0.00  0.00     0.006 C 
ENDBRANCH   8   9
BRANCH   8  11
ATOM     11  C   LIG d   1     -24.987  81.105 116.289  0.00  0.00     0.028 C 
ATOM     12  C   LIG d   1     -24.853  80.100 115.133  0.00  0.00     0.006 C 
ENDBRANCH   8  11
ENDBRANCH   7   8
ENDBRANCH   1   7
BRANCH   6  13
ATOM     13  N   LIG d   1     -26.493  83.188 113.428  0.00  0.00    -0.311 N 
ATOM     14  C   LIG d   1     -27.630  82.761 113.974  0.00  0.00     0.210 C 
ATOM     15  C   LIG d   1     -28.431  81.778 113.115  0.00  0.00     0.109 C 
ATOM     16  O   LIG d   1     -28.068  83.127 115.075  0.00  0.00    -0.276 OA
ATOM     17  H   LIG d   1     -26.231  82.864 112.518  0.00  0.00     0.149 HD
ENDBRANCH   6  13
BRANCH   5  18
ATOM     18  N   LIG d   1     -27.103  86.123 114.016  0.00  0.00     0.381 N 
ATOM     19  H   LIG d   1     -27.808  85.672 113.469  0.00  0.00    -0.090 HD
ATOM     20  H   LIG d   1     -27.126  87.107 113.812  0.00  0.00    -0.090 HD
ATOM     21  H   LIG d   1     -27.278  85.973 114.985  0.00  0.00    -0.090 HD
ENDBRANCH   5  18
BRANCH   3  22
ATOM     22  C   LIG d   1     -22.383  86.926 114.141  0.00  0.00     0.382 C 
ATOM     23  O   LIG d   1     -21.397  86.742 113.387  0.00  0.00    -0.241 OA
ATOM     24  O   LIG d   1     -22.402  87.919 114.893  0.00  0.00    -0.241 OA
ENDBRANCH   3  22
TORSDOF 7
ENDMDL
