MODEL 1
REMARK VINA RESULT:      -4.8      0.000      0.000
REMARK  7 active torsions:
REMARK  status: ('A' for Active; 'I' for Inactive)
REMARK    1  A    between atoms: C_2  and  C_3 
REMARK    2  A    between atoms: C_3  and  O_6 
REMARK    3  A    between atoms: C_3  and  C_4 
REMARK    4  A    between atoms: C_7  and  O_6 
REMARK    5  A    between atoms: C_9  and  C_10 
REMARK    6  A    between atoms: N_15  and  C_14 
REMARK    7  A    between atoms: N_20  and  C_19 
REMARK       I    between atoms: C_22  and  N_20 
ROOT
ATOM      1  C   LIG d   1      11.325  78.369 115.896  0.00  0.00     0.161 C 
ATOM      2  C   LIG d   1      11.511  79.665 115.387  0.00  0.00     0.016 C 
ATOM      3  C   LIG d   1      12.139  79.932 114.148  0.00  0.00     0.038 C 
ATOM      4  C   LIG d   1      12.490  78.906 113.259  0.00  0.00     0.028 C 
ATOM      5  C   LIG d   1      12.780  77.578 113.950  0.00  0.00    -0.047 C 
ATOM      6  C   LIG d   1      11.602  77.233 114.889  0.00  0.00     0.091 C 
ENDROOT
BRANCH   1   7
ATOM      7  O   LIG d   1       9.996  78.244 116.440  0.00  0.00    -0.368 OA
BRANCH   7   8
ATOM      8  C   LIG d   1       9.044  79.260 116.038  0.00  0.00     0.119 C 
BRANCH   8   9
ATOM      9  C   LIG d   1       8.381  79.805 117.317  0.00  0.00     0.028 C 
ATOM     10  C   LIG d   1       8.925  81.187 117.718  0.00  0.00     0.006 C 
ENDBRANCH   8   9
BRANCH   8  11
ATOM     11  C   LIG d   1       7.903  78.658 115.213  0.00  0.00     0.028 C 
ATOM     12  C   LIG d   1       6.611  78.479 116.026  0.00  0.00     0.006 C 
ENDBRANCH   8  11
ENDBRANCH   7   8
ENDBRANCH   1   7
BRANCH   6  13
ATOM     13  N   LIG d   1      11.843  75.991 115.668  0.00  0.00    -0.311 N 
ATOM     14  C   LIG d   1      11.400  74.792 115.292  0.00  0.00     0.210 C 
ATOM     15  C   LIG d   1      11.742  73.647 116.250  0.00  0.00     0.109 C 
ATOM     16  O   LIG d   1      10.785  74.564 114.240  0.00  0.00    -0.276 OA
ATOM     17  H   LIG d   1      12.360  76.080 116.521  0.00  0.00     0.149 HD
ENDBRANCH   6  13
BRANCH   5  18
ATOM     18  N   LIG d   1      12.997  76.566 112.899  0.00  0.00     0.381 N 
ATOM     19  H   LIG d   1      12.855  75.651 113.276  0.00  0.00    -0.090 HD
ATOM     20  H   LIG d   1      13.947  76.630 112.577  0.00  0.00    -0.090 HD
ATOM     21  H   LIG d   1      12.371  76.723 112.141  0.00  0.00    -0.090 HD
ENDBRANCH   5  18
BRANCH   3  22
ATOM     22  C   LIG d   1      12.457  81.238 113.807  0.00  0.00     0.382 C 
ATOM     23  O   LIG d   1      13.023  81.984 114.642  0.00  0.00    -0.241 OA
ATOM     24  O   LIG d   1      12.147  81.692 112.689  0.00  0.00    -0.241 OA
ENDBRANCH   3  22
TORSDOF 7
ENDMDL
MODEL 2
REMARK VINA RESULT:      -4.7     34.434     36.746
REMARK  7 active torsions:
REMARK  status: ('A' for Active; 'I' for Inactive)
REMARK    1  A    between atoms: C_2  and  C_3 
REMARK    2  A    between atoms: C_3  and  O_6 
REMARK    3  A    between atoms: C_3  and  C_4 
REMARK    4  A    between atoms: C_7  and  O_6 
REMARK    5  A    between atoms: C_9  and  C_10 
REMARK    6  A    between atoms: N_15  and  C_14 
REMARK    7  A    between atoms: N_20  and  C_19 
REMARK       I    between atoms: C_22  and  N_20 
ROOT
ATOM      1  C   LIG d   1     -25.221  84.805 114.813  0.00  0.00     0.161 C 
ATOM      2  C   LIG d   1     -24.377  85.914 114.634  0.00  0.00     0.016 C 
ATOM      3  C   LIG d   1     -23.294  85.928 113.725  0.00  0.00     0.038 C 
ATOM      4  C   LIG d   1     -23.072  84.881 112.819  0.00  0.00     0.028 C 
ATOM      5  C   LIG d   1     -23.591  83.534 113.311  0.00  0.00    -0.047 C 
ATOM      6  C   LIG d   1     -25.063  83.694 113.754  0.00  0.00     0.091 C 
ENDROOT
BRANCH   1   7
ATOM      7  O   LIG d   1     -26.593  85.242 114.880  0.00  0.00    -0.368 OA
BRANCH   7   8
ATOM      8  C   LIG d   1     -26.870  86.560 114.347  0.00  0.00     0.119 C 
BRANCH   8   9
ATOM      9  C   LIG d   1     -27.846  87.256 115.315  0.00  0.00     0.028 C 
ATOM     10  C   LIG d   1     -27.395  88.680 115.679  0.00  0.00     0.006 C 
ENDBRANCH   8   9
BRANCH   8  11
ATOM     11  C   LIG d   1     -27.615  86.475 113.011  0.00  0.00     0.028 C 
ATOM     12  C   LIG d   1     -26.714  86.784 111.805  0.00  0.00     0.006 C 
ENDBRANCH   8  11
ENDBRANCH   7   8
ENDBRANCH   1   7
BRANCH   6  13
ATOM     13  N   LIG d   1     -25.622  82.443 114.328  0.00  0.00    -0.311 N 
ATOM     14  C   LIG d   1     -26.257  81.523 113.603  0.00  0.00     0.210 C 
ATOM     15  C   LIG d   1     -26.772  80.317 114.396  0.00  0.00     0.109 C 
ATOM     16  O   LIG d   1     -26.413  81.575 112.374  0.00  0.00    -0.276 OA
ATOM     17  H   LIG d   1     -25.512  82.304 115.313  0.00  0.00     0.149 HD
ENDBRANCH   6  13
BRANCH   5  18
ATOM     18  N   LIG d   1     -23.419  82.562 112.215  0.00  0.00     0.381 N 
ATOM     19  H   LIG d   1     -22.480  82.216 112.213  0.00  0.00    -0.090 HD
ATOM     20  H   LIG d   1     -23.586  83.027 111.340  0.00  0.00    -0.090 HD
ATOM     21  H   LIG d   1     -24.059  81.807 112.325  0.00  0.00    -0.090 HD
ENDBRANCH   5  18
BRANCH   3  22
ATOM     22  C   LIG d   1     -22.395  86.983 113.745  0.00  0.00     0.382 C 
ATOM     23  O   LIG d   1     -22.595  87.963 114.503  0.00  0.00    -0.241 OA
ATOM     24  O   LIG d   1     -21.409  86.988 112.983  0.00  0.00    -0.241 OA
ENDBRANCH   3  22
TORSDOF 7
ENDMDL
MODEL 3
REMARK VINA RESULT:      -4.6      9.140     11.076
REMARK  7 active torsions:
REMARK  status: ('A' for Active; 'I' for Inactive)
REMARK    1  A    between atoms: C_2  and  C_3 
REMARK    2  A    between atoms: C_3  and  O_6 
REMARK    3  A    between atoms: C_3  and  C_4 
REMARK    4  A    between atoms: C_7  and  O_6 
REMARK    5  A    between atoms: C_9  and  C_10 
REMARK    6  A    between atoms: N_15  and  C_14 
REMARK    7  A    between atoms: N_20  and  C_19 
REMARK       I    between atoms: C_22  and  N_20 
ROOT
ATOM      1  C   LIG d   1       3.040  85.989 113.837  0.00  0.00     0.161 C 
ATOM      2  C   LIG d   1       3.419  87.320 113.598  0.00  0.00     0.016 C 
ATOM      3  C   LIG d   1       4.309  88.038 114.430  0.00  0.00     0.038 C 
ATOM      4  C   LIG d   1       5.002  87.419 115.482  0.00  0.00     0.028 C 
ATOM      5  C   LIG d   1       4.268  86.217 116.066  0.00  0.00    -0.047 C 
ATOM      6  C   LIG d   1       3.871  85.264 114.916  0.00  0.00     0.091 C 
ENDROOT
BRANCH   1   7
ATOM      7  O   LIG d   1       3.062  85.245 112.603  0.00  0.00    -0.368 OA
BRANCH   7   8
ATOM      8  C   LIG d   1       1.775  84.815 112.095  0.00  0.00     0.119 C 
BRANCH   8   9
ATOM      9  C   LIG d   1       0.697  85.328 113.069  0.00  0.00     0.028 C 
ATOM     10  C   LIG d   1      -0.625  85.663 112.359  0.00  0.00     0.006 C 
ENDBRANCH   8   9
BRANCH   8  11
ATOM     11  C   LIG d   1       1.649  83.288 112.119  0.00  0.00     0.028 C 
ATOM     12  C   LIG d   1       3.010  82.577 112.048  0.00  0.00     0.006 C 
ENDBRANCH   8  11
ENDBRANCH   7   8
ENDBRANCH   1   7
BRANCH   6  13
ATOM     13  N   LIG d   1       3.075  84.102 115.392  0.00  0.00    -0.311 N 
ATOM     14  C   LIG d   1       3.607  82.913 115.668  0.00  0.00     0.210 C 
ATOM     15  C   LIG d   1       2.606  81.847 116.125  0.00  0.00     0.109 C 
ATOM     16  O   LIG d   1       4.817  82.648 115.608  0.00  0.00    -0.276 OA
ATOM     17  H   LIG d   1       2.089  84.238 115.498  0.00  0.00     0.149 HD
ENDBRANCH   6  13
BRANCH   5  18
ATOM     18  N   LIG d   1       5.162  85.587 117.056  0.00  0.00     0.381 N 
ATOM     19  H   LIG d   1       5.674  84.843 116.626  0.00  0.00    -0.090 HD
ATOM     20  H   LIG d   1       4.605  85.200 117.797  0.00  0.00    -0.090 HD
ATOM     21  H   LIG d   1       5.793  86.264 117.425  0.00  0.00    -0.090 HD
ENDBRANCH   5  18
BRANCH   3  22
ATOM     22  C   LIG d   1       4.483  89.400 114.238  0.00  0.00     0.382 C 
ATOM     23  O   LIG d   1       4.718  89.846 113.089  0.00  0.00    -0.241 OA
ATOM     24  O   LIG d   1       4.451  90.183 115.206  0.00  0.00    -0.241 OA
ENDBRANCH   3  22
TORSDOF 7
ENDMDL
MODEL 4
REMARK VINA RESULT:      -4.5      2.443      4.899
REMARK  7 active torsions:
REMARK  status: ('A' for Active; 'I' for Inactive)
REMARK    1  A    between atoms: C_2  and  C_3 
REMARK    2  A    between atoms: C_3  and  O_6 
REMARK    3  A    between atoms: C_3  and  C_4 
REMARK    4  A    between atoms: C_7  and  O_6 
REMARK    5  A    between atoms: C_9  and  C_10 
REMARK    6  A    between atoms: N_15  and  C_14 
REMARK    7  A    between atoms: N_20  and  C_19 
REMARK       I    between atoms: C_22  and  N_20 
ROOT
ATOM      1  C   LIG d   1      13.185  77.417 113.084  0.00  0.00     0.161 C 
ATOM      2  C   LIG d   1      13.354  78.791 112.847  0.00  0.00     0.016 C 
ATOM      3  C   LIG d   1      12.573  79.790 113.473  0.00  0.00     0.038 C 
ATOM      4  C   LIG d   1      11.666  79.488 114.499  0.00  0.00     0.028 C 
ATOM      5  C   LIG d   1      11.104  78.073 114.413  0.00  0.00    -0.047 C 
ATOM      6  C   LIG d   1      12.276  77.074 114.283  0.00  0.00     0.091 C 
ENDROOT
BRANCH   1   7
ATOM      7  O   LIG d   1      14.472  76.785 113.234  0.00  0.00    -0.368 OA
BRANCH   7   8
ATOM      8  C   LIG d   1      15.115  76.948 114.522  0.00  0.00     0.119 C 
BRANCH   8   9
ATOM      9  C   LIG d   1      16.489  77.602 114.274  0.00  0.00     0.028 C 
ATOM     10  C   LIG d   1      16.908  77.543 112.796  0.00  0.00     0.006 C 
ENDBRANCH   8   9
BRANCH   8  11
ATOM     11  C   LIG d   1      15.421  75.593 115.167  0.00  0.00     0.028 C 
ATOM     12  C   LIG d   1      15.315  74.424 114.176  0.00  0.00     0.006 C 
ENDBRANCH   8  11
ENDBRANCH   7   8
ENDBRANCH   1   7
BRANCH   6  13
ATOM     13  N   LIG d   1      11.811  75.674 114.109  0.00  0.00    -0.311 N 
ATOM     14  C   LIG d   1      11.713  74.803 115.112  0.00  0.00     0.210 C 
ATOM     15  C   LIG d   1      11.231  73.406 114.711  0.00  0.00     0.109 C 
ATOM     16  O   LIG d   1      11.949  75.066 116.301  0.00  0.00    -0.276 OA
ATOM     17  H   LIG d   1      11.569  75.385 113.181  0.00  0.00     0.149 HD
ENDBRANCH   6  13
BRANCH   5  18
ATOM     18  N   LIG d   1      10.282  77.846 115.617  0.00  0.00     0.381 N 
ATOM     19  H   LIG d   1       9.382  77.500 115.352  0.00  0.00    -0.090 HD
ATOM     20  H   LIG d   1      10.155  78.722 116.094  0.00  0.00    -0.090 HD
ATOM     21  H   LIG d   1      10.733  77.194 116.220  0.00  0.00    -0.090 HD
ENDBRANCH   5  18
BRANCH   3  22
ATOM     22  C   LIG d   1      12.668  81.106 113.044  0.00  0.00     0.382 C 
ATOM     23  O   LIG d   1      13.559  81.855 113.513  0.00  0.00    -0.241 OA
ATOM     24  O   LIG d   1      11.847  81.565 112.228  0.00  0.00    -0.241 OA
ENDBRANCH   3  22
TORSDOF 7
ENDMDL
MODEL 5
REMARK VINA RESULT:      -4.3     34.039     36.642
REMARK  7 active torsions:
REMARK  status: ('A' for Active; 'I' for Inactive)
REMARK    1  A    between atoms: C_2  and  C_3 
REMARK    2  A    between atoms: C_3  and  O_6 
REMARK    3  A    between atoms: C_3  and  C_4 
REMARK    4  A    between atoms: C_7  and  O_6 
REMARK    5  A    between atoms: C_9  and  C_10 
REMARK    6  A    between atoms: N_15  and  C_14 
REMARK    7  A    between atoms: N_20  and  C_19 
REMARK       I    between atoms: C_22  and  N_20 
ROOT
ATOM      1  C   LIG d   1     -25.292  84.750 115.094  0.00  0.00     0.161 C 
ATOM      2  C   LIG d   1     -24.103  84.752 114.345  0.00  0.00     0.016 C 
ATOM      3  C   LIG d   1     -23.460  85.934 113.909  0.00  0.00     0.038 C 
ATOM      4  C   LIG d   1     -23.884  87.205 114.325  0.00  0.00     0.028 C 
ATOM      5  C   LIG d   1     -25.369  87.268 114.663  0.00  0.00    -0.047 C 
ATOM      6  C   LIG d   1     -25.708  86.128 115.651  0.00  0.00     0.091 C 
ENDROOT
BRANCH   1   7
ATOM      7  O   LIG d   1     -25.195  83.787 116.162  0.00  0.00    -0.368 OA
BRANCH   7   8
ATOM      8  C   LIG d   1     -23.996  82.974 116.180  0.00  0.00     0.119 C 
BRANCH   8   9
ATOM      9  C   LIG d   1     -24.434  81.502 116.048  0.00  0.00     0.028 C 
ATOM     10  C   LIG d   1     -24.334  80.987 114.603  0.00  0.00     0.006 C 
ENDBRANCH   8   9
BRANCH   8  11
ATOM     11  C   LIG d   1     -23.281  83.065 117.531  0.00  0.00     0.028 C 
ATOM     12  C   LIG d   1     -22.037  82.166 117.609  0.00  0.00     0.006 C 
ENDBRANCH   8  11
ENDBRANCH   7   8
ENDBRANCH   1   7
BRANCH   6  13
ATOM     13  N   LIG d   1     -27.158  86.066 115.968  0.00  0.00    -0.311 N 
ATOM     14  C   LIG d   1     -27.706  86.674 117.019  0.00  0.00     0.210 C 
ATOM     15  C   LIG d   1     -29.215  86.465 117.174  0.00  0.00     0.109 C 
ATOM     16  O   LIG d   1     -27.090  87.394 117.819  0.00  0.00    -0.276 OA
ATOM     17  H   LIG d   1     -27.737  85.528 115.353  0.00  0.00     0.149 HD
ENDBRANCH   6  13
BRANCH   5  18
ATOM     18  N   LIG d   1     -25.645  88.609 115.211  0.00  0.00     0.381 N 
ATOM     19  H   LIG d   1     -26.633  88.742 115.300  0.00  0.00    -0.090 HD
ATOM     20  H   LIG d   1     -25.290  89.300 114.574  0.00  0.00    -0.090 HD
ATOM     21  H   LIG d   1     -25.208  88.711 116.100  0.00  0.00    -0.090 HD
ENDBRANCH   5  18
BRANCH   3  22
ATOM     22  C   LIG d   1     -22.403  85.851 113.015  0.00  0.00     0.382 C 
ATOM     23  O   LIG d   1     -21.564  86.781 112.949  0.00  0.00    -0.241 OA
ATOM     24  O   LIG d   1     -22.304  84.878 112.243  0.00  0.00    -0.241 OA
ENDBRANCH   3  22
TORSDOF 7
ENDMDL
MODEL 6
REMARK VINA RESULT:      -4.2     30.448     33.247
REMARK  7 active torsions:
REMARK  status: ('A' for Active; 'I' for Inactive)
REMARK    1  A    between atoms: C_2  and  C_3 
REMARK    2  A    between atoms: C_3  and  O_6 
REMARK    3  A    between atoms: C_3  and  C_4 
REMARK    4  A    between atoms: C_7  and  O_6 
REMARK    5  A    between atoms: C_9  and  C_10 
REMARK    6  A    between atoms: N_15  and  C_14 
REMARK    7  A    between atoms: N_20  and  C_19 
REMARK       I    between atoms: C_22  and  N_20 
ROOT
ATOM      1  C   LIG d   1     -18.104  64.745 114.030  0.00  0.00     0.161 C 
ATOM      2  C   LIG d   1     -17.028  64.497 114.898  0.00  0.00     0.016 C 
ATOM      3  C   LIG d   1     -17.010  64.904 116.252  0.00  0.00     0.038 C 
ATOM      4  C   LIG d   1     -18.138  65.458 116.875  0.00  0.00     0.028 C 
ATOM      5  C   LIG d   1     -19.067  66.186 115.908  0.00  0.00    -0.047 C 
ATOM      6  C   LIG d   1     -19.388  65.250 114.721  0.00  0.00     0.091 C 
ENDROOT
BRANCH   1   7
ATOM      7  O   LIG d   1     -18.385  63.566 113.250  0.00  0.00    -0.368 OA
BRANCH   7   8
ATOM      8  C   LIG d   1     -19.093  62.503 113.934  0.00  0.00     0.119 C 
BRANCH   8   9
ATOM      9  C   LIG d   1     -18.167  61.272 113.959  0.00  0.00     0.028 C 
ATOM     10  C   LIG d   1     -17.723  60.900 115.384  0.00  0.00     0.006 C 
ENDBRANCH   8   9
BRANCH   8  11
ATOM     11  C   LIG d   1     -20.332  62.063 113.148  0.00  0.00     0.028 C 
ATOM     12  C   LIG d   1     -20.477  62.796 111.805  0.00  0.00     0.006 C 
ENDBRANCH   8  11
ENDBRANCH   7   8
ENDBRANCH   1   7
BRANCH   6  13
ATOM     13  N   LIG d   1     -20.224  65.913 113.687  0.00  0.00    -0.311 N 
ATOM     14  C   LIG d   1     -21.551  65.806 113.637  0.00  0.00     0.210 C 
ATOM     15  C   LIG d   1     -22.217  66.554 112.477  0.00  0.00     0.109 C 
ATOM     16  O   LIG d   1     -22.242  65.189 114.461  0.00  0.00    -0.276 OA
ATOM     17  H   LIG d   1     -19.747  66.460 112.996  0.00  0.00     0.149 HD
ENDBRANCH   6  13
BRANCH   5  18
ATOM     18  N   LIG d   1     -20.266  66.593 116.665  0.00  0.00     0.381 N 
ATOM     19  H   LIG d   1     -20.352  67.590 116.653  0.00  0.00    -0.090 HD
ATOM     20  H   LIG d   1     -20.164  66.297 117.620  0.00  0.00    -0.090 HD
ATOM     21  H   LIG d   1     -21.078  66.178 116.265  0.00  0.00    -0.090 HD
ENDBRANCH   5  18
BRANCH   3  22
ATOM     22  C   LIG d   1     -15.839  64.794 116.987  0.00  0.00     0.382 C 
ATOM     23  O   LIG d   1     -15.480  63.677 117.431  0.00  0.00    -0.241 OA
ATOM     24  O   LIG d   1     -15.160  65.805 117.249  0.00  0.00    -0.241 OA
ENDBRANCH   3  22
TORSDOF 7
ENDMDL
MODEL 7
REMARK VINA RESULT:      -4.1      2.483      4.703
REMARK  7 active torsions:
REMARK  status: ('A' for Active; 'I' for Inactive)
REMARK    1  A    between atoms: C_2  and  C_3 
REMARK    2  A    between atoms: C_3  and  O_6 
REMARK    3  A    between atoms: C_3  and  C_4 
REMARK    4  A    between atoms: C_7  and  O_6 
REMARK    5  A    between atoms: C_9  and  C_10 
REMARK    6  A    between atoms: N_15  and  C_14 
REMARK    7  A    between atoms: N_20  and  C_19 
REMARK       I    between atoms: C_22  and  N_20 
ROOT
ATOM      1  C   LIG d   1      12.018  79.407 115.122  0.00  0.00     0.161 C 
ATOM      2  C   LIG d   1      10.634  79.539 115.323  0.00  0.00     0.016 C 
ATOM      3  C   LIG d   1       9.711  78.494 115.090  0.00  0.00     0.038 C 
ATOM      4  C   LIG d   1      10.128  77.191 114.782  0.00  0.00     0.028 C 
ATOM      5  C   LIG d   1      11.479  77.138 114.077  0.00  0.00    -0.047 C 
ATOM      6  C   LIG d   1      12.503  77.960 114.892  0.00  0.00     0.091 C 
ENDROOT
BRANCH   1   7
ATOM      7  O   LIG d   1      12.731  80.006 116.221  0.00  0.00    -0.368 OA
BRANCH   7   8
ATOM      8  C   LIG d   1      13.523  81.177 115.904  0.00  0.00     0.119 C 
BRANCH   8   9
ATOM      9  C   LIG d   1      12.906  82.372 116.657  0.00  0.00     0.028 C 
ATOM     10  C   LIG d   1      13.968  83.247 117.342  0.00  0.00     0.006 C 
ENDBRANCH   8   9
BRANCH   8  11
ATOM     11  C   LIG d   1      13.419  81.536 114.419  0.00  0.00     0.028 C 
ATOM     12  C   LIG d   1      14.783  81.547 113.711  0.00  0.00     0.006 C 
ENDBRANCH   8  11
ENDBRANCH   7   8
ENDBRANCH   1   7
BRANCH   6  13
ATOM     13  N   LIG d   1      13.831  78.031 114.228  0.00  0.00    -0.311 N 
ATOM     14  C   LIG d   1      14.977  77.761 114.850  0.00  0.00     0.210 C 
ATOM     15  C   LIG d   1      16.233  77.914 113.987  0.00  0.00     0.109 C 
ATOM     16  O   LIG d   1      15.070  77.377 116.026  0.00  0.00    -0.276 OA
ATOM     17  H   LIG d   1      13.845  78.304 113.265  0.00  0.00     0.149 HD
ENDBRANCH   6  13
BRANCH   5  18
ATOM     18  N   LIG d   1      11.855  75.719 113.939  0.00  0.00     0.381 N 
ATOM     19  H   LIG d   1      12.774  75.648 113.550  0.00  0.00    -0.090 HD
ATOM     20  H   LIG d   1      11.212  75.271 113.311  0.00  0.00    -0.090 HD
ATOM     21  H   LIG d   1      11.828  75.271 114.829  0.00  0.00    -0.090 HD
ENDBRANCH   5  18
BRANCH   3  22
ATOM     22  C   LIG d   1       8.350  78.758 115.127  0.00  0.00     0.382 C 
ATOM     23  O   LIG d   1       7.931  79.816 115.655  0.00  0.00    -0.241 OA
ATOM     24  O   LIG d   1       7.534  77.932 114.677  0.00  0.00    -0.241 OA
ENDBRANCH   3  22
TORSDOF 7
ENDMDL
MODEL 8
REMARK VINA RESULT:      -4.1      2.941      4.630
REMARK  7 active torsions:
REMARK  status: ('A' for Active; 'I' for Inactive)
REMARK    1  A    between atoms: C_2  and  C_3 
REMARK    2  A    between atoms: C_3  and  O_6 
REMARK    3  A    between atoms: C_3  and  C_4 
REMARK    4  A    between atoms: C_7  and  O_6 
REMARK    5  A    between atoms: C_9  and  C_10 
REMARK    6  A    between atoms: N_15  and  C_14 
REMARK    7  A    between atoms: N_20  and  C_19 
REMARK       I    between atoms: C_22  and  N_20 
ROOT
ATOM      1  C   LIG d   1      13.607  77.643 113.738  0.00  0.00     0.161 C 
ATOM      2  C   LIG d   1      12.861  78.808 113.494  0.00  0.00     0.016 C 
ATOM      3  C   LIG d   1      13.368  79.924 112.789  0.00  0.00     0.038 C 
ATOM      4  C   LIG d   1      14.613  79.890 112.145  0.00  0.00     0.028 C 
ATOM      5  C   LIG d   1      15.603  78.926 112.790  0.00  0.00    -0.047 C 
ATOM      6  C   LIG d   1      14.928  77.544 112.947  0.00  0.00     0.091 C 
ENDROOT
BRANCH   1   7
ATOM      7  O   LIG d   1      12.790  76.480 113.496  0.00  0.00    -0.368 OA
BRANCH   7   8
ATOM      8  C   LIG d   1      12.503  75.652 114.650  0.00  0.00     0.119 C 
BRANCH   8   9
ATOM      9  C   LIG d   1      12.207  74.230 114.136  0.00  0.00     0.028 C 
ATOM     10  C   LIG d   1      11.431  73.385 115.161  0.00  0.00     0.006 C 
ENDBRANCH   8   9
BRANCH   8  11
ATOM     11  C   LIG d   1      11.221  76.103 115.355  0.00  0.00     0.028 C 
ATOM     12  C   LIG d   1      10.171  76.662 114.382  0.00  0.00     0.006 C 
ENDBRANCH   8  11
ENDBRANCH   7   8
ENDBRANCH   1   7
BRANCH   6  13
ATOM     13  N   LIG d   1      15.799  76.564 113.647  0.00  0.00    -0.311 N 
ATOM     14  C   LIG d   1      16.705  75.812 113.024  0.00  0.00     0.210 C 
ATOM     15  C   LIG d   1      17.482  74.852 113.930  0.00  0.00     0.109 C 
ATOM     16  O   LIG d   1      16.961  75.872 111.812  0.00  0.00    -0.276 OA
ATOM     17  H   LIG d   1      15.679  76.473 114.637  0.00  0.00     0.149 HD
ENDBRANCH   6  13
BRANCH   5  18
ATOM     18  N   LIG d   1      16.807  78.887 111.939  0.00  0.00     0.381 N 
ATOM     19  H   LIG d   1      17.624  79.016 112.502  0.00  0.00    -0.090 HD
ATOM     20  H   LIG d   1      16.760  79.640 111.275  0.00  0.00    -0.090 HD
ATOM     21  H   LIG d   1      16.859  78.015 111.460  0.00  0.00    -0.090 HD
ENDBRANCH   5  18
BRANCH   3  22
ATOM     22  C   LIG d   1      12.642  81.105 112.758  0.00  0.00     0.382 C 
ATOM     23  O   LIG d   1      12.718  81.913 113.714  0.00  0.00    -0.241 OA
ATOM     24  O   LIG d   1      11.878  81.352 111.805  0.00  0.00    -0.241 OA
ENDBRANCH   3  22
TORSDOF 7
ENDMDL
MODEL 9
REMARK VINA RESULT:      -3.9      2.249      5.019
REMARK  7 active torsions:
REMARK  status: ('A' for Active; 'I' for Inactive)
REMARK    1  A    between atoms: C_2  and  C_3 
REMARK    2  A    between atoms: C_3  and  O_6 
REMARK    3  A    between atoms: C_3  and  C_4 
REMARK    4  A    between atoms: C_7  and  O_6 
REMARK    5  A    between atoms: C_9  and  C_10 
REMARK    6  A    between atoms: N_15  and  C_14 
REMARK    7  A    between atoms: N_20  and  C_19 
REMARK       I    between atoms: C_22  and  N_20 
ROOT
ATOM      1  C   LIG d   1      11.682  76.420 114.872  0.00  0.00     0.161 C 
ATOM      2  C   LIG d   1      10.433  77.034 115.061  0.00  0.00     0.016 C 
ATOM      3  C   LIG d   1      10.190  78.401 114.793  0.00  0.00     0.038 C 
ATOM      4  C   LIG d   1      11.147  79.216 114.171  0.00  0.00     0.028 C 
ATOM      5  C   LIG d   1      12.582  78.769 114.427  0.00  0.00    -0.047 C 
ATOM      6  C   LIG d   1      12.707  77.266 114.089  0.00  0.00     0.091 C 
ENDROOT
BRANCH   1   7
ATOM      7  O   LIG d   1      11.504  75.136 114.240  0.00  0.00    -0.368 OA
BRANCH   7   8
ATOM      8  C   LIG d   1      11.292  74.012 115.128  0.00  0.00     0.119 C 
BRANCH   8   9
ATOM      9  C   LIG d   1      12.354  74.095 116.242  0.00  0.00     0.028 C 
ATOM     10  C   LIG d   1      13.677  73.421 115.842  0.00  0.00     0.006 C 
ENDBRANCH   8   9
BRANCH   8  11
ATOM     11  C   LIG d   1      11.555  72.682 114.416  0.00  0.00     0.028 C 
ATOM     12  C   LIG d   1      10.522  71.601 114.773  0.00  0.00     0.006 C 
ENDBRANCH   8  11
ENDBRANCH   7   8
ENDBRANCH   1   7
BRANCH   6  13
ATOM     13  N   LIG d   1      14.059  76.728 114.391  0.00  0.00    -0.311 N 
ATOM     14  C   LIG d   1      15.048  76.687 113.500  0.00  0.00     0.210 C 
ATOM     15  C   LIG d   1      16.355  76.074 114.013  0.00  0.00     0.109 C 
ATOM     16  O   LIG d   1      14.977  77.129 112.344  0.00  0.00    -0.276 OA
ATOM     17  H   LIG d   1      14.214  76.376 115.316  0.00  0.00     0.149 HD
ENDBRANCH   6  13
BRANCH   5  18
ATOM     18  N   LIG d   1      13.467  79.621 113.610  0.00  0.00     0.381 N 
ATOM     19  H   LIG d   1      12.920  80.285 113.098  0.00  0.00    -0.090 HD
ATOM     20  H   LIG d   1      13.958  79.042 112.951  0.00  0.00    -0.090 HD
ATOM     21  H   LIG d   1      14.118  80.097 114.195  0.00  0.00    -0.090 HD
ENDBRANCH   5  18
BRANCH   3  22
ATOM     22  C   LIG d   1       8.991  78.976 115.186  0.00  0.00     0.382 C 
ATOM     23  O   LIG d   1       7.903  78.468 114.821  0.00  0.00    -0.241 OA
ATOM     24  O   LIG d   1       8.983  80.021 115.864  0.00  0.00    -0.241 OA
ENDBRANCH   3  22
TORSDOF 7
ENDMDL
