MODEL 1
REMARK VINA RESULT:      -5.2      0.000      0.000
REMARK  7 active torsions:
REMARK  status: ('A' for Active; 'I' for Inactive)
REMARK    1  A    between atoms: C_2  and  C_3 
REMARK    2  A    between atoms: C_3  and  O_6 
REMARK    3  A    between atoms: C_3  and  C_4 
REMARK    4  A    between atoms: C_7  and  O_6 
REMARK    5  A    between atoms: C_9  and  C_10 
REMARK    6  A    between atoms: N_15  and  C_14 
REMARK    7  A    between atoms: N_20  and  C_19 
REMARK       I    between atoms: C_22  and  N_20 
ROOT
ATOM      1  C   LIG d   1       2.536  87.391 115.546  0.00  0.00     0.161 C 
ATOM      2  C   LIG d   1       2.454  88.435 116.481  0.00  0.00     0.016 C 
ATOM      3  C   LIG d   1       3.218  89.622 116.391  0.00  0.00     0.038 C 
ATOM      4  C   LIG d   1       4.009  89.911 115.270  0.00  0.00     0.028 C 
ATOM      5  C   LIG d   1       4.511  88.667 114.545  0.00  0.00    -0.047 C 
ATOM      6  C   LIG d   1       3.311  87.736 114.257  0.00  0.00     0.091 C 
ENDROOT
BRANCH   1   7
ATOM      7  O   LIG d   1       1.213  86.919 115.223  0.00  0.00    -0.368 OA
BRANCH   7   8
ATOM      8  C   LIG d   1       0.929  85.538 115.558  0.00  0.00     0.119 C 
BRANCH   8   9
ATOM      9  C   LIG d   1      -0.442  85.186 114.951  0.00  0.00     0.028 C 
ATOM     10  C   LIG d   1      -0.412  85.150 113.413  0.00  0.00     0.006 C 
ENDBRANCH   8   9
BRANCH   8  11
ATOM     11  C   LIG d   1       0.763  85.354 117.069  0.00  0.00     0.028 C 
ATOM     12  C   LIG d   1       0.195  83.975 117.443  0.00  0.00     0.006 C 
ENDBRANCH   8  11
ENDBRANCH   7   8
ENDBRANCH   1   7
BRANCH   6  13
ATOM     13  N   LIG d   1       3.725  86.457 113.625  0.00  0.00    -0.311 N 
ATOM     14  C   LIG d   1       3.204  85.998 112.488  0.00  0.00     0.210 C 
ATOM     15  C   LIG d   1       3.759  84.648 112.020  0.00  0.00     0.109 C 
ATOM     16  O   LIG d   1       2.358  86.596 111.806  0.00  0.00    -0.276 OA
ATOM     17  H   LIG d   1       4.429  85.922 114.095  0.00  0.00     0.149 HD
ENDBRANCH   6  13
BRANCH   5  18
ATOM     18  N   LIG d   1       5.204  89.113 113.322  0.00  0.00     0.381 N 
ATOM     19  H   LIG d   1       4.761  88.716 112.518  0.00  0.00    -0.090 HD
ATOM     20  H   LIG d   1       6.155  88.788 113.351  0.00  0.00    -0.090 HD
ATOM     21  H   LIG d   1       5.187  90.107 113.263  0.00  0.00    -0.090 HD
ENDBRANCH   5  18
BRANCH   3  22
ATOM     22  C   LIG d   1       3.224  90.517 117.451  0.00  0.00     0.382 C 
ATOM     23  O   LIG d   1       3.788  91.631 117.327  0.00  0.00    -0.241 OA
ATOM     24  O   LIG d   1       2.712  90.206 118.543  0.00  0.00    -0.241 OA
ENDBRANCH   3  22
TORSDOF 7
ENDMDL
MODEL 2
REMARK VINA RESULT:      -5.1     12.628     14.578
REMARK  7 active torsions:
REMARK  status: ('A' for Active; 'I' for Inactive)
REMARK    1  A    between atoms: C_2  and  C_3 
REMARK    2  A    between atoms: C_3  and  O_6 
REMARK    3  A    between atoms: C_3  and  C_4 
REMARK    4  A    between atoms: C_7  and  O_6 
REMARK    5  A    between atoms: C_9  and  C_10 
REMARK    6  A    between atoms: N_15  and  C_14 
REMARK    7  A    between atoms: N_20  and  C_19 
REMARK       I    between atoms: C_22  and  N_20 
ROOT
ATOM      1  C   LIG d   1      -7.396  76.856 117.833  0.00  0.00     0.161 C 
ATOM      2  C   LIG d   1      -8.347  77.884 117.953  0.00  0.00     0.016 C 
ATOM      3  C   LIG d   1      -8.006  79.253 118.041  0.00  0.00     0.038 C 
ATOM      4  C   LIG d   1      -6.689  79.702 117.863  0.00  0.00     0.028 C 
ATOM      5  C   LIG d   1      -5.639  78.665 118.245  0.00  0.00    -0.047 C 
ATOM      6  C   LIG d   1      -5.962  77.335 117.526  0.00  0.00     0.091 C 
ENDROOT
BRANCH   1   7
ATOM      7  O   LIG d   1      -7.829  75.903 116.843  0.00  0.00    -0.368 OA
BRANCH   7   8
ATOM      8  C   LIG d   1      -7.978  74.535 117.298  0.00  0.00     0.119 C 
BRANCH   8   9
ATOM      9  C   LIG d   1      -7.298  73.625 116.257  0.00  0.00     0.028 C 
ATOM     10  C   LIG d   1      -6.545  74.424 115.180  0.00  0.00     0.006 C 
ENDBRANCH   8   9
BRANCH   8  11
ATOM     11  C   LIG d   1      -9.449  74.109 117.309  0.00  0.00     0.028 C 
ATOM     12  C   LIG d   1      -9.638  72.611 117.023  0.00  0.00     0.006 C 
ENDBRANCH   8  11
ENDBRANCH   7   8
ENDBRANCH   1   7
BRANCH   6  13
ATOM     13  N   LIG d   1      -5.031  76.242 117.910  0.00  0.00    -0.311 N 
ATOM     14  C   LIG d   1      -3.950  75.918 117.202  0.00  0.00     0.210 C 
ATOM     15  C   LIG d   1      -3.138  74.747 117.764  0.00  0.00     0.109 C 
ATOM     16  O   LIG d   1      -3.570  76.509 116.180  0.00  0.00    -0.276 OA
ATOM     17  H   LIG d   1      -5.247  75.731 118.743  0.00  0.00     0.149 HD
ENDBRANCH   6  13
BRANCH   5  18
ATOM     18  N   LIG d   1      -4.318  79.213 117.881  0.00  0.00     0.381 N 
ATOM     19  H   LIG d   1      -3.992  78.779 117.041  0.00  0.00    -0.090 HD
ATOM     20  H   LIG d   1      -3.666  79.006 118.617  0.00  0.00    -0.090 HD
ATOM     21  H   LIG d   1      -4.382  80.199 117.751  0.00  0.00    -0.090 HD
ENDBRANCH   5  18
BRANCH   3  22
ATOM     22  C   LIG d   1      -8.984  80.186 118.350  0.00  0.00     0.382 C 
ATOM     23  O   LIG d   1     -10.191  79.843 118.381  0.00  0.00    -0.241 OA
ATOM     24  O   LIG d   1      -8.680  81.376 118.555  0.00  0.00    -0.241 OA
ENDBRANCH   3  22
TORSDOF 7
ENDMDL
MODEL 3
REMARK VINA RESULT:      -5.0     12.280     15.990
REMARK  7 active torsions:
REMARK  status: ('A' for Active; 'I' for Inactive)
REMARK    1  A    between atoms: C_2  and  C_3 
REMARK    2  A    between atoms: C_3  and  O_6 
REMARK    3  A    between atoms: C_3  and  C_4 
REMARK    4  A    between atoms: C_7  and  O_6 
REMARK    5  A    between atoms: C_9  and  C_10 
REMARK    6  A    between atoms: N_15  and  C_14 
REMARK    7  A    between atoms: N_20  and  C_19 
REMARK       I    between atoms: C_22  and  N_20 
ROOT
ATOM      1  C   LIG d   1      -5.804  74.870 116.748  0.00  0.00     0.161 C 
ATOM      2  C   LIG d   1      -6.578  73.756 116.383  0.00  0.00     0.016 C 
ATOM      3  C   LIG d   1      -7.963  73.651 116.646  0.00  0.00     0.038 C 
ATOM      4  C   LIG d   1      -8.704  74.725 117.161  0.00  0.00     0.028 C 
ATOM      5  C   LIG d   1      -7.873  75.683 118.008  0.00  0.00    -0.047 C 
ATOM      6  C   LIG d   1      -6.616  76.098 117.210  0.00  0.00     0.091 C 
ENDROOT
BRANCH   1   7
ATOM      7  O   LIG d   1      -4.925  75.230 115.664  0.00  0.00    -0.368 OA
BRANCH   7   8
ATOM      8  C   LIG d   1      -3.515  74.973 115.875  0.00  0.00     0.119 C 
BRANCH   8   9
ATOM      9  C   LIG d   1      -3.359  74.376 117.287  0.00  0.00     0.028 C 
ATOM     10  C   LIG d   1      -2.474  75.245 118.197  0.00  0.00     0.006 C 
ENDBRANCH   8   9
BRANCH   8  11
ATOM     11  C   LIG d   1      -2.707  76.274 115.893  0.00  0.00     0.028 C 
ATOM     12  C   LIG d   1      -3.069  77.216 114.734  0.00  0.00     0.006 C 
ENDBRANCH   8  11
ENDBRANCH   7   8
ENDBRANCH   1   7
BRANCH   6  13
ATOM     13  N   LIG d   1      -5.706  76.969 117.998  0.00  0.00    -0.311 N 
ATOM     14  C   LIG d   1      -5.326  78.182 117.602  0.00  0.00     0.210 C 
ATOM     15  C   LIG d   1      -4.367  78.903 118.555  0.00  0.00     0.109 C 
ATOM     16  O   LIG d   1      -5.717  78.743 116.567  0.00  0.00    -0.276 OA
ATOM     17  H   LIG d   1      -5.365  76.605 118.867  0.00  0.00     0.149 HD
ENDBRANCH   6  13
BRANCH   5  18
ATOM     18  N   LIG d   1      -8.735  76.825 118.365  0.00  0.00     0.381 N 
ATOM     19  H   LIG d   1      -8.888  76.838 119.354  0.00  0.00    -0.090 HD
ATOM     20  H   LIG d   1      -9.624  76.716 117.910  0.00  0.00    -0.090 HD
ATOM     21  H   LIG d   1      -8.309  77.678 118.076  0.00  0.00    -0.090 HD
ENDBRANCH   5  18
BRANCH   3  22
ATOM     22  C   LIG d   1      -8.614  72.445 116.431  0.00  0.00     0.382 C 
ATOM     23  O   LIG d   1      -8.028  71.516 115.824  0.00  0.00    -0.241 OA
ATOM     24  O   LIG d   1      -9.794  72.291 116.796  0.00  0.00    -0.241 OA
ENDBRANCH   3  22
TORSDOF 7
ENDMDL
MODEL 4
REMARK VINA RESULT:      -4.9     25.124     27.455
REMARK  7 active torsions:
REMARK  status: ('A' for Active; 'I' for Inactive)
REMARK    1  A    between atoms: C_2  and  C_3 
REMARK    2  A    between atoms: C_3  and  O_6 
REMARK    3  A    between atoms: C_3  and  C_4 
REMARK    4  A    between atoms: C_7  and  O_6 
REMARK    5  A    between atoms: C_9  and  C_10 
REMARK    6  A    between atoms: N_15  and  C_14 
REMARK    7  A    between atoms: N_20  and  C_19 
REMARK       I    between atoms: C_22  and  N_20 
ROOT
ATOM      1  C   LIG d   1     -23.875  83.937 113.088  0.00  0.00     0.161 C 
ATOM      2  C   LIG d   1     -22.863  84.844 113.443  0.00  0.00     0.016 C 
ATOM      3  C   LIG d   1     -23.101  86.213 113.706  0.00  0.00     0.038 C 
ATOM      4  C   LIG d   1     -24.400  86.738 113.779  0.00  0.00     0.028 C 
ATOM      5  C   LIG d   1     -25.412  85.973 112.933  0.00  0.00    -0.047 C 
ATOM      6  C   LIG d   1     -25.313  84.468 113.271  0.00  0.00     0.091 C 
ENDROOT
BRANCH   1   7
ATOM      7  O   LIG d   1     -23.701  82.703 113.810  0.00  0.00    -0.368 OA
BRANCH   7   8
ATOM      8  C   LIG d   1     -24.340  82.628 115.109  0.00  0.00     0.119 C 
BRANCH   8   9
ATOM      9  C   LIG d   1     -23.232  82.714 116.176  0.00  0.00     0.028 C 
ATOM     10  C   LIG d   1     -23.318  84.003 117.009  0.00  0.00     0.006 C 
ENDBRANCH   8   9
BRANCH   8  11
ATOM     11  C   LIG d   1     -25.007  81.266 115.324  0.00  0.00     0.028 C 
ATOM     12  C   LIG d   1     -23.994  80.145 115.605  0.00  0.00     0.006 C 
ENDBRANCH   8  11
ENDBRANCH   7   8
ENDBRANCH   1   7
BRANCH   6  13
ATOM     13  N   LIG d   1     -26.210  83.637 112.427  0.00  0.00    -0.311 N 
ATOM     14  C   LIG d   1     -27.414  83.226 112.822  0.00  0.00     0.210 C 
ATOM     15  C   LIG d   1     -28.168  82.362 111.805  0.00  0.00     0.109 C 
ATOM     16  O   LIG d   1     -27.943  83.522 113.904  0.00  0.00    -0.276 OA
ATOM     17  H   LIG d   1     -25.873  83.377 111.521  0.00  0.00     0.149 HD
ENDBRANCH   6  13
BRANCH   5  18
ATOM     18  N   LIG d   1     -26.745  86.541 113.211  0.00  0.00     0.381 N 
ATOM     19  H   LIG d   1     -27.454  85.912 112.891  0.00  0.00    -0.090 HD
ATOM     20  H   LIG d   1     -26.840  87.406 112.708  0.00  0.00    -0.090 HD
ATOM     21  H   LIG d   1     -26.850  86.703 114.188  0.00  0.00    -0.090 HD
ENDBRANCH   5  18
BRANCH   3  22
ATOM     22  C   LIG d   1     -22.030  87.080 113.860  0.00  0.00     0.382 C 
ATOM     23  O   LIG d   1     -22.129  88.069 114.625  0.00  0.00    -0.241 OA
ATOM     24  O   LIG d   1     -20.982  86.911 113.208  0.00  0.00    -0.241 OA
ENDBRANCH   3  22
TORSDOF 7
ENDMDL
MODEL 5
REMARK VINA RESULT:      -4.9     25.039     27.072
REMARK  7 active torsions:
REMARK  status: ('A' for Active; 'I' for Inactive)
REMARK    1  A    between atoms: C_2  and  C_3 
REMARK    2  A    between atoms: C_3  and  O_6 
REMARK    3  A    between atoms: C_3  and  C_4 
REMARK    4  A    between atoms: C_7  and  O_6 
REMARK    5  A    between atoms: C_9  and  C_10 
REMARK    6  A    between atoms: N_15  and  C_14 
REMARK    7  A    between atoms: N_20  and  C_19 
REMARK       I    between atoms: C_22  and  N_20 
ROOT
ATOM      1  C   LIG d   1     -23.579  83.661 114.919  0.00  0.00     0.161 C 
ATOM      2  C   LIG d   1     -22.738  84.783 114.835  0.00  0.00     0.016 C 
ATOM      3  C   LIG d   1     -23.074  85.955 114.119  0.00  0.00     0.038 C 
ATOM      4  C   LIG d   1     -24.347  86.144 113.560  0.00  0.00     0.028 C 
ATOM      5  C   LIG d   1     -25.044  84.840 113.189  0.00  0.00    -0.047 C 
ATOM      6  C   LIG d   1     -25.017  83.891 114.409  0.00  0.00     0.091 C 
ENDROOT
BRANCH   1   7
ATOM      7  O   LIG d   1     -23.601  83.167 116.273  0.00  0.00    -0.368 OA
BRANCH   7   8
ATOM      8  C   LIG d   1     -22.873  81.938 116.514  0.00  0.00     0.119 C 
BRANCH   8   9
ATOM      9  C   LIG d   1     -23.912  80.823 116.747  0.00  0.00     0.028 C 
ATOM     10  C   LIG d   1     -23.932  79.793 115.605  0.00  0.00     0.006 C 
ENDBRANCH   8   9
BRANCH   8  11
ATOM     11  C   LIG d   1     -22.064  82.015 117.812  0.00  0.00     0.028 C 
ATOM     12  C   LIG d   1     -21.607  83.444 118.146  0.00  0.00     0.006 C 
ENDBRANCH   8  11
ENDBRANCH   7   8
ENDBRANCH   1   7
BRANCH   6  13
ATOM     13  N   LIG d   1     -25.605  82.561 114.106  0.00  0.00    -0.311 N 
ATOM     14  C   LIG d   1     -26.873  82.243 114.364  0.00  0.00     0.210 C 
ATOM     15  C   LIG d   1     -27.269  80.811 113.991  0.00  0.00     0.109 C 
ATOM     16  O   LIG d   1     -27.714  83.021 114.838  0.00  0.00    -0.276 OA
ATOM     17  H   LIG d   1     -25.001  81.878 113.691  0.00  0.00     0.149 HD
ENDBRANCH   6  13
BRANCH   5  18
ATOM     18  N   LIG d   1     -26.411  85.176 112.748  0.00  0.00     0.381 N 
ATOM     19  H   LIG d   1     -27.068  84.923 113.459  0.00  0.00    -0.090 HD
ATOM     20  H   LIG d   1     -26.625  84.649 111.919  0.00  0.00    -0.090 HD
ATOM     21  H   LIG d   1     -26.478  86.151 112.556  0.00  0.00    -0.090 HD
ENDBRANCH   5  18
BRANCH   3  22
ATOM     22  C   LIG d   1     -22.116  86.938 113.922  0.00  0.00     0.382 C 
ATOM     23  O   LIG d   1     -21.116  86.704 113.201  0.00  0.00    -0.241 OA
ATOM     24  O   LIG d   1     -22.216  88.041 114.492  0.00  0.00    -0.241 OA
ENDBRANCH   3  22
TORSDOF 7
ENDMDL
MODEL 6
REMARK VINA RESULT:      -4.9      3.108      6.382
REMARK  7 active torsions:
REMARK  status: ('A' for Active; 'I' for Inactive)
REMARK    1  A    between atoms: C_2  and  C_3 
REMARK    2  A    between atoms: C_3  and  O_6 
REMARK    3  A    between atoms: C_3  and  C_4 
REMARK    4  A    between atoms: C_7  and  O_6 
REMARK    5  A    between atoms: C_9  and  C_10 
REMARK    6  A    between atoms: N_15  and  C_14 
REMARK    7  A    between atoms: N_20  and  C_19 
REMARK       I    between atoms: C_22  and  N_20 
ROOT
ATOM      1  C   LIG d   1      -0.297  84.946 113.941  0.00  0.00     0.161 C 
ATOM      2  C   LIG d   1      -1.332  84.010 114.102  0.00  0.00     0.016 C 
ATOM      3  C   LIG d   1      -1.295  82.708 113.551  0.00  0.00     0.038 C 
ATOM      4  C   LIG d   1      -0.147  82.199 112.926  0.00  0.00     0.028 C 
ATOM      5  C   LIG d   1       0.730  83.278 112.301  0.00  0.00    -0.047 C 
ATOM      6  C   LIG d   1       1.010  84.372 113.357  0.00  0.00     0.091 C 
ENDROOT
BRANCH   1   7
ATOM      7  O   LIG d   1      -0.037  85.607 115.196  0.00  0.00    -0.368 OA
BRANCH   7   8
ATOM      8  C   LIG d   1       0.890  84.940 116.087  0.00  0.00     0.119 C 
BRANCH   8   9
ATOM      9  C   LIG d   1       0.095  84.488 117.328  0.00  0.00     0.028 C 
ATOM     10  C   LIG d   1      -0.201  82.979 117.317  0.00  0.00     0.006 C 
ENDBRANCH   8   9
BRANCH   8  11
ATOM     11  C   LIG d   1       1.950  85.911 116.617  0.00  0.00     0.028 C 
ATOM     12  C   LIG d   1       1.871  87.297 115.957  0.00  0.00     0.006 C 
ENDBRANCH   8  11
ENDBRANCH   7   8
ENDBRANCH   1   7
BRANCH   6  13
ATOM     13  N   LIG d   1       1.793  85.508 112.803  0.00  0.00    -0.311 N 
ATOM     14  C   LIG d   1       3.119  85.596 112.890  0.00  0.00     0.210 C 
ATOM     15  C   LIG d   1       3.725  86.859 112.270  0.00  0.00     0.109 C 
ATOM     16  O   LIG d   1       3.854  84.732 113.392  0.00  0.00    -0.276 OA
ATOM     17  H   LIG d   1       1.278  86.238 112.351  0.00  0.00     0.149 HD
ENDBRANCH   6  13
BRANCH   5  18
ATOM     18  N   LIG d   1       1.957  82.625 111.806  0.00  0.00     0.381 N 
ATOM     19  H   LIG d   1       2.330  82.025 112.515  0.00  0.00    -0.090 HD
ATOM     20  H   LIG d   1       2.640  83.331 111.598  0.00  0.00    -0.090 HD
ATOM     21  H   LIG d   1       1.754  82.096 110.986  0.00  0.00    -0.090 HD
ENDBRANCH   5  18
BRANCH   3  22
ATOM     22  C   LIG d   1      -2.431  81.914 113.589  0.00  0.00     0.382 C 
ATOM     23  O   LIG d   1      -3.092  81.715 112.542  0.00  0.00    -0.241 OA
ATOM     24  O   LIG d   1      -2.829  81.430 114.666  0.00  0.00    -0.241 OA
ENDBRANCH   3  22
TORSDOF 7
ENDMDL
MODEL 7
REMARK VINA RESULT:      -4.9     26.182     28.525
REMARK  7 active torsions:
REMARK  status: ('A' for Active; 'I' for Inactive)
REMARK    1  A    between atoms: C_2  and  C_3 
REMARK    2  A    between atoms: C_3  and  O_6 
REMARK    3  A    between atoms: C_3  and  C_4 
REMARK    4  A    between atoms: C_7  and  O_6 
REMARK    5  A    between atoms: C_9  and  C_10 
REMARK    6  A    between atoms: N_15  and  C_14 
REMARK    7  A    between atoms: N_20  and  C_19 
REMARK       I    between atoms: C_22  and  N_20 
ROOT
ATOM      1  C   LIG d   1     -25.637  85.919 113.554  0.00  0.00     0.161 C 
ATOM      2  C   LIG d   1     -24.486  86.725 113.570  0.00  0.00     0.016 C 
ATOM      3  C   LIG d   1     -23.176  86.208 113.697  0.00  0.00     0.038 C 
ATOM      4  C   LIG d   1     -22.916  84.830 113.663  0.00  0.00     0.028 C 
ATOM      5  C   LIG d   1     -24.083  83.981 114.156  0.00  0.00    -0.047 C 
ATOM      6  C   LIG d   1     -25.366  84.407 113.405  0.00  0.00     0.091 C 
ENDROOT
BRANCH   1   7
ATOM      7  O   LIG d   1     -26.535  86.371 112.522  0.00  0.00    -0.368 OA
BRANCH   7   8
ATOM      8  C   LIG d   1     -27.782  86.955 112.973  0.00  0.00     0.119 C 
BRANCH   8   9
ATOM      9  C   LIG d   1     -28.927  86.083 112.422  0.00  0.00     0.028 C 
ATOM     10  C   LIG d   1     -29.991  85.768 113.487  0.00  0.00     0.006 C 
ENDBRANCH   8   9
BRANCH   8  11
ATOM     11  C   LIG d   1     -28.001  88.343 112.365  0.00  0.00     0.028 C 
ATOM     12  C   LIG d   1     -26.708  88.958 111.806  0.00  0.00     0.006 C 
ENDBRANCH   8  11
ENDBRANCH   7   8
ENDBRANCH   1   7
BRANCH   6  13
ATOM     13  N   LIG d   1     -26.571  83.684 113.886  0.00  0.00    -0.311 N 
ATOM     14  C   LIG d   1     -27.334  82.926 113.101  0.00  0.00     0.210 C 
ATOM     15  C   LIG d   1     -28.541  82.286 113.794  0.00  0.00     0.109 C 
ATOM     16  O   LIG d   1     -27.108  82.696 111.903  0.00  0.00    -0.276 OA
ATOM     17  H   LIG d   1     -26.811  83.790 114.853  0.00  0.00     0.149 HD
ENDBRANCH   6  13
BRANCH   5  18
ATOM     18  N   LIG d   1     -23.729  82.566 113.937  0.00  0.00     0.381 N 
ATOM     19  H   LIG d   1     -24.423  81.975 114.350  0.00  0.00    -0.090 HD
ATOM     20  H   LIG d   1     -22.849  82.378 114.385  0.00  0.00    -0.090 HD
ATOM     21  H   LIG d   1     -23.660  82.378 112.961  0.00  0.00    -0.090 HD
ENDBRANCH   5  18
BRANCH   3  22
ATOM     22  C   LIG d   1     -22.112  87.074 113.898  0.00  0.00     0.382 C 
ATOM     23  O   LIG d   1     -22.214  88.010 114.727  0.00  0.00    -0.241 OA
ATOM     24  O   LIG d   1     -21.067  86.957 113.231  0.00  0.00    -0.241 OA
ENDBRANCH   3  22
TORSDOF 7
ENDMDL
MODEL 8
REMARK VINA RESULT:      -4.8      2.888      4.174
REMARK  7 active torsions:
REMARK  status: ('A' for Active; 'I' for Inactive)
REMARK    1  A    between atoms: C_2  and  C_3 
REMARK    2  A    between atoms: C_3  and  O_6 
REMARK    3  A    between atoms: C_3  and  C_4 
REMARK    4  A    between atoms: C_7  and  O_6 
REMARK    5  A    between atoms: C_9  and  C_10 
REMARK    6  A    between atoms: N_15  and  C_14 
REMARK    7  A    between atoms: N_20  and  C_19 
REMARK       I    between atoms: C_22  and  N_20 
ROOT
ATOM      1  C   LIG d   1       3.426  85.654 113.959  0.00  0.00     0.161 C 
ATOM      2  C   LIG d   1       3.625  87.003 113.621  0.00  0.00     0.016 C 
ATOM      3  C   LIG d   1       4.253  87.935 114.477  0.00  0.00     0.038 C 
ATOM      4  C   LIG d   1       4.865  87.545 115.678  0.00  0.00     0.028 C 
ATOM      5  C   LIG d   1       4.247  86.293 116.293  0.00  0.00    -0.047 C 
ATOM      6  C   LIG d   1       4.185  85.184 115.218  0.00  0.00     0.091 C 
ENDROOT
BRANCH   1   7
ATOM      7  O   LIG d   1       3.754  84.814 112.834  0.00  0.00    -0.368 OA
BRANCH   7   8
ATOM      8  C   LIG d   1       2.632  84.240 112.119  0.00  0.00     0.119 C 
BRANCH   8   9
ATOM      9  C   LIG d   1       1.384  84.403 113.009  0.00  0.00     0.028 C 
ATOM     10  C   LIG d   1       0.214  85.066 112.262  0.00  0.00     0.006 C 
ENDBRANCH   8   9
BRANCH   8  11
ATOM     11  C   LIG d   1       2.803  82.729 111.934  0.00  0.00     0.028 C 
ATOM     12  C   LIG d   1       2.131  81.913 113.049  0.00  0.00     0.006 C 
ENDBRANCH   8  11
ENDBRANCH   7   8
ENDBRANCH   1   7
BRANCH   6  13
ATOM     13  N   LIG d   1       3.517  83.952 115.712  0.00  0.00    -0.311 N 
ATOM     14  C   LIG d   1       4.176  82.924 116.243  0.00  0.00     0.210 C 
ATOM     15  C   LIG d   1       3.297  81.744 116.671  0.00  0.00     0.109 C 
ATOM     16  O   LIG d   1       5.402  82.889 116.430  0.00  0.00    -0.276 OA
ATOM     17  H   LIG d   1       2.520  83.908 115.628  0.00  0.00     0.149 HD
ENDBRANCH   6  13
BRANCH   5  18
ATOM     18  N   LIG d   1       5.066  85.920 117.462  0.00  0.00     0.381 N 
ATOM     19  H   LIG d   1       5.587  86.714 117.777  0.00  0.00    -0.090 HD
ATOM     20  H   LIG d   1       5.716  85.205 117.188  0.00  0.00    -0.090 HD
ATOM     21  H   LIG d   1       4.481  85.585 118.195  0.00  0.00    -0.090 HD
ENDBRANCH   5  18
BRANCH   3  22
ATOM     22  C   LIG d   1       4.239  89.284 114.154  0.00  0.00     0.382 C 
ATOM     23  O   LIG d   1       4.022  90.140 115.045  0.00  0.00    -0.241 OA
ATOM     24  O   LIG d   1       4.397  89.652 112.974  0.00  0.00    -0.241 OA
ENDBRANCH   3  22
TORSDOF 7
ENDMDL
MODEL 9
REMARK VINA RESULT:      -4.7     11.162     13.247
REMARK  7 active torsions:
REMARK  status: ('A' for Active; 'I' for Inactive)
REMARK    1  A    between atoms: C_2  and  C_3 
REMARK    2  A    between atoms: C_3  and  O_6 
REMARK    3  A    between atoms: C_3  and  C_4 
REMARK    4  A    between atoms: C_7  and  O_6 
REMARK    5  A    between atoms: C_9  and  C_10 
REMARK    6  A    between atoms: N_15  and  C_14 
REMARK    7  A    between atoms: N_20  and  C_19 
REMARK       I    between atoms: C_22  and  N_20 
ROOT
ATOM      1  C   LIG d   1      -4.792  76.645 117.944  0.00  0.00     0.161 C 
ATOM      2  C   LIG d   1      -5.593  77.800 117.964  0.00  0.00     0.016 C 
ATOM      3  C   LIG d   1      -5.279  78.977 117.246  0.00  0.00     0.038 C 
ATOM      4  C   LIG d   1      -4.215  79.027 116.334  0.00  0.00     0.028 C 
ATOM      5  C   LIG d   1      -3.088  78.053 116.663  0.00  0.00    -0.047 C 
ATOM      6  C   LIG d   1      -3.687  76.643 116.867  0.00  0.00     0.091 C 
ENDROOT
BRANCH   1   7
ATOM      7  O   LIG d   1      -5.625  75.476 117.811  0.00  0.00    -0.368 OA
BRANCH   7   8
ATOM      8  C   LIG d   1      -6.671  75.550 116.811  0.00  0.00     0.119 C 
BRANCH   8   9
ATOM      9  C   LIG d   1      -7.983  75.095 117.480  0.00  0.00     0.028 C 
ATOM     10  C   LIG d   1      -9.017  76.229 117.574  0.00  0.00     0.006 C 
ENDBRANCH   8   9
BRANCH   8  11
ATOM     11  C   LIG d   1      -6.428  74.551 115.676  0.00  0.00     0.028 C 
ATOM     12  C   LIG d   1      -5.921  75.223 114.390  0.00  0.00     0.006 C 
ENDBRANCH   8  11
ENDBRANCH   7   8
ENDBRANCH   1   7
BRANCH   6  13
ATOM     13  N   LIG d   1      -2.664  75.646 117.276  0.00  0.00    -0.311 N 
ATOM     14  C   LIG d   1      -2.071  74.812 116.423  0.00  0.00     0.210 C 
ATOM     15  C   LIG d   1      -1.060  73.851 117.055  0.00  0.00     0.109 C 
ATOM     16  O   LIG d   1      -2.264  74.799 115.198  0.00  0.00    -0.276 OA
ATOM     17  H   LIG d   1      -2.424  75.609 118.247  0.00  0.00     0.149 HD
ENDBRANCH   6  13
BRANCH   5  18
ATOM     18  N   LIG d   1      -2.111  78.112 115.559  0.00  0.00     0.381 N 
ATOM     19  H   LIG d   1      -1.315  77.549 115.781  0.00  0.00    -0.090 HD
ATOM     20  H   LIG d   1      -1.805  79.062 115.446  0.00  0.00    -0.090 HD
ATOM     21  H   LIG d   1      -2.531  77.788 114.715  0.00  0.00    -0.090 HD
ENDBRANCH   5  18
BRANCH   3  22
ATOM     22  C   LIG d   1      -6.011  80.133 117.469  0.00  0.00     0.382 C 
ATOM     23  O   LIG d   1      -6.778  80.209 118.458  0.00  0.00    -0.241 OA
ATOM     24  O   LIG d   1      -5.947  81.085 116.667  0.00  0.00    -0.241 OA
ENDBRANCH   3  22
TORSDOF 7
ENDMDL
