MODEL 1
REMARK VINA RESULT:      -5.1      0.000      0.000
REMARK  7 active torsions:
REMARK  status: ('A' for Active; 'I' for Inactive)
REMARK    1  A    between atoms: C_2  and  C_3 
REMARK    2  A    between atoms: C_3  and  O_6 
REMARK    3  A    between atoms: C_3  and  C_4 
REMARK    4  A    between atoms: C_7  and  O_6 
REMARK    5  A    between atoms: C_9  and  C_10 
REMARK    6  A    between atoms: N_15  and  C_14 
REMARK    7  A    between atoms: N_20  and  C_19 
REMARK       I    between atoms: C_22  and  N_20 
ROOT
ATOM      1  C   LIG d   1      -3.349  75.522 115.152  0.00  0.00     0.161 C 
ATOM      2  C   LIG d   1      -4.158  74.590 115.824  0.00  0.00     0.016 C 
ATOM      3  C   LIG d   1      -5.457  74.233 115.394  0.00  0.00     0.038 C 
ATOM      4  C   LIG d   1      -5.980  74.675 114.170  0.00  0.00     0.028 C 
ATOM      5  C   LIG d   1      -5.402  76.009 113.710  0.00  0.00    -0.047 C 
ATOM      6  C   LIG d   1      -3.859  75.930 113.754  0.00  0.00     0.091 C 
ENDROOT
BRANCH   1   7
ATOM      7  O   LIG d   1      -1.999  75.026 115.068  0.00  0.00    -0.368 OA
BRANCH   7   8
ATOM      8  C   LIG d   1      -1.091  75.469 116.107  0.00  0.00     0.119 C 
BRANCH   8   9
ATOM      9  C   LIG d   1      -0.117  76.479 115.470  0.00  0.00     0.028 C 
ATOM     10  C   LIG d   1      -0.484  77.936 115.800  0.00  0.00     0.006 C 
ENDBRANCH   8   9
BRANCH   8  11
ATOM     11  C   LIG d   1      -0.213  74.319 116.607  0.00  0.00     0.028 C 
ATOM     12  C   LIG d   1      -0.742  73.684 117.902  0.00  0.00     0.006 C 
ENDBRANCH   8  11
ENDBRANCH   7   8
ENDBRANCH   1   7
BRANCH   6  13
ATOM     13  N   LIG d   1      -3.215  77.221 113.399  0.00  0.00    -0.311 N 
ATOM     14  C   LIG d   1      -2.248  77.333 112.490  0.00  0.00     0.210 C 
ATOM     15  C   LIG d   1      -1.708  78.753 112.292  0.00  0.00     0.109 C 
ATOM     16  O   LIG d   1      -1.809  76.397 111.805  0.00  0.00    -0.276 OA
ATOM     17  H   LIG d   1      -3.532  78.038 113.884  0.00  0.00     0.149 HD
ENDBRANCH   6  13
BRANCH   5  18
ATOM     18  N   LIG d   1      -5.929  76.281 112.359  0.00  0.00     0.381 N 
ATOM     19  H   LIG d   1      -6.128  77.257 112.264  0.00  0.00    -0.090 HD
ATOM     20  H   LIG d   1      -6.786  75.772 112.236  0.00  0.00    -0.090 HD
ATOM     21  H   LIG d   1      -5.266  76.001 111.671  0.00  0.00    -0.090 HD
ENDBRANCH   5  18
BRANCH   3  22
ATOM     22  C   LIG d   1      -6.263  73.457 116.213  0.00  0.00     0.382 C 
ATOM     23  O   LIG d   1      -6.863  73.983 117.181  0.00  0.00    -0.241 OA
ATOM     24  O   LIG d   1      -6.361  72.230 116.023  0.00  0.00    -0.241 OA
ENDBRANCH   3  22
TORSDOF 7
ENDMDL
MODEL 2
REMARK VINA RESULT:      -4.7     10.095     13.822
REMARK  7 active torsions:
REMARK  status: ('A' for Active; 'I' for Inactive)
REMARK    1  A    between atoms: C_2  and  C_3 
REMARK    2  A    between atoms: C_3  and  O_6 
REMARK    3  A    between atoms: C_3  and  C_4 
REMARK    4  A    between atoms: C_7  and  O_6 
REMARK    5  A    between atoms: C_9  and  C_10 
REMARK    6  A    between atoms: N_15  and  C_14 
REMARK    7  A    between atoms: N_20  and  C_19 
REMARK       I    between atoms: C_22  and  N_20 
ROOT
ATOM      1  C   LIG d   1       3.166  86.219 113.912  0.00  0.00     0.161 C 
ATOM      2  C   LIG d   1       3.613  87.387 113.274  0.00  0.00     0.016 C 
ATOM      3  C   LIG d   1       4.364  88.392 113.927  0.00  0.00     0.038 C 
ATOM      4  C   LIG d   1       4.851  88.224 115.231  0.00  0.00     0.028 C 
ATOM      5  C   LIG d   1       3.999  87.285 116.079  0.00  0.00    -0.047 C 
ATOM      6  C   LIG d   1       3.782  85.966 115.304  0.00  0.00     0.091 C 
ENDROOT
BRANCH   1   7
ATOM      7  O   LIG d   1       3.382  85.080 113.054  0.00  0.00    -0.368 OA
BRANCH   7   8
ATOM      8  C   LIG d   1       2.259  84.681 112.231  0.00  0.00     0.119 C 
BRANCH   8   9
ATOM      9  C   LIG d   1       0.994  84.752 113.108  0.00  0.00     0.028 C 
ATOM     10  C   LIG d   1      -0.193  85.399 112.374  0.00  0.00     0.006 C 
ENDBRANCH   8   9
BRANCH   8  11
ATOM     11  C   LIG d   1       2.375  83.214 111.805  0.00  0.00     0.028 C 
ATOM     12  C   LIG d   1       1.829  82.241 112.863  0.00  0.00     0.006 C 
ENDBRANCH   8  11
ENDBRANCH   7   8
ENDBRANCH   1   7
BRANCH   6  13
ATOM     13  N   LIG d   1       2.889  85.024 116.027  0.00  0.00    -0.311 N 
ATOM     14  C   LIG d   1       3.155  83.727 116.173  0.00  0.00     0.210 C 
ATOM     15  C   LIG d   1       2.092  82.930 116.935  0.00  0.00     0.109 C 
ATOM     16  O   LIG d   1       4.186  83.167 115.771  0.00  0.00    -0.276 OA
ATOM     17  H   LIG d   1       2.045  85.400 116.412  0.00  0.00     0.149 HD
ENDBRANCH   6  13
BRANCH   5  18
ATOM     18  N   LIG d   1       4.695  87.092 117.366  0.00  0.00     0.381 N 
ATOM     19  H   LIG d   1       4.926  87.981 117.763  0.00  0.00    -0.090 HD
ATOM     20  H   LIG d   1       5.548  86.589 117.202  0.00  0.00    -0.090 HD
ATOM     21  H   LIG d   1       4.114  86.581 117.994  0.00  0.00    -0.090 HD
ENDBRANCH   5  18
BRANCH   3  22
ATOM     22  C   LIG d   1       4.601  89.599 113.286  0.00  0.00     0.382 C 
ATOM     23  O   LIG d   1       3.688  90.456 113.207  0.00  0.00    -0.241 OA
ATOM     24  O   LIG d   1       5.701  89.823 112.747  0.00  0.00    -0.241 OA
ENDBRANCH   3  22
TORSDOF 7
ENDMDL
MODEL 3
REMARK VINA RESULT:      -4.6     10.177     13.474
REMARK  7 active torsions:
REMARK  status: ('A' for Active; 'I' for Inactive)
REMARK    1  A    between atoms: C_2  and  C_3 
REMARK    2  A    between atoms: C_3  and  O_6 
REMARK    3  A    between atoms: C_3  and  C_4 
REMARK    4  A    between atoms: C_7  and  O_6 
REMARK    5  A    between atoms: C_9  and  C_10 
REMARK    6  A    between atoms: N_15  and  C_14 
REMARK    7  A    between atoms: N_20  and  C_19 
REMARK       I    between atoms: C_22  and  N_20 
ROOT
ATOM      1  C   LIG d   1       3.661  86.361 114.778  0.00  0.00     0.161 C 
ATOM      2  C   LIG d   1       4.009  87.719 114.871  0.00  0.00     0.016 C 
ATOM      3  C   LIG d   1       3.479  88.717 114.022  0.00  0.00     0.038 C 
ATOM      4  C   LIG d   1       2.445  88.447 113.114  0.00  0.00     0.028 C 
ATOM      5  C   LIG d   1       2.422  86.998 112.636  0.00  0.00    -0.047 C 
ATOM      6  C   LIG d   1       2.452  86.064 113.867  0.00  0.00     0.091 C 
ENDROOT
BRANCH   1   7
ATOM      7  O   LIG d   1       3.440  85.821 116.096  0.00  0.00    -0.368 OA
BRANCH   7   8
ATOM      8  C   LIG d   1       2.060  85.739 116.528  0.00  0.00     0.119 C 
BRANCH   8   9
ATOM      9  C   LIG d   1       1.824  86.873 117.545  0.00  0.00     0.028 C 
ATOM     10  C   LIG d   1       0.762  87.877 117.069  0.00  0.00     0.006 C 
ENDBRANCH   8   9
BRANCH   8  11
ATOM     11  C   LIG d   1       1.792  84.442 117.297  0.00  0.00     0.028 C 
ATOM     12  C   LIG d   1       2.667  83.273 116.817  0.00  0.00     0.006 C 
ENDBRANCH   8  11
ENDBRANCH   7   8
ENDBRANCH   1   7
BRANCH   6  13
ATOM     13  N   LIG d   1       2.517  84.628 113.487  0.00  0.00    -0.311 N 
ATOM     14  C   LIG d   1       1.438  83.861 113.333  0.00  0.00     0.210 C 
ATOM     15  C   LIG d   1       1.729  82.405 112.959  0.00  0.00     0.109 C 
ATOM     16  O   LIG d   1       0.268  84.257 113.440  0.00  0.00    -0.276 OA
ATOM     17  H   LIG d   1       3.426  84.233 113.350  0.00  0.00     0.149 HD
ENDBRANCH   6  13
BRANCH   5  18
ATOM     18  N   LIG d   1       1.216  86.822 111.805  0.00  0.00     0.381 N 
ATOM     19  H   LIG d   1       1.461  86.879 110.837  0.00  0.00    -0.090 HD
ATOM     20  H   LIG d   1       0.569  87.563 112.011  0.00  0.00    -0.090 HD
ATOM     21  H   LIG d   1       0.795  85.940 111.998  0.00  0.00    -0.090 HD
ENDBRANCH   5  18
BRANCH   3  22
ATOM     22  C   LIG d   1       4.014  89.997 114.049  0.00  0.00     0.382 C 
ATOM     23  O   LIG d   1       4.301  90.579 112.975  0.00  0.00    -0.241 OA
ATOM     24  O   LIG d   1       4.254  90.558 115.134  0.00  0.00    -0.241 OA
ENDBRANCH   3  22
TORSDOF 7
ENDMDL
MODEL 4
REMARK VINA RESULT:      -4.4     11.475     14.661
REMARK  7 active torsions:
REMARK  status: ('A' for Active; 'I' for Inactive)
REMARK    1  A    between atoms: C_2  and  C_3 
REMARK    2  A    between atoms: C_3  and  O_6 
REMARK    3  A    between atoms: C_3  and  C_4 
REMARK    4  A    between atoms: C_7  and  O_6 
REMARK    5  A    between atoms: C_9  and  C_10 
REMARK    6  A    between atoms: N_15  and  C_14 
REMARK    7  A    between atoms: N_20  and  C_19 
REMARK       I    between atoms: C_22  and  N_20 
ROOT
ATOM      1  C   LIG d   1       2.122  87.387 115.089  0.00  0.00     0.161 C 
ATOM      2  C   LIG d   1       2.902  88.012 114.102  0.00  0.00     0.016 C 
ATOM      3  C   LIG d   1       3.958  88.905 114.395  0.00  0.00     0.038 C 
ATOM      4  C   LIG d   1       4.407  89.118 115.707  0.00  0.00     0.028 C 
ATOM      5  C   LIG d   1       3.326  88.899 116.760  0.00  0.00    -0.047 C 
ATOM      6  C   LIG d   1       2.669  87.520 116.525  0.00  0.00     0.091 C 
ENDROOT
BRANCH   1   7
ATOM      7  O   LIG d   1       1.930  85.998 114.752  0.00  0.00    -0.368 OA
BRANCH   7   8
ATOM      8  C   LIG d   1       1.566  85.720 113.378  0.00  0.00     0.119 C 
BRANCH   8   9
ATOM      9  C   LIG d   1       0.101  85.242 113.374  0.00  0.00     0.028 C 
ATOM     10  C   LIG d   1      -0.424  84.972 111.954  0.00  0.00     0.006 C 
ENDBRANCH   8   9
BRANCH   8  11
ATOM     11  C   LIG d   1       2.376  84.548 112.814  0.00  0.00     0.028 C 
ATOM     12  C   LIG d   1       3.448  84.994 111.807  0.00  0.00     0.006 C 
ENDBRANCH   8  11
ENDBRANCH   7   8
ENDBRANCH   1   7
BRANCH   6  13
ATOM     13  N   LIG d   1       1.543  87.262 117.461  0.00  0.00    -0.311 N 
ATOM     14  C   LIG d   1       0.436  88.003 117.497  0.00  0.00     0.210 C 
ATOM     15  C   LIG d   1      -0.592  87.577 118.550  0.00  0.00     0.109 C 
ATOM     16  O   LIG d   1       0.194  88.951 116.736  0.00  0.00    -0.276 OA
ATOM     17  H   LIG d   1       1.642  86.492 118.093  0.00  0.00     0.149 HD
ENDBRANCH   6  13
BRANCH   5  18
ATOM     18  N   LIG d   1       3.963  89.019 118.084  0.00  0.00     0.381 N 
ATOM     19  H   LIG d   1       4.955  88.929 117.992  0.00  0.00    -0.090 HD
ATOM     20  H   LIG d   1       3.633  88.274 118.672  0.00  0.00    -0.090 HD
ATOM     21  H   LIG d   1       3.738  89.899 118.493  0.00  0.00    -0.090 HD
ENDBRANCH   5  18
BRANCH   3  22
ATOM     22  C   LIG d   1       4.551  89.628 113.370  0.00  0.00     0.382 C 
ATOM     23  O   LIG d   1       4.093  90.751 113.049  0.00  0.00    -0.241 OA
ATOM     24  O   LIG d   1       5.510  89.151 112.734  0.00  0.00    -0.241 OA
ENDBRANCH   3  22
TORSDOF 7
ENDMDL
MODEL 5
REMARK VINA RESULT:      -4.2     12.850     15.466
REMARK  7 active torsions:
REMARK  status: ('A' for Active; 'I' for Inactive)
REMARK    1  A    between atoms: C_2  and  C_3 
REMARK    2  A    between atoms: C_3  and  O_6 
REMARK    3  A    between atoms: C_3  and  C_4 
REMARK    4  A    between atoms: C_7  and  O_6 
REMARK    5  A    between atoms: C_9  and  C_10 
REMARK    6  A    between atoms: N_15  and  C_14 
REMARK    7  A    between atoms: N_20  and  C_19 
REMARK       I    between atoms: C_22  and  N_20 
ROOT
ATOM      1  C   LIG d   1      11.130  77.776 115.457  0.00  0.00     0.161 C 
ATOM      2  C   LIG d   1       9.803  77.714 115.000  0.00  0.00     0.016 C 
ATOM      3  C   LIG d   1       8.929  78.826 114.994  0.00  0.00     0.038 C 
ATOM      4  C   LIG d   1       9.373  80.119 115.306  0.00  0.00     0.028 C 
ATOM      5  C   LIG d   1      10.567  80.138 116.254  0.00  0.00    -0.047 C 
ATOM      6  C   LIG d   1      11.665  79.204 115.696  0.00  0.00     0.091 C 
ENDROOT
BRANCH   1   7
ATOM      7  O   LIG d   1      11.993  77.063 114.549  0.00  0.00    -0.368 OA
BRANCH   7   8
ATOM      8  C   LIG d   1      12.741  75.959 115.115  0.00  0.00     0.119 C 
BRANCH   8   9
ATOM      9  C   LIG d   1      14.169  76.023 114.539  0.00  0.00     0.028 C 
ATOM     10  C   LIG d   1      14.344  77.172 113.531  0.00  0.00     0.006 C 
ENDBRANCH   8   9
BRANCH   8  11
ATOM     11  C   LIG d   1      12.178  74.611 114.656  0.00  0.00     0.028 C 
ATOM     12  C   LIG d   1      13.206  73.473 114.751  0.00  0.00     0.006 C 
ENDBRANCH   8  11
ENDBRANCH   7   8
ENDBRANCH   1   7
BRANCH   6  13
ATOM     13  N   LIG d   1      12.835  79.098 116.607  0.00  0.00    -0.311 N 
ATOM     14  C   LIG d   1      14.035  79.603 116.320  0.00  0.00     0.210 C 
ATOM     15  C   LIG d   1      15.107  79.365 117.388  0.00  0.00     0.109 C 
ATOM     16  O   LIG d   1      14.303  80.252 115.298  0.00  0.00    -0.276 OA
ATOM     17  H   LIG d   1      12.698  78.614 117.472  0.00  0.00     0.149 HD
ENDBRANCH   6  13
BRANCH   5  18
ATOM     18  N   LIG d   1      11.011  81.539 116.384  0.00  0.00     0.381 N 
ATOM     19  H   LIG d   1      10.529  81.978 117.143  0.00  0.00    -0.090 HD
ATOM     20  H   LIG d   1      10.784  82.032 115.539  0.00  0.00    -0.090 HD
ATOM     21  H   LIG d   1      11.994  81.571 116.542  0.00  0.00    -0.090 HD
ENDBRANCH   5  18
BRANCH   3  22
ATOM     22  C   LIG d   1       7.584  78.641 114.711  0.00  0.00     0.382 C 
ATOM     23  O   LIG d   1       7.117  77.480 114.618  0.00  0.00    -0.241 OA
ATOM     24  O   LIG d   1       6.842  79.620 114.504  0.00  0.00    -0.241 OA
ENDBRANCH   3  22
TORSDOF 7
ENDMDL
MODEL 6
REMARK VINA RESULT:      -4.1     16.281     19.178
REMARK  7 active torsions:
REMARK  status: ('A' for Active; 'I' for Inactive)
REMARK    1  A    between atoms: C_2  and  C_3 
REMARK    2  A    between atoms: C_3  and  O_6 
REMARK    3  A    between atoms: C_3  and  C_4 
REMARK    4  A    between atoms: C_7  and  O_6 
REMARK    5  A    between atoms: C_9  and  C_10 
REMARK    6  A    between atoms: N_15  and  C_14 
REMARK    7  A    between atoms: N_20  and  C_19 
REMARK       I    between atoms: C_22  and  N_20 
ROOT
ATOM      1  C   LIG d   1     -17.313  64.223 114.975  0.00  0.00     0.161 C 
ATOM      2  C   LIG d   1     -16.268  64.285 115.912  0.00  0.00     0.016 C 
ATOM      3  C   LIG d   1     -16.315  65.082 117.080  0.00  0.00     0.038 C 
ATOM      4  C   LIG d   1     -17.481  65.759 117.468  0.00  0.00     0.028 C 
ATOM      5  C   LIG d   1     -18.385  66.129 116.298  0.00  0.00    -0.047 C 
ATOM      6  C   LIG d   1     -18.636  64.868 115.439  0.00  0.00     0.091 C 
ENDROOT
BRANCH   1   7
ATOM      7  O   LIG d   1     -17.534  62.855 114.580  0.00  0.00    -0.368 OA
BRANCH   7   8
ATOM      8  C   LIG d   1     -18.132  61.992 115.577  0.00  0.00     0.119 C 
BRANCH   8   9
ATOM      9  C   LIG d   1     -17.264  60.722 115.672  0.00  0.00     0.028 C 
ATOM     10  C   LIG d   1     -16.420  60.683 116.957  0.00  0.00     0.006 C 
ENDBRANCH   8   9
BRANCH   8  11
ATOM     11  C   LIG d   1     -19.516  61.505 115.135  0.00  0.00     0.028 C 
ATOM     12  C   LIG d   1     -19.684  61.496 113.608  0.00  0.00     0.006 C 
ENDBRANCH   8  11
ENDBRANCH   7   8
ENDBRANCH   1   7
BRANCH   6  13
ATOM     13  N   LIG d   1     -19.443  65.160 114.226  0.00  0.00    -0.311 N 
ATOM     14  C   LIG d   1     -20.768  65.032 114.178  0.00  0.00     0.210 C 
ATOM     15  C   LIG d   1     -21.402  65.365 112.824  0.00  0.00     0.109 C 
ATOM     16  O   LIG d   1     -21.481  64.705 115.139  0.00  0.00    -0.276 OA
ATOM     17  H   LIG d   1     -18.947  65.461 113.410  0.00  0.00     0.149 HD
ENDBRANCH   6  13
BRANCH   5  18
ATOM     18  N   LIG d   1     -19.624  66.704 116.856  0.00  0.00     0.381 N 
ATOM     19  H   LIG d   1     -20.162  65.985 117.297  0.00  0.00    -0.090 HD
ATOM     20  H   LIG d   1     -20.169  67.091 116.106  0.00  0.00    -0.090 HD
ATOM     21  H   LIG d   1     -19.402  67.415 117.517  0.00  0.00    -0.090 HD
ENDBRANCH   5  18
BRANCH   3  22
ATOM     22  C   LIG d   1     -15.174  65.239 117.851  0.00  0.00     0.382 C 
ATOM     23  O   LIG d   1     -14.595  66.351 117.896  0.00  0.00    -0.241 OA
ATOM     24  O   LIG d   1     -14.690  64.270 118.468  0.00  0.00    -0.241 OA
ENDBRANCH   3  22
TORSDOF 7
ENDMDL
MODEL 7
REMARK VINA RESULT:      -4.0     22.095     23.601
REMARK  7 active torsions:
REMARK  status: ('A' for Active; 'I' for Inactive)
REMARK    1  A    between atoms: C_2  and  C_3 
REMARK    2  A    between atoms: C_3  and  O_6 
REMARK    3  A    between atoms: C_3  and  C_4 
REMARK    4  A    between atoms: C_7  and  O_6 
REMARK    5  A    between atoms: C_9  and  C_10 
REMARK    6  A    between atoms: N_15  and  C_14 
REMARK    7  A    between atoms: N_20  and  C_19 
REMARK       I    between atoms: C_22  and  N_20 
ROOT
ATOM      1  C   LIG d   1     -23.777  83.863 114.406  0.00  0.00     0.161 C 
ATOM      2  C   LIG d   1     -22.884  84.948 114.420  0.00  0.00     0.016 C 
ATOM      3  C   LIG d   1     -23.160  86.190 113.803  0.00  0.00     0.038 C 
ATOM      4  C   LIG d   1     -24.419  86.483 113.256  0.00  0.00     0.028 C 
ATOM      5  C   LIG d   1     -25.172  85.248 112.774  0.00  0.00    -0.047 C 
ATOM      6  C   LIG d   1     -25.198  84.201 113.911  0.00  0.00     0.091 C 
ENDROOT
BRANCH   1   7
ATOM      7  O   LIG d   1     -23.832  83.259 115.714  0.00  0.00    -0.368 OA
BRANCH   7   8
ATOM      8  C   LIG d   1     -24.728  83.883 116.666  0.00  0.00     0.119 C 
BRANCH   8   9
ATOM      9  C   LIG d   1     -23.859  84.600 117.718  0.00  0.00     0.028 C 
ATOM     10  C   LIG d   1     -24.043  86.127 117.688  0.00  0.00     0.006 C 
ENDBRANCH   8   9
BRANCH   8  11
ATOM     11  C   LIG d   1     -25.527  82.836 117.447  0.00  0.00     0.028 C 
ATOM     12  C   LIG d   1     -25.229  81.398 116.993  0.00  0.00     0.006 C 
ENDBRANCH   8  11
ENDBRANCH   7   8
ENDBRANCH   1   7
BRANCH   6  13
ATOM     13  N   LIG d   1     -25.844  82.928 113.495  0.00  0.00    -0.311 N 
ATOM     14  C   LIG d   1     -27.031  82.526 113.947  0.00  0.00     0.210 C 
ATOM     15  C   LIG d   1     -27.505  81.174 113.405  0.00  0.00     0.109 C 
ATOM     16  O   LIG d   1     -27.751  83.177 114.719  0.00  0.00    -0.276 OA
ATOM     17  H   LIG d   1     -25.343  82.354 112.846  0.00  0.00     0.149 HD
ENDBRANCH   6  13
BRANCH   5  18
ATOM     18  N   LIG d   1     -26.519  85.682 112.357  0.00  0.00     0.381 N 
ATOM     19  H   LIG d   1     -26.683  85.412 111.408  0.00  0.00    -0.090 HD
ATOM     20  H   LIG d   1     -26.569  86.684 112.413  0.00  0.00    -0.090 HD
ATOM     21  H   LIG d   1     -27.208  85.274 112.950  0.00  0.00    -0.090 HD
ENDBRANCH   5  18
BRANCH   3  22
ATOM     22  C   LIG d   1     -22.157  87.140 113.693  0.00  0.00     0.382 C 
ATOM     23  O   LIG d   1     -21.488  87.227 112.635  0.00  0.00    -0.241 OA
ATOM     24  O   LIG d   1     -21.883  87.883 114.654  0.00  0.00    -0.241 OA
ENDBRANCH   3  22
TORSDOF 7
ENDMDL
MODEL 8
REMARK VINA RESULT:      -3.9     16.256     19.721
REMARK  7 active torsions:
REMARK  status: ('A' for Active; 'I' for Inactive)
REMARK    1  A    between atoms: C_2  and  C_3 
REMARK    2  A    between atoms: C_3  and  O_6 
REMARK    3  A    between atoms: C_3  and  C_4 
REMARK    4  A    between atoms: C_7  and  O_6 
REMARK    5  A    between atoms: C_9  and  C_10 
REMARK    6  A    between atoms: N_15  and  C_14 
REMARK    7  A    between atoms: N_20  and  C_19 
REMARK       I    between atoms: C_22  and  N_20 
ROOT
ATOM      1  C   LIG d   1     -18.343  64.344 115.088  0.00  0.00     0.161 C 
ATOM      2  C   LIG d   1     -17.596  65.415 115.605  0.00  0.00     0.016 C 
ATOM      3  C   LIG d   1     -16.468  65.247 116.440  0.00  0.00     0.038 C 
ATOM      4  C   LIG d   1     -15.915  63.982 116.693  0.00  0.00     0.028 C 
ATOM      5  C   LIG d   1     -16.931  62.849 116.605  0.00  0.00    -0.047 C 
ATOM      6  C   LIG d   1     -17.689  62.957 115.262  0.00  0.00     0.091 C 
ENDROOT
BRANCH   1   7
ATOM      7  O   LIG d   1     -18.645  64.584 113.699  0.00  0.00    -0.368 OA
BRANCH   7   8
ATOM      8  C   LIG d   1     -19.956  65.132 113.418  0.00  0.00     0.119 C 
BRANCH   8   9
ATOM      9  C   LIG d   1     -20.860  64.812 114.624  0.00  0.00     0.028 C 
ATOM     10  C   LIG d   1     -21.779  65.988 114.997  0.00  0.00     0.006 C 
ENDBRANCH   8   9
BRANCH   8  11
ATOM     11  C   LIG d   1     -20.610  64.429 112.224  0.00  0.00     0.028 C 
ATOM     12  C   LIG d   1     -21.081  63.004 112.557  0.00  0.00     0.006 C 
ENDBRANCH   8  11
ENDBRANCH   7   8
ENDBRANCH   1   7
BRANCH   6  13
ATOM     13  N   LIG d   1     -18.760  61.935 115.132  0.00  0.00    -0.311 N 
ATOM     14  C   LIG d   1     -18.569  60.739 114.576  0.00  0.00     0.210 C 
ATOM     15  C   LIG d   1     -19.812  59.845 114.524  0.00  0.00     0.109 C 
ATOM     16  O   LIG d   1     -17.481  60.323 114.151  0.00  0.00    -0.276 OA
ATOM     17  H   LIG d   1     -19.667  62.178 115.479  0.00  0.00     0.149 HD
ENDBRANCH   6  13
BRANCH   5  18
ATOM     18  N   LIG d   1     -16.196  61.579 116.753  0.00  0.00     0.381 N 
ATOM     19  H   LIG d   1     -16.823  60.855 117.043  0.00  0.00    -0.090 HD
ATOM     20  H   LIG d   1     -15.494  61.690 117.464  0.00  0.00    -0.090 HD
ATOM     21  H   LIG d   1     -15.767  61.330 115.889  0.00  0.00    -0.090 HD
ENDBRANCH   5  18
BRANCH   3  22
ATOM     22  C   LIG d   1     -15.904  66.349 117.065  0.00  0.00     0.382 C 
ATOM     23  O   LIG d   1     -16.537  67.431 117.117  0.00  0.00    -0.241 OA
ATOM     24  O   LIG d   1     -14.753  66.287 117.537  0.00  0.00    -0.241 OA
ENDBRANCH   3  22
TORSDOF 7
ENDMDL
MODEL 9
REMARK VINA RESULT:      -3.9     21.565     24.138
REMARK  7 active torsions:
REMARK  status: ('A' for Active; 'I' for Inactive)
REMARK    1  A    between atoms: C_2  and  C_3 
REMARK    2  A    between atoms: C_3  and  O_6 
REMARK    3  A    between atoms: C_3  and  C_4 
REMARK    4  A    between atoms: C_7  and  O_6 
REMARK    5  A    between atoms: C_9  and  C_10 
REMARK    6  A    between atoms: N_15  and  C_14 
REMARK    7  A    between atoms: N_20  and  C_19 
REMARK       I    between atoms: C_22  and  N_20 
ROOT
ATOM      1  C   LIG d   1     -25.486  85.032 114.906  0.00  0.00     0.161 C 
ATOM      2  C   LIG d   1     -24.719  85.960 114.183  0.00  0.00     0.016 C 
ATOM      3  C   LIG d   1     -23.312  85.883 114.066  0.00  0.00     0.038 C 
ATOM      4  C   LIG d   1     -22.587  84.780 114.542  0.00  0.00     0.028 C 
ATOM      5  C   LIG d   1     -23.260  84.074 115.715  0.00  0.00    -0.047 C 
ATOM      6  C   LIG d   1     -24.726  83.761 115.338  0.00  0.00     0.091 C 
ENDROOT
BRANCH   1   7
ATOM      7  O   LIG d   1     -26.664  84.679 114.152  0.00  0.00    -0.368 OA
BRANCH   7   8
ATOM      8  C   LIG d   1     -26.438  83.942 112.926  0.00  0.00     0.119 C 
BRANCH   8   9
ATOM      9  C   LIG d   1     -27.274  84.616 111.820  0.00  0.00     0.028 C 
ATOM     10  C   LIG d   1     -27.865  85.962 112.270  0.00  0.00     0.006 C 
ENDBRANCH   8   9
BRANCH   8  11
ATOM     11  C   LIG d   1     -26.978  82.512 113.028  0.00  0.00     0.028 C 
ATOM     12  C   LIG d   1     -28.216  82.279 112.148  0.00  0.00     0.006 C 
ENDBRANCH   8  11
ENDBRANCH   7   8
ENDBRANCH   1   7
BRANCH   6  13
ATOM     13  N   LIG d   1     -25.480  83.145 116.461  0.00  0.00    -0.311 N 
ATOM     14  C   LIG d   1     -25.629  81.830 116.611  0.00  0.00     0.210 C 
ATOM     15  C   LIG d   1     -26.460  81.407 117.826  0.00  0.00     0.109 C 
ATOM     16  O   LIG d   1     -25.124  80.972 115.870  0.00  0.00    -0.276 OA
ATOM     17  H   LIG d   1     -25.897  83.767 117.126  0.00  0.00     0.149 HD
ENDBRANCH   6  13
BRANCH   5  18
ATOM     18  N   LIG d   1     -22.470  82.866 116.020  0.00  0.00     0.381 N 
ATOM     19  H   LIG d   1     -22.953  82.308 116.695  0.00  0.00    -0.090 HD
ATOM     20  H   LIG d   1     -21.588  83.145 116.413  0.00  0.00    -0.090 HD
ATOM     21  H   LIG d   1     -22.319  82.338 115.189  0.00  0.00    -0.090 HD
ENDBRANCH   5  18
BRANCH   3  22
ATOM     22  C   LIG d   1     -22.610  86.938 113.502  0.00  0.00     0.382 C 
ATOM     23  O   LIG d   1     -23.031  88.112 113.635  0.00  0.00    -0.241 OA
ATOM     24  O   LIG d   1     -21.587  86.726 112.825  0.00  0.00    -0.241 OA
ENDBRANCH   3  22
TORSDOF 7
ENDMDL
