MODEL 1
REMARK VINA RESULT:      -5.4      0.000      0.000
REMARK  7 active torsions:
REMARK  status: ('A' for Active; 'I' for Inactive)
REMARK    1  A    between atoms: C_2  and  C_3 
REMARK    2  A    between atoms: C_3  and  O_6 
REMARK    3  A    between atoms: C_3  and  C_4 
REMARK    4  A    between atoms: C_7  and  O_6 
REMARK    5  A    between atoms: C_9  and  C_10 
REMARK    6  A    between atoms: N_15  and  C_14 
REMARK    7  A    between atoms: N_20  and  C_19 
REMARK       I    between atoms: C_22  and  N_20 
ROOT
ATOM      1  C   LIG d   1      -6.032  74.905 116.979  0.00  0.00     0.161 C 
ATOM      2  C   LIG d   1      -6.611  73.669 116.648  0.00  0.00     0.016 C 
ATOM      3  C   LIG d   1      -7.975  73.365 116.864  0.00  0.00     0.038 C 
ATOM      4  C   LIG d   1      -8.892  74.337 117.289  0.00  0.00     0.028 C 
ATOM      5  C   LIG d   1      -8.255  75.451 118.113  0.00  0.00    -0.047 C 
ATOM      6  C   LIG d   1      -7.041  76.015 117.341  0.00  0.00     0.091 C 
ENDROOT
BRANCH   1   7
ATOM      7  O   LIG d   1      -5.168  75.342 115.911  0.00  0.00    -0.368 OA
BRANCH   7   8
ATOM      8  C   LIG d   1      -3.746  75.184 116.136  0.00  0.00     0.119 C 
BRANCH   8   9
ATOM      9  C   LIG d   1      -3.541  74.935 117.643  0.00  0.00     0.028 C 
ATOM     10  C   LIG d   1      -2.573  75.948 118.278  0.00  0.00     0.006 C 
ENDBRANCH   8   9
BRANCH   8  11
ATOM     11  C   LIG d   1      -2.986  76.479 115.831  0.00  0.00     0.028 C 
ATOM     12  C   LIG d   1      -3.338  77.066 114.456  0.00  0.00     0.006 C 
ENDBRANCH   8  11
ENDBRANCH   7   8
ENDBRANCH   1   7
BRANCH   6  13
ATOM     13  N   LIG d   1      -6.310  77.053 118.114  0.00  0.00    -0.311 N 
ATOM     14  C   LIG d   1      -5.904  78.208 117.589  0.00  0.00     0.210 C 
ATOM     15  C   LIG d   1      -5.150  79.127 118.555  0.00  0.00     0.109 C 
ATOM     16  O   LIG d   1      -6.125  78.572 116.424  0.00  0.00    -0.276 OA
ATOM     17  H   LIG d   1      -6.115  76.853 119.076  0.00  0.00     0.149 HD
ENDBRANCH   6  13
BRANCH   5  18
ATOM     18  N   LIG d   1      -9.296  76.464 118.373  0.00  0.00     0.381 N 
ATOM     19  H   LIG d   1     -10.198  76.031 118.369  0.00  0.00    -0.090 HD
ATOM     20  H   LIG d   1      -9.273  77.150 117.639  0.00  0.00    -0.090 HD
ATOM     21  H   LIG d   1      -9.134  76.902 119.253  0.00  0.00    -0.090 HD
ENDBRANCH   5  18
BRANCH   3  22
ATOM     22  C   LIG d   1      -8.425  72.065 116.691  0.00  0.00     0.382 C 
ATOM     23  O   LIG d   1      -9.610  71.769 116.979  0.00  0.00    -0.241 OA
ATOM     24  O   LIG d   1      -7.649  71.175 116.294  0.00  0.00    -0.241 OA
ENDBRANCH   3  22
TORSDOF 7
ENDMDL
MODEL 2
REMARK VINA RESULT:      -5.0      1.398      2.106
REMARK  7 active torsions:
REMARK  status: ('A' for Active; 'I' for Inactive)
REMARK    1  A    between atoms: C_2  and  C_3 
REMARK    2  A    between atoms: C_3  and  O_6 
REMARK    3  A    between atoms: C_3  and  C_4 
REMARK    4  A    between atoms: C_7  and  O_6 
REMARK    5  A    between atoms: C_9  and  C_10 
REMARK    6  A    between atoms: N_15  and  C_14 
REMARK    7  A    between atoms: N_20  and  C_19 
REMARK       I    between atoms: C_22  and  N_20 
ROOT
ATOM      1  C   LIG d   1      -6.192  76.063 116.761  0.00  0.00     0.161 C 
ATOM      2  C   LIG d   1      -6.466  74.701 116.556  0.00  0.00     0.016 C 
ATOM      3  C   LIG d   1      -7.674  74.081 116.952  0.00  0.00     0.038 C 
ATOM      4  C   LIG d   1      -8.758  74.821 117.447  0.00  0.00     0.028 C 
ATOM      5  C   LIG d   1      -8.344  76.115 118.138  0.00  0.00    -0.047 C 
ATOM      6  C   LIG d   1      -7.407  76.908 117.198  0.00  0.00     0.091 C 
ENDROOT
BRANCH   1   7
ATOM      7  O   LIG d   1      -5.592  76.624 115.576  0.00  0.00    -0.368 OA
BRANCH   7   8
ATOM      8  C   LIG d   1      -4.256  77.162 115.732  0.00  0.00     0.119 C 
BRANCH   8   9
ATOM      9  C   LIG d   1      -3.351  76.458 114.702  0.00  0.00     0.028 C 
ATOM     10  C   LIG d   1      -2.483  77.450 113.909  0.00  0.00     0.006 C 
ENDBRANCH   8   9
BRANCH   8  11
ATOM     11  C   LIG d   1      -3.667  76.804 117.100  0.00  0.00     0.028 C 
ATOM     12  C   LIG d   1      -3.223  78.039 117.899  0.00  0.00     0.006 C 
ENDBRANCH   8  11
ENDBRANCH   7   8
ENDBRANCH   1   7
BRANCH   6  13
ATOM     13  N   LIG d   1      -6.888  78.149 117.830  0.00  0.00    -0.311 N 
ATOM     14  C   LIG d   1      -7.572  79.291 117.875  0.00  0.00     0.210 C 
ATOM     15  C   LIG d   1      -6.844  80.455 118.555  0.00  0.00     0.109 C 
ATOM     16  O   LIG d   1      -8.725  79.442 117.444  0.00  0.00    -0.276 OA
ATOM     17  H   LIG d   1      -5.972  78.107 118.232  0.00  0.00     0.149 HD
ENDBRANCH   6  13
BRANCH   5  18
ATOM     18  N   LIG d   1      -9.575  76.851 118.482  0.00  0.00     0.381 N 
ATOM     19  H   LIG d   1      -9.751  77.557 117.795  0.00  0.00    -0.090 HD
ATOM     20  H   LIG d   1      -9.448  77.301 119.371  0.00  0.00    -0.090 HD
ATOM     21  H   LIG d   1     -10.347  76.222 118.527  0.00  0.00    -0.090 HD
ENDBRANCH   5  18
BRANCH   3  22
ATOM     22  C   LIG d   1      -7.790  72.701 116.891  0.00  0.00     0.382 C 
ATOM     23  O   LIG d   1      -7.233  72.065 115.965  0.00  0.00    -0.241 OA
ATOM     24  O   LIG d   1      -8.483  72.088 117.726  0.00  0.00    -0.241 OA
ENDBRANCH   3  22
TORSDOF 7
ENDMDL
MODEL 3
REMARK VINA RESULT:      -4.5     11.897     15.454
REMARK  7 active torsions:
REMARK  status: ('A' for Active; 'I' for Inactive)
REMARK    1  A    between atoms: C_2  and  C_3 
REMARK    2  A    between atoms: C_3  and  O_6 
REMARK    3  A    between atoms: C_3  and  C_4 
REMARK    4  A    between atoms: C_7  and  O_6 
REMARK    5  A    between atoms: C_9  and  C_10 
REMARK    6  A    between atoms: N_15  and  C_14 
REMARK    7  A    between atoms: N_20  and  C_19 
REMARK       I    between atoms: C_22  and  N_20 
ROOT
ATOM      1  C   LIG d   1       4.116  85.389 113.521  0.00  0.00     0.161 C 
ATOM      2  C   LIG d   1       4.657  86.595 113.045  0.00  0.00     0.016 C 
ATOM      3  C   LIG d   1       4.631  87.803 113.780  0.00  0.00     0.038 C 
ATOM      4  C   LIG d   1       4.193  87.851 115.112  0.00  0.00     0.028 C 
ATOM      5  C   LIG d   1       3.175  86.769 115.455  0.00  0.00    -0.047 C 
ATOM      6  C   LIG d   1       3.735  85.396 115.016  0.00  0.00     0.091 C 
ENDROOT
BRANCH   1   7
ATOM      7  O   LIG d   1       5.021  84.304 113.240  0.00  0.00    -0.368 OA
BRANCH   7   8
ATOM      8  C   LIG d   1       4.578  83.344 112.249  0.00  0.00     0.119 C 
BRANCH   8   9
ATOM      9  C   LIG d   1       3.162  83.758 111.805  0.00  0.00     0.028 C 
ATOM     10  C   LIG d   1       2.125  82.646 112.040  0.00  0.00     0.006 C 
ENDBRANCH   8   9
BRANCH   8  11
ATOM     11  C   LIG d   1       4.421  81.947 112.858  0.00  0.00     0.028 C 
ATOM     12  C   LIG d   1       5.152  81.797 114.201  0.00  0.00     0.006 C 
ENDBRANCH   8  11
ENDBRANCH   7   8
ENDBRANCH   1   7
BRANCH   6  13
ATOM     13  N   LIG d   1       2.765  84.292 115.238  0.00  0.00    -0.311 N 
ATOM     14  C   LIG d   1       2.773  83.517 116.322  0.00  0.00     0.210 C 
ATOM     15  C   LIG d   1       1.699  82.424 116.342  0.00  0.00     0.109 C 
ATOM     16  O   LIG d   1       3.546  83.651 117.282  0.00  0.00    -0.276 OA
ATOM     17  H   LIG d   1       2.083  84.133 114.523  0.00  0.00     0.149 HD
ENDBRANCH   6  13
BRANCH   5  18
ATOM     18  N   LIG d   1       2.910  86.849 116.904  0.00  0.00     0.381 N 
ATOM     19  H   LIG d   1       2.395  86.044 117.199  0.00  0.00    -0.090 HD
ATOM     20  H   LIG d   1       2.353  87.665 117.088  0.00  0.00    -0.090 HD
ATOM     21  H   LIG d   1       3.769  86.904 117.405  0.00  0.00    -0.090 HD
ENDBRANCH   5  18
BRANCH   3  22
ATOM     22  C   LIG d   1       5.009  88.988 113.168  0.00  0.00     0.382 C 
ATOM     23  O   LIG d   1       6.142  89.086 112.638  0.00  0.00    -0.241 OA
ATOM     24  O   LIG d   1       4.249  89.975 113.178  0.00  0.00    -0.241 OA
ENDBRANCH   3  22
TORSDOF 7
ENDMDL
MODEL 4
REMARK VINA RESULT:      -4.5     13.206     16.710
REMARK  7 active torsions:
REMARK  status: ('A' for Active; 'I' for Inactive)
REMARK    1  A    between atoms: C_2  and  C_3 
REMARK    2  A    between atoms: C_3  and  O_6 
REMARK    3  A    between atoms: C_3  and  C_4 
REMARK    4  A    between atoms: C_7  and  O_6 
REMARK    5  A    between atoms: C_9  and  C_10 
REMARK    6  A    between atoms: N_15  and  C_14 
REMARK    7  A    between atoms: N_20  and  C_19 
REMARK       I    between atoms: C_22  and  N_20 
ROOT
ATOM      1  C   LIG d   1       3.065  88.453 115.040  0.00  0.00     0.161 C 
ATOM      2  C   LIG d   1       3.320  89.735 115.554  0.00  0.00     0.016 C 
ATOM      3  C   LIG d   1       2.849  90.177 116.812  0.00  0.00     0.038 C 
ATOM      4  C   LIG d   1       2.214  89.309 117.712  0.00  0.00     0.028 C 
ATOM      5  C   LIG d   1       1.492  88.151 117.031  0.00  0.00    -0.047 C 
ATOM      6  C   LIG d   1       2.469  87.455 116.055  0.00  0.00     0.091 C 
ENDROOT
BRANCH   1   7
ATOM      7  O   LIG d   1       4.267  87.914 114.454  0.00  0.00    -0.368 OA
BRANCH   7   8
ATOM      8  C   LIG d   1       4.553  88.325 113.095  0.00  0.00     0.119 C 
BRANCH   8   9
ATOM      9  C   LIG d   1       4.347  87.098 112.186  0.00  0.00     0.028 C 
ATOM     10  C   LIG d   1       4.563  85.771 112.935  0.00  0.00     0.006 C 
ENDBRANCH   8   9
BRANCH   8  11
ATOM     11  C   LIG d   1       6.026  88.711 112.928  0.00  0.00     0.028 C 
ATOM     12  C   LIG d   1       6.667  89.195 114.239  0.00  0.00     0.006 C 
ENDBRANCH   8  11
ENDBRANCH   7   8
ENDBRANCH   1   7
BRANCH   6  13
ATOM     13  N   LIG d   1       1.819  86.363 115.285  0.00  0.00    -0.311 N 
ATOM     14  C   LIG d   1       1.851  85.085 115.656  0.00  0.00     0.210 C 
ATOM     15  C   LIG d   1       1.134  84.118 114.708  0.00  0.00     0.109 C 
ATOM     16  O   LIG d   1       2.376  84.664 116.698  0.00  0.00    -0.276 OA
ATOM     17  H   LIG d   1       1.343  86.620 114.442  0.00  0.00     0.149 HD
ENDBRANCH   6  13
BRANCH   5  18
ATOM     18  N   LIG d   1       0.994  87.252 118.089  0.00  0.00     0.381 N 
ATOM     19  H   LIG d   1       0.489  86.492 117.678  0.00  0.00    -0.090 HD
ATOM     20  H   LIG d   1       0.365  87.764 118.681  0.00  0.00    -0.090 HD
ATOM     21  H   LIG d   1       1.757  86.901 118.626  0.00  0.00    -0.090 HD
ENDBRANCH   5  18
BRANCH   3  22
ATOM     22  C   LIG d   1       2.976  91.512 117.163  0.00  0.00     0.382 C 
ATOM     23  O   LIG d   1       4.042  92.127 116.915  0.00  0.00    -0.241 OA
ATOM     24  O   LIG d   1       2.056  92.098 117.764  0.00  0.00    -0.241 OA
ENDBRANCH   3  22
TORSDOF 7
ENDMDL
MODEL 5
REMARK VINA RESULT:      -4.5     11.261     13.638
REMARK  7 active torsions:
REMARK  status: ('A' for Active; 'I' for Inactive)
REMARK    1  A    between atoms: C_2  and  C_3 
REMARK    2  A    between atoms: C_3  and  O_6 
REMARK    3  A    between atoms: C_3  and  C_4 
REMARK    4  A    between atoms: C_7  and  O_6 
REMARK    5  A    between atoms: C_9  and  C_10 
REMARK    6  A    between atoms: N_15  and  C_14 
REMARK    7  A    between atoms: N_20  and  C_19 
REMARK       I    between atoms: C_22  and  N_20 
ROOT
ATOM      1  C   LIG d   1       3.239  83.779 112.830  0.00  0.00     0.161 C 
ATOM      2  C   LIG d   1       2.094  84.463 112.389  0.00  0.00     0.016 C 
ATOM      3  C   LIG d   1       0.798  84.221 112.902  0.00  0.00     0.038 C 
ATOM      4  C   LIG d   1       0.581  83.381 114.004  0.00  0.00     0.028 C 
ATOM      5  C   LIG d   1       1.636  82.290 114.150  0.00  0.00    -0.047 C 
ATOM      6  C   LIG d   1       3.039  82.939 114.109  0.00  0.00     0.091 C 
ENDROOT
BRANCH   1   7
ATOM      7  O   LIG d   1       4.325  84.710 113.007  0.00  0.00    -0.368 OA
BRANCH   7   8
ATOM      8  C   LIG d   1       3.952  86.066 113.354  0.00  0.00     0.119 C 
BRANCH   8   9
ATOM      9  C   LIG d   1       4.580  87.002 112.302  0.00  0.00     0.028 C 
ATOM     10  C   LIG d   1       5.426  88.117 112.940  0.00  0.00     0.006 C 
ENDBRANCH   8   9
BRANCH   8  11
ATOM     11  C   LIG d   1       4.567  86.489 114.691  0.00  0.00     0.028 C 
ATOM     12  C   LIG d   1       3.656  86.179 115.890  0.00  0.00     0.006 C 
ENDBRANCH   8  11
ENDBRANCH   7   8
ENDBRANCH   1   7
BRANCH   6  13
ATOM     13  N   LIG d   1       4.131  81.933 114.161  0.00  0.00    -0.311 N 
ATOM     14  C   LIG d   1       4.718  81.546 115.293  0.00  0.00     0.210 C 
ATOM     15  C   LIG d   1       5.836  80.513 115.121  0.00  0.00     0.109 C 
ATOM     16  O   LIG d   1       4.398  81.938 116.425  0.00  0.00    -0.276 OA
ATOM     17  H   LIG d   1       4.432  81.540 113.291  0.00  0.00     0.149 HD
ENDBRANCH   6  13
BRANCH   5  18
ATOM     18  N   LIG d   1       1.367  81.576 115.413  0.00  0.00     0.381 N 
ATOM     19  H   LIG d   1       2.185  81.587 115.989  0.00  0.00    -0.090 HD
ATOM     20  H   LIG d   1       1.141  80.619 115.203  0.00  0.00    -0.090 HD
ATOM     21  H   LIG d   1       0.608  82.007 115.893  0.00  0.00    -0.090 HD
ENDBRANCH   5  18
BRANCH   3  22
ATOM     22  C   LIG d   1      -0.303  84.794 112.283  0.00  0.00     0.382 C 
ATOM     23  O   LIG d   1      -1.204  84.063 111.805  0.00  0.00    -0.241 OA
ATOM     24  O   LIG d   1      -0.385  86.031 112.159  0.00  0.00    -0.241 OA
ENDBRANCH   3  22
TORSDOF 7
ENDMDL
MODEL 6
REMARK VINA RESULT:      -4.4     14.303     17.266
REMARK  7 active torsions:
REMARK  status: ('A' for Active; 'I' for Inactive)
REMARK    1  A    between atoms: C_2  and  C_3 
REMARK    2  A    between atoms: C_3  and  O_6 
REMARK    3  A    between atoms: C_3  and  C_4 
REMARK    4  A    between atoms: C_7  and  O_6 
REMARK    5  A    between atoms: C_9  and  C_10 
REMARK    6  A    between atoms: N_15  and  C_14 
REMARK    7  A    between atoms: N_20  and  C_19 
REMARK       I    between atoms: C_22  and  N_20 
ROOT
ATOM      1  C   LIG d   1       3.974  88.804 115.552  0.00  0.00     0.161 C 
ATOM      2  C   LIG d   1       3.121  88.287 114.563  0.00  0.00     0.016 C 
ATOM      3  C   LIG d   1       3.507  88.119 113.213  0.00  0.00     0.038 C 
ATOM      4  C   LIG d   1       4.830  88.317 112.790  0.00  0.00     0.028 C 
ATOM      5  C   LIG d   1       5.596  89.319 113.646  0.00  0.00    -0.047 C 
ATOM      6  C   LIG d   1       5.455  88.921 115.133  0.00  0.00     0.091 C 
ENDROOT
BRANCH   1   7
ATOM      7  O   LIG d   1       3.855  88.022 116.757  0.00  0.00    -0.368 OA
BRANCH   7   8
ATOM      8  C   LIG d   1       3.124  86.777 116.639  0.00  0.00     0.119 C 
BRANCH   8   9
ATOM      9  C   LIG d   1       1.908  86.864 117.582  0.00  0.00     0.028 C 
ATOM     10  C   LIG d   1       0.794  85.875 117.195  0.00  0.00     0.006 C 
ENDBRANCH   8   9
BRANCH   8  11
ATOM     11  C   LIG d   1       3.951  85.595 117.152  0.00  0.00     0.028 C 
ATOM     12  C   LIG d   1       5.156  85.277 116.253  0.00  0.00     0.006 C 
ENDBRANCH   8  11
ENDBRANCH   7   8
ENDBRANCH   1   7
BRANCH   6  13
ATOM     13  N   LIG d   1       6.105  89.897 116.046  0.00  0.00    -0.311 N 
ATOM     14  C   LIG d   1       7.225  89.639 116.718  0.00  0.00     0.210 C 
ATOM     15  C   LIG d   1       7.715  90.776 117.619  0.00  0.00     0.109 C 
ATOM     16  O   LIG d   1       7.877  88.588 116.629  0.00  0.00    -0.276 OA
ATOM     17  H   LIG d   1       5.660  90.788 116.153  0.00  0.00     0.149 HD
ENDBRANCH   6  13
BRANCH   5  18
ATOM     18  N   LIG d   1       6.996  89.326 113.180  0.00  0.00     0.381 N 
ATOM     19  H   LIG d   1       7.128  88.608 112.495  0.00  0.00    -0.090 HD
ATOM     20  H   LIG d   1       7.599  89.132 113.960  0.00  0.00    -0.090 HD
ATOM     21  H   LIG d   1       7.221  90.214 112.789  0.00  0.00    -0.090 HD
ENDBRANCH   5  18
BRANCH   3  22
ATOM     22  C   LIG d   1       2.555  87.787 112.262  0.00  0.00     0.382 C 
ATOM     23  O   LIG d   1       1.790  88.670 111.805  0.00  0.00    -0.241 OA
ATOM     24  O   LIG d   1       2.420  86.606 111.888  0.00  0.00    -0.241 OA
ENDBRANCH   3  22
TORSDOF 7
ENDMDL
MODEL 7
REMARK VINA RESULT:      -4.4     12.546     15.723
REMARK  7 active torsions:
REMARK  status: ('A' for Active; 'I' for Inactive)
REMARK    1  A    between atoms: C_2  and  C_3 
REMARK    2  A    between atoms: C_3  and  O_6 
REMARK    3  A    between atoms: C_3  and  C_4 
REMARK    4  A    between atoms: C_7  and  O_6 
REMARK    5  A    between atoms: C_9  and  C_10 
REMARK    6  A    between atoms: N_15  and  C_14 
REMARK    7  A    between atoms: N_20  and  C_19 
REMARK       I    between atoms: C_22  and  N_20 
ROOT
ATOM      1  C   LIG d   1       3.632  85.722 113.850  0.00  0.00     0.161 C 
ATOM      2  C   LIG d   1       3.603  87.094 113.549  0.00  0.00     0.016 C 
ATOM      3  C   LIG d   1       4.394  88.055 114.220  0.00  0.00     0.038 C 
ATOM      4  C   LIG d   1       5.385  87.686 115.142  0.00  0.00     0.028 C 
ATOM      5  C   LIG d   1       5.098  86.362 115.843  0.00  0.00    -0.047 C 
ATOM      6  C   LIG d   1       4.787  85.287 114.776  0.00  0.00     0.091 C 
ENDROOT
BRANCH   1   7
ATOM      7  O   LIG d   1       3.651  84.954 112.631  0.00  0.00    -0.368 OA
BRANCH   7   8
ATOM      8  C   LIG d   1       2.486  84.131 112.378  0.00  0.00     0.119 C 
BRANCH   8   9
ATOM      9  C   LIG d   1       1.480  84.390 113.515  0.00  0.00     0.028 C 
ATOM     10  C   LIG d   1       1.048  83.095 114.223  0.00  0.00     0.006 C 
ENDBRANCH   8   9
BRANCH   8  11
ATOM     11  C   LIG d   1       2.827  82.640 112.470  0.00  0.00     0.028 C 
ATOM     12  C   LIG d   1       4.169  82.294 111.805  0.00  0.00     0.006 C 
ENDBRANCH   8  11
ENDBRANCH   7   8
ENDBRANCH   1   7
BRANCH   6  13
ATOM     13  N   LIG d   1       4.413  83.982 115.380  0.00  0.00    -0.311 N 
ATOM     14  C   LIG d   1       5.180  82.896 115.311  0.00  0.00     0.210 C 
ATOM     15  C   LIG d   1       4.597  81.648 115.983  0.00  0.00     0.109 C 
ATOM     16  O   LIG d   1       6.303  82.855 114.786  0.00  0.00    -0.276 OA
ATOM     17  H   LIG d   1       3.531  83.934 115.852  0.00  0.00     0.149 HD
ENDBRANCH   6  13
BRANCH   5  18
ATOM     18  N   LIG d   1       6.273  86.032 116.671  0.00  0.00     0.381 N 
ATOM     19  H   LIG d   1       5.980  85.798 117.598  0.00  0.00    -0.090 HD
ATOM     20  H   LIG d   1       6.871  86.839 116.723  0.00  0.00    -0.090 HD
ATOM     21  H   LIG d   1       6.770  85.268 116.269  0.00  0.00    -0.090 HD
ENDBRANCH   5  18
BRANCH   3  22
ATOM     22  C   LIG d   1       4.169  89.405 114.000  0.00  0.00     0.382 C 
ATOM     23  O   LIG d   1       3.662  90.112 114.904  0.00  0.00    -0.241 OA
ATOM     24  O   LIG d   1       4.426  89.916 112.893  0.00  0.00    -0.241 OA
ENDBRANCH   3  22
TORSDOF 7
ENDMDL
MODEL 8
REMARK VINA RESULT:      -4.4     13.470     15.646
REMARK  7 active torsions:
REMARK  status: ('A' for Active; 'I' for Inactive)
REMARK    1  A    between atoms: C_2  and  C_3 
REMARK    2  A    between atoms: C_3  and  O_6 
REMARK    3  A    between atoms: C_3  and  C_4 
REMARK    4  A    between atoms: C_7  and  O_6 
REMARK    5  A    between atoms: C_9  and  C_10 
REMARK    6  A    between atoms: N_15  and  C_14 
REMARK    7  A    between atoms: N_20  and  C_19 
REMARK       I    between atoms: C_22  and  N_20 
ROOT
ATOM      1  C   LIG d   1       2.733  87.116 115.441  0.00  0.00     0.161 C 
ATOM      2  C   LIG d   1       1.599  86.796 116.206  0.00  0.00     0.016 C 
ATOM      3  C   LIG d   1       0.947  87.720 117.055  0.00  0.00     0.038 C 
ATOM      4  C   LIG d   1       1.297  89.079 117.080  0.00  0.00     0.028 C 
ATOM      5  C   LIG d   1       2.753  89.336 116.706  0.00  0.00    -0.047 C 
ATOM      6  C   LIG d   1       3.062  88.622 115.370  0.00  0.00     0.091 C 
ENDROOT
BRANCH   1   7
ATOM      7  O   LIG d   1       2.596  86.570 114.114  0.00  0.00    -0.368 OA
BRANCH   7   8
ATOM      8  C   LIG d   1       3.268  85.310 113.870  0.00  0.00     0.119 C 
BRANCH   8   9
ATOM      9  C   LIG d   1       4.443  85.590 112.912  0.00  0.00     0.028 C 
ATOM     10  C   LIG d   1       4.072  86.592 111.806  0.00  0.00     0.006 C 
ENDBRANCH   8   9
BRANCH   8  11
ATOM     11  C   LIG d   1       2.360  84.329 113.123  0.00  0.00     0.028 C 
ATOM     12  C   LIG d   1       0.917  84.838 112.988  0.00  0.00     0.006 C 
ENDBRANCH   8  11
ENDBRANCH   7   8
ENDBRANCH   1   7
BRANCH   6  13
ATOM     13  N   LIG d   1       4.488  88.753 114.974  0.00  0.00    -0.311 N 
ATOM     14  C   LIG d   1       4.887  89.369 113.862  0.00  0.00     0.210 C 
ATOM     15  C   LIG d   1       6.401  89.373 113.633  0.00  0.00     0.109 C 
ATOM     16  O   LIG d   1       4.132  89.940 113.061  0.00  0.00    -0.276 OA
ATOM     17  H   LIG d   1       5.170  88.345 115.583  0.00  0.00     0.149 HD
ENDBRANCH   6  13
BRANCH   5  18
ATOM     18  N   LIG d   1       2.944  90.797 116.638  0.00  0.00     0.381 N 
ATOM     19  H   LIG d   1       3.911  91.018 116.768  0.00  0.00    -0.090 HD
ATOM     20  H   LIG d   1       2.420  91.228 117.379  0.00  0.00    -0.090 HD
ATOM     21  H   LIG d   1       2.632  91.141 115.757  0.00  0.00    -0.090 HD
ENDBRANCH   5  18
BRANCH   3  22
ATOM     22  C   LIG d   1      -0.042  87.279 117.920  0.00  0.00     0.382 C 
ATOM     23  O   LIG d   1      -0.830  88.103 118.444  0.00  0.00    -0.241 OA
ATOM     24  O   LIG d   1      -0.128  86.073 118.219  0.00  0.00    -0.241 OA
ENDBRANCH   3  22
TORSDOF 7
ENDMDL
MODEL 9
REMARK VINA RESULT:      -4.3     10.069     12.782
REMARK  7 active torsions:
REMARK  status: ('A' for Active; 'I' for Inactive)
REMARK    1  A    between atoms: C_2  and  C_3 
REMARK    2  A    between atoms: C_3  and  O_6 
REMARK    3  A    between atoms: C_3  and  C_4 
REMARK    4  A    between atoms: C_7  and  O_6 
REMARK    5  A    between atoms: C_9  and  C_10 
REMARK    6  A    between atoms: N_15  and  C_14 
REMARK    7  A    between atoms: N_20  and  C_19 
REMARK       I    between atoms: C_22  and  N_20 
ROOT
ATOM      1  C   LIG d   1       0.509  85.033 113.298  0.00  0.00     0.161 C 
ATOM      2  C   LIG d   1      -0.457  84.015 113.349  0.00  0.00     0.016 C 
ATOM      3  C   LIG d   1      -0.213  82.688 112.927  0.00  0.00     0.038 C 
ATOM      4  C   LIG d   1       1.069  82.250 112.562  0.00  0.00     0.028 C 
ATOM      5  C   LIG d   1       1.957  83.363 112.015  0.00  0.00    -0.047 C 
ATOM      6  C   LIG d   1       1.945  84.548 113.008  0.00  0.00     0.091 C 
ENDROOT
BRANCH   1   7
ATOM      7  O   LIG d   1       0.476  85.800 114.518  0.00  0.00    -0.368 OA
BRANCH   7   8
ATOM      8  C   LIG d   1       1.587  85.600 115.427  0.00  0.00     0.119 C 
BRANCH   8   9
ATOM      9  C   LIG d   1       1.056  84.809 116.638  0.00  0.00     0.028 C 
ATOM     10  C   LIG d   1       1.674  83.404 116.738  0.00  0.00     0.006 C 
ENDBRANCH   8   9
BRANCH   8  11
ATOM     11  C   LIG d   1       2.086  86.930 115.998  0.00  0.00     0.028 C 
ATOM     12  C   LIG d   1       3.528  86.848 116.525  0.00  0.00     0.006 C 
ENDBRANCH   8  11
ENDBRANCH   7   8
ENDBRANCH   1   7
BRANCH   6  13
ATOM     13  N   LIG d   1       2.721  85.713 112.509  0.00  0.00    -0.311 N 
ATOM     14  C   LIG d   1       4.005  85.917 112.798  0.00  0.00     0.210 C 
ATOM     15  C   LIG d   1       4.609  87.191 112.198  0.00  0.00     0.109 C 
ATOM     16  O   LIG d   1       4.710  85.148 113.468  0.00  0.00    -0.276 OA
ATOM     17  H   LIG d   1       2.235  86.372 111.932  0.00  0.00     0.149 HD
ENDBRANCH   6  13
BRANCH   5  18
ATOM     18  N   LIG d   1       3.303  82.798 111.805  0.00  0.00     0.381 N 
ATOM     19  H   LIG d   1       3.830  82.854 112.654  0.00  0.00    -0.090 HD
ATOM     20  H   LIG d   1       3.777  83.339 111.103  0.00  0.00    -0.090 HD
ATOM     21  H   LIG d   1       3.232  81.848 111.512  0.00  0.00    -0.090 HD
ENDBRANCH   5  18
BRANCH   3  22
ATOM     22  C   LIG d   1      -1.267  81.793 112.827  0.00  0.00     0.382 C 
ATOM     23  O   LIG d   1      -1.039  80.576 112.623  0.00  0.00    -0.241 OA
ATOM     24  O   LIG d   1      -2.444  82.194 112.896  0.00  0.00    -0.241 OA
ENDBRANCH   3  22
TORSDOF 7
ENDMDL
