MODEL 1
REMARK VINA RESULT:      -5.2      0.000      0.000
REMARK  7 active torsions:
REMARK  status: ('A' for Active; 'I' for Inactive)
REMARK    1  A    between atoms: C_2  and  C_3 
REMARK    2  A    between atoms: C_3  and  O_6 
REMARK    3  A    between atoms: C_3  and  C_4 
REMARK    4  A    between atoms: C_7  and  O_6 
REMARK    5  A    between atoms: C_9  and  C_10 
REMARK    6  A    between atoms: N_15  and  C_14 
REMARK    7  A    between atoms: N_20  and  C_19 
REMARK       I    between atoms: C_22  and  N_20 
ROOT
ATOM      1  C   LIG d   1      -2.852  77.026 116.303  0.00  0.00     0.161 C 
ATOM      2  C   LIG d   1      -2.884  78.157 115.471  0.00  0.00     0.016 C 
ATOM      3  C   LIG d   1      -1.828  78.512 114.599  0.00  0.00     0.038 C 
ATOM      4  C   LIG d   1      -0.725  77.671 114.390  0.00  0.00     0.028 C 
ATOM      5  C   LIG d   1      -0.414  76.772 115.581  0.00  0.00    -0.047 C 
ATOM      6  C   LIG d   1      -1.705  76.037 116.007  0.00  0.00     0.091 C 
ENDROOT
BRANCH   1   7
ATOM      7  O   LIG d   1      -4.123  76.349 116.256  0.00  0.00    -0.368 OA
BRANCH   7   8
ATOM      8  C   LIG d   1      -4.762  76.283 114.958  0.00  0.00     0.119 C 
BRANCH   8   9
ATOM      9  C   LIG d   1      -6.225  76.733 115.138  0.00  0.00     0.028 C 
ATOM     10  C   LIG d   1      -6.536  77.152 116.585  0.00  0.00     0.006 C 
ENDBRANCH   8   9
BRANCH   8  11
ATOM     11  C   LIG d   1      -4.842  74.840 114.449  0.00  0.00     0.028 C 
ATOM     12  C   LIG d   1      -5.396  73.867 115.501  0.00  0.00     0.006 C 
ENDBRANCH   8  11
ENDBRANCH   7   8
ENDBRANCH   1   7
BRANCH   6  13
ATOM     13  N   LIG d   1      -1.508  75.200 117.219  0.00  0.00    -0.311 N 
ATOM     14  C   LIG d   1      -0.928  74.002 117.197  0.00  0.00     0.210 C 
ATOM     15  C   LIG d   1      -0.843  73.299 118.555  0.00  0.00     0.109 C 
ATOM     16  O   LIG d   1      -0.447  73.468 116.186  0.00  0.00    -0.276 OA
ATOM     17  H   LIG d   1      -1.841  75.571 118.088  0.00  0.00     0.149 HD
ENDBRANCH   6  13
BRANCH   5  18
ATOM     18  N   LIG d   1       0.667  75.854 115.177  0.00  0.00     0.381 N 
ATOM     19  H   LIG d   1       1.369  75.821 115.890  0.00  0.00    -0.090 HD
ATOM     20  H   LIG d   1       1.091  76.201 114.334  0.00  0.00    -0.090 HD
ATOM     21  H   LIG d   1       0.299  74.941 115.021  0.00  0.00    -0.090 HD
ENDBRANCH   5  18
BRANCH   3  22
ATOM     22  C   LIG d   1      -1.851  79.740 113.956  0.00  0.00     0.382 C 
ATOM     23  O   LIG d   1      -0.818  80.171 113.391  0.00  0.00    -0.241 OA
ATOM     24  O   LIG d   1      -2.880  80.443 113.973  0.00  0.00    -0.241 OA
ENDBRANCH   3  22
TORSDOF 7
ENDMDL
MODEL 2
REMARK VINA RESULT:      -5.2     10.526     12.760
REMARK  7 active torsions:
REMARK  status: ('A' for Active; 'I' for Inactive)
REMARK    1  A    between atoms: C_2  and  C_3 
REMARK    2  A    between atoms: C_3  and  O_6 
REMARK    3  A    between atoms: C_3  and  C_4 
REMARK    4  A    between atoms: C_7  and  O_6 
REMARK    5  A    between atoms: C_9  and  C_10 
REMARK    6  A    between atoms: N_15  and  C_14 
REMARK    7  A    between atoms: N_20  and  C_19 
REMARK       I    between atoms: C_22  and  N_20 
ROOT
ATOM      1  C   LIG d   1       3.685  87.226 115.615  0.00  0.00     0.161 C 
ATOM      2  C   LIG d   1       2.776  86.850 114.612  0.00  0.00     0.016 C 
ATOM      3  C   LIG d   1       3.004  87.070 113.234  0.00  0.00     0.038 C 
ATOM      4  C   LIG d   1       4.232  87.547 112.752  0.00  0.00     0.028 C 
ATOM      5  C   LIG d   1       4.984  88.410 113.760  0.00  0.00    -0.047 C 
ATOM      6  C   LIG d   1       5.078  87.647 115.102  0.00  0.00     0.091 C 
ENDROOT
BRANCH   1   7
ATOM      7  O   LIG d   1       3.808  86.167 116.585  0.00  0.00    -0.368 OA
BRANCH   7   8
ATOM      8  C   LIG d   1       3.518  84.830 116.109  0.00  0.00     0.119 C 
BRANCH   8   9
ATOM      9  C   LIG d   1       2.734  84.103 117.219  0.00  0.00     0.028 C 
ATOM     10  C   LIG d   1       1.408  84.805 117.557  0.00  0.00     0.006 C 
ENDBRANCH   8   9
BRANCH   8  11
ATOM     11  C   LIG d   1       4.801  84.016 115.919  0.00  0.00     0.028 C 
ATOM     12  C   LIG d   1       5.839  84.273 117.023  0.00  0.00     0.006 C 
ENDBRANCH   8  11
ENDBRANCH   7   8
ENDBRANCH   1   7
BRANCH   6  13
ATOM     13  N   LIG d   1       5.726  88.454 116.168  0.00  0.00    -0.311 N 
ATOM     14  C   LIG d   1       6.901  88.143 116.712  0.00  0.00     0.210 C 
ATOM     15  C   LIG d   1       7.379  89.098 117.810  0.00  0.00     0.109 C 
ATOM     16  O   LIG d   1       7.608  87.184 116.366  0.00  0.00    -0.276 OA
ATOM     17  H   LIG d   1       5.235  89.267 116.487  0.00  0.00     0.149 HD
ENDBRANCH   6  13
BRANCH   5  18
ATOM     18  N   LIG d   1       6.304  88.724 113.181  0.00  0.00     0.381 N 
ATOM     19  H   LIG d   1       7.007  88.672 113.890  0.00  0.00    -0.090 HD
ATOM     20  H   LIG d   1       6.286  89.663 112.823  0.00  0.00    -0.090 HD
ATOM     21  H   LIG d   1       6.514  88.085 112.446  0.00  0.00    -0.090 HD
ENDBRANCH   5  18
BRANCH   3  22
ATOM     22  C   LIG d   1       1.981  86.848 112.325  0.00  0.00     0.382 C 
ATOM     23  O   LIG d   1       1.382  87.820 111.805  0.00  0.00    -0.241 OA
ATOM     24  O   LIG d   1       1.619  85.688 112.052  0.00  0.00    -0.241 OA
ENDBRANCH   3  22
TORSDOF 7
ENDMDL
MODEL 3
REMARK VINA RESULT:      -5.1      1.773      4.896
REMARK  7 active torsions:
REMARK  status: ('A' for Active; 'I' for Inactive)
REMARK    1  A    between atoms: C_2  and  C_3 
REMARK    2  A    between atoms: C_3  and  O_6 
REMARK    3  A    between atoms: C_3  and  C_4 
REMARK    4  A    between atoms: C_7  and  O_6 
REMARK    5  A    between atoms: C_9  and  C_10 
REMARK    6  A    between atoms: N_15  and  C_14 
REMARK    7  A    between atoms: N_20  and  C_19 
REMARK       I    between atoms: C_22  and  N_20 
ROOT
ATOM      1  C   LIG d   1      -1.748  75.559 114.935  0.00  0.00     0.161 C 
ATOM      2  C   LIG d   1      -1.510  74.644 115.973  0.00  0.00     0.016 C 
ATOM      3  C   LIG d   1      -0.635  74.903 117.054  0.00  0.00     0.038 C 
ATOM      4  C   LIG d   1      -0.052  76.163 117.249  0.00  0.00     0.028 C 
ATOM      5  C   LIG d   1       0.135  76.952 115.957  0.00  0.00    -0.047 C 
ATOM      6  C   LIG d   1      -1.206  76.982 115.190  0.00  0.00     0.091 C 
ENDROOT
BRANCH   1   7
ATOM      7  O   LIG d   1      -3.158  75.606 114.638  0.00  0.00    -0.368 OA
BRANCH   7   8
ATOM      8  C   LIG d   1      -4.043  75.097 115.666  0.00  0.00     0.119 C 
BRANCH   8   9
ATOM      9  C   LIG d   1      -5.125  74.251 114.969  0.00  0.00     0.028 C 
ATOM     10  C   LIG d   1      -6.099  73.605 115.968  0.00  0.00     0.006 C 
ENDBRANCH   8   9
BRANCH   8  11
ATOM     11  C   LIG d   1      -4.800  76.232 116.362  0.00  0.00     0.028 C 
ATOM     12  C   LIG d   1      -4.085  76.741 117.623  0.00  0.00     0.006 C 
ENDBRANCH   8  11
ENDBRANCH   7   8
ENDBRANCH   1   7
BRANCH   6  13
ATOM     13  N   LIG d   1      -1.091  77.661 113.873  0.00  0.00    -0.311 N 
ATOM     14  C   LIG d   1      -1.816  78.725 113.531  0.00  0.00     0.210 C 
ATOM     15  C   LIG d   1      -1.555  79.258 112.119  0.00  0.00     0.109 C 
ATOM     16  O   LIG d   1      -2.628  79.296 114.274  0.00  0.00    -0.276 OA
ATOM     17  H   LIG d   1      -0.433  77.282 113.220  0.00  0.00     0.149 HD
ENDBRANCH   6  13
BRANCH   5  18
ATOM     18  N   LIG d   1       0.623  78.295 116.321  0.00  0.00     0.381 N 
ATOM     19  H   LIG d   1       0.101  78.646 117.099  0.00  0.00    -0.090 HD
ATOM     20  H   LIG d   1       0.483  78.914 115.542  0.00  0.00    -0.090 HD
ATOM     21  H   LIG d   1       1.591  78.255 116.553  0.00  0.00    -0.090 HD
ENDBRANCH   5  18
BRANCH   3  22
ATOM     22  C   LIG d   1      -0.306  73.881 117.931  0.00  0.00     0.382 C 
ATOM     23  O   LIG d   1       0.783  73.917 118.554  0.00  0.00    -0.241 OA
ATOM     24  O   LIG d   1      -1.063  72.903 118.074  0.00  0.00    -0.241 OA
ENDBRANCH   3  22
TORSDOF 7
ENDMDL
MODEL 4
REMARK VINA RESULT:      -5.0     10.931     13.366
REMARK  7 active torsions:
REMARK  status: ('A' for Active; 'I' for Inactive)
REMARK    1  A    between atoms: C_2  and  C_3 
REMARK    2  A    between atoms: C_3  and  O_6 
REMARK    3  A    between atoms: C_3  and  C_4 
REMARK    4  A    between atoms: C_7  and  O_6 
REMARK    5  A    between atoms: C_9  and  C_10 
REMARK    6  A    between atoms: N_15  and  C_14 
REMARK    7  A    between atoms: N_20  and  C_19 
REMARK       I    between atoms: C_22  and  N_20 
ROOT
ATOM      1  C   LIG d   1       3.559  87.790 115.481  0.00  0.00     0.161 C 
ATOM      2  C   LIG d   1       2.741  87.199 114.504  0.00  0.00     0.016 C 
ATOM      3  C   LIG d   1       3.065  87.176 113.128  0.00  0.00     0.038 C 
ATOM      4  C   LIG d   1       4.310  87.615 112.652  0.00  0.00     0.028 C 
ATOM      5  C   LIG d   1       4.956  88.678 113.534  0.00  0.00    -0.047 C 
ATOM      6  C   LIG d   1       4.972  88.174 114.996  0.00  0.00     0.091 C 
ENDROOT
BRANCH   1   7
ATOM      7  O   LIG d   1       3.642  86.930 116.634  0.00  0.00    -0.368 OA
BRANCH   7   8
ATOM      8  C   LIG d   1       2.862  87.332 117.787  0.00  0.00     0.119 C 
BRANCH   8   9
ATOM      9  C   LIG d   1       1.516  86.586 117.719  0.00  0.00     0.028 C 
ATOM     10  C   LIG d   1       1.694  85.066 117.572  0.00  0.00     0.006 C 
ENDBRANCH   8   9
BRANCH   8  11
ATOM     11  C   LIG d   1       2.505  88.820 117.727  0.00  0.00     0.028 C 
ATOM     12  C   LIG d   1       0.989  89.068 117.691  0.00  0.00     0.006 C 
ENDBRANCH   8  11
ENDBRANCH   7   8
ENDBRANCH   1   7
BRANCH   6  13
ATOM     13  N   LIG d   1       5.511  89.189 115.938  0.00  0.00    -0.311 N 
ATOM     14  C   LIG d   1       6.349  88.895 116.932  0.00  0.00     0.210 C 
ATOM     15  C   LIG d   1       6.767  90.087 117.799  0.00  0.00     0.109 C 
ATOM     16  O   LIG d   1       6.810  87.766 117.157  0.00  0.00    -0.276 OA
ATOM     17  H   LIG d   1       5.213  90.136 115.809  0.00  0.00     0.149 HD
ENDBRANCH   6  13
BRANCH   5  18
ATOM     18  N   LIG d   1       6.305  88.942 112.998  0.00  0.00     0.381 N 
ATOM     19  H   LIG d   1       6.655  89.801 113.373  0.00  0.00    -0.090 HD
ATOM     20  H   LIG d   1       6.245  89.035 112.000  0.00  0.00    -0.090 HD
ATOM     21  H   LIG d   1       6.918  88.194 113.234  0.00  0.00    -0.090 HD
ENDBRANCH   5  18
BRANCH   3  22
ATOM     22  C   LIG d   1       2.122  86.748 112.206  0.00  0.00     0.382 C 
ATOM     23  O   LIG d   1       1.234  87.538 111.805  0.00  0.00    -0.241 OA
ATOM     24  O   LIG d   1       2.120  85.569 111.805  0.00  0.00    -0.241 OA
ENDBRANCH   3  22
TORSDOF 7
ENDMDL
MODEL 5
REMARK VINA RESULT:      -4.9      8.402     10.869
REMARK  7 active torsions:
REMARK  status: ('A' for Active; 'I' for Inactive)
REMARK    1  A    between atoms: C_2  and  C_3 
REMARK    2  A    between atoms: C_3  and  O_6 
REMARK    3  A    between atoms: C_3  and  C_4 
REMARK    4  A    between atoms: C_7  and  O_6 
REMARK    5  A    between atoms: C_9  and  C_10 
REMARK    6  A    between atoms: N_15  and  C_14 
REMARK    7  A    between atoms: N_20  and  C_19 
REMARK       I    between atoms: C_22  and  N_20 
ROOT
ATOM      1  C   LIG d   1       2.880  85.684 114.371  0.00  0.00     0.161 C 
ATOM      2  C   LIG d   1       3.324  86.969 114.018  0.00  0.00     0.016 C 
ATOM      3  C   LIG d   1       4.411  87.617 114.648  0.00  0.00     0.038 C 
ATOM      4  C   LIG d   1       5.230  86.957 115.577  0.00  0.00     0.028 C 
ATOM      5  C   LIG d   1       4.515  85.840 116.328  0.00  0.00    -0.047 C 
ATOM      6  C   LIG d   1       3.830  84.905 115.305  0.00  0.00     0.091 C 
ENDROOT
BRANCH   1   7
ATOM      7  O   LIG d   1       2.608  84.917 113.181  0.00  0.00    -0.368 OA
BRANCH   7   8
ATOM      8  C   LIG d   1       1.306  84.285 113.113  0.00  0.00     0.119 C 
BRANCH   8   9
ATOM      9  C   LIG d   1       1.531  82.792 112.807  0.00  0.00     0.028 C 
ATOM     10  C   LIG d   1       2.970  82.497 112.350  0.00  0.00     0.006 C 
ENDBRANCH   8   9
BRANCH   8  11
ATOM     11  C   LIG d   1       0.488  84.821 111.935  0.00  0.00     0.028 C 
ATOM     12  C   LIG d   1      -0.512  85.912 112.351  0.00  0.00     0.006 C 
ENDBRANCH   8  11
ENDBRANCH   7   8
ENDBRANCH   1   7
BRANCH   6  13
ATOM     13  N   LIG d   1       3.037  83.832 115.960  0.00  0.00    -0.311 N 
ATOM     14  C   LIG d   1       3.522  82.620 116.225  0.00  0.00     0.210 C 
ATOM     15  C   LIG d   1       2.531  81.657 116.886  0.00  0.00     0.109 C 
ATOM     16  O   LIG d   1       4.689  82.262 116.006  0.00  0.00    -0.276 OA
ATOM     17  H   LIG d   1       2.089  84.047 116.201  0.00  0.00     0.149 HD
ENDBRANCH   6  13
BRANCH   5  18
ATOM     18  N   LIG d   1       5.518  85.150 117.161  0.00  0.00     0.381 N 
ATOM     19  H   LIG d   1       5.866  85.775 117.860  0.00  0.00    -0.090 HD
ATOM     20  H   LIG d   1       6.287  84.869 116.578  0.00  0.00    -0.090 HD
ATOM     21  H   LIG d   1       5.111  84.350 117.593  0.00  0.00    -0.090 HD
ENDBRANCH   5  18
BRANCH   3  22
ATOM     22  C   LIG d   1       4.665  88.953 114.378  0.00  0.00     0.382 C 
ATOM     23  O   LIG d   1       4.757  89.776 115.320  0.00  0.00    -0.241 OA
ATOM     24  O   LIG d   1       4.759  89.353 113.202  0.00  0.00    -0.241 OA
ENDBRANCH   3  22
TORSDOF 7
ENDMDL
MODEL 6
REMARK VINA RESULT:      -4.8      8.328     11.037
REMARK  7 active torsions:
REMARK  status: ('A' for Active; 'I' for Inactive)
REMARK    1  A    between atoms: C_2  and  C_3 
REMARK    2  A    between atoms: C_3  and  O_6 
REMARK    3  A    between atoms: C_3  and  C_4 
REMARK    4  A    between atoms: C_7  and  O_6 
REMARK    5  A    between atoms: C_9  and  C_10 
REMARK    6  A    between atoms: N_15  and  C_14 
REMARK    7  A    between atoms: N_20  and  C_19 
REMARK       I    between atoms: C_22  and  N_20 
ROOT
ATOM      1  C   LIG d   1       4.073  85.383 115.367  0.00  0.00     0.161 C 
ATOM      2  C   LIG d   1       4.412  86.746 115.348  0.00  0.00     0.016 C 
ATOM      3  C   LIG d   1       4.123  87.604 114.262  0.00  0.00     0.038 C 
ATOM      4  C   LIG d   1       3.336  87.188 113.177  0.00  0.00     0.028 C 
ATOM      5  C   LIG d   1       3.403  85.687 112.920  0.00  0.00    -0.047 C 
ATOM      6  C   LIG d   1       3.116  84.938 114.242  0.00  0.00     0.091 C 
ENDROOT
BRANCH   1   7
ATOM      7  O   LIG d   1       3.528  85.033 116.655  0.00  0.00    -0.368 OA
BRANCH   7   8
ATOM      8  C   LIG d   1       2.088  85.132 116.787  0.00  0.00     0.119 C 
BRANCH   8   9
ATOM      9  C   LIG d   1       1.788  86.349 117.684  0.00  0.00     0.028 C 
ATOM     10  C   LIG d   1       0.996  87.441 116.947  0.00  0.00     0.006 C 
ENDBRANCH   8   9
BRANCH   8  11
ATOM     11  C   LIG d   1       1.513  83.925 117.533  0.00  0.00     0.028 C 
ATOM     12  C   LIG d   1       2.447  82.705 117.503  0.00  0.00     0.006 C 
ENDBRANCH   8  11
ENDBRANCH   7   8
ENDBRANCH   1   7
BRANCH   6  13
ATOM     13  N   LIG d   1       3.244  83.464 114.098  0.00  0.00    -0.311 N 
ATOM     14  C   LIG d   1       2.230  82.669 113.764  0.00  0.00     0.210 C 
ATOM     15  C   LIG d   1       2.574  81.178 113.690  0.00  0.00     0.109 C 
ATOM     16  O   LIG d   1       1.085  83.060 113.492  0.00  0.00    -0.276 OA
ATOM     17  H   LIG d   1       4.147  83.066 114.270  0.00  0.00     0.149 HD
ENDBRANCH   6  13
BRANCH   5  18
ATOM     18  N   LIG d   1       2.432  85.373 111.855  0.00  0.00     0.381 N 
ATOM     19  H   LIG d   1       2.835  84.723 111.210  0.00  0.00    -0.090 HD
ATOM     20  H   LIG d   1       2.213  86.217 111.356  0.00  0.00    -0.090 HD
ATOM     21  H   LIG d   1       1.603  84.989 112.252  0.00  0.00    -0.090 HD
ENDBRANCH   5  18
BRANCH   3  22
ATOM     22  C   LIG d   1       4.658  88.883 114.235  0.00  0.00     0.382 C 
ATOM     23  O   LIG d   1       4.853  89.503 115.308  0.00  0.00    -0.241 OA
ATOM     24  O   LIG d   1       4.908  89.441 113.150  0.00  0.00    -0.241 OA
ENDBRANCH   3  22
TORSDOF 7
ENDMDL
MODEL 7
REMARK VINA RESULT:      -4.7      2.113      4.730
REMARK  7 active torsions:
REMARK  status: ('A' for Active; 'I' for Inactive)
REMARK    1  A    between atoms: C_2  and  C_3 
REMARK    2  A    between atoms: C_3  and  O_6 
REMARK    3  A    between atoms: C_3  and  C_4 
REMARK    4  A    between atoms: C_7  and  O_6 
REMARK    5  A    between atoms: C_9  and  C_10 
REMARK    6  A    between atoms: N_15  and  C_14 
REMARK    7  A    between atoms: N_20  and  C_19 
REMARK       I    between atoms: C_22  and  N_20 
ROOT
ATOM      1  C   LIG d   1      -1.354  75.785 114.779  0.00  0.00     0.161 C 
ATOM      2  C   LIG d   1      -0.511  76.873 114.498  0.00  0.00     0.016 C 
ATOM      3  C   LIG d   1      -0.558  78.097 115.205  0.00  0.00     0.038 C 
ATOM      4  C   LIG d   1      -1.354  78.263 116.347  0.00  0.00     0.028 C 
ATOM      5  C   LIG d   1      -2.589  77.368 116.361  0.00  0.00    -0.047 C 
ATOM      6  C   LIG d   1      -2.153  75.909 116.093  0.00  0.00     0.091 C 
ENDROOT
BRANCH   1   7
ATOM      7  O   LIG d   1      -0.593  74.561 114.768  0.00  0.00    -0.368 OA
BRANCH   7   8
ATOM      8  C   LIG d   1       0.717  74.620 115.383  0.00  0.00     0.119 C 
BRANCH   8   9
ATOM      9  C   LIG d   1       1.699  73.884 114.450  0.00  0.00     0.028 C 
ATOM     10  C   LIG d   1       1.003  72.816 113.590  0.00  0.00     0.006 C 
ENDBRANCH   8   9
BRANCH   8  11
ATOM     11  C   LIG d   1       0.750  73.842 116.701  0.00  0.00     0.028 C 
ATOM     12  C   LIG d   1       1.368  74.649 117.854  0.00  0.00     0.006 C 
ENDBRANCH   8  11
ENDBRANCH   7   8
ENDBRANCH   1   7
BRANCH   6  13
ATOM     13  N   LIG d   1      -3.309  74.979 116.006  0.00  0.00    -0.311 N 
ATOM     14  C   LIG d   1      -4.196  75.003 115.013  0.00  0.00     0.210 C 
ATOM     15  C   LIG d   1      -5.322  73.971 115.126  0.00  0.00     0.109 C 
ATOM     16  O   LIG d   1      -4.139  75.760 114.032  0.00  0.00    -0.276 OA
ATOM     17  H   LIG d   1      -3.414  74.311 116.745  0.00  0.00     0.149 HD
ENDBRANCH   6  13
BRANCH   5  18
ATOM     18  N   LIG d   1      -3.252  77.543 117.666  0.00  0.00     0.381 N 
ATOM     19  H   LIG d   1      -2.837  78.309 118.157  0.00  0.00    -0.090 HD
ATOM     20  H   LIG d   1      -3.120  76.710 118.213  0.00  0.00    -0.090 HD
ATOM     21  H   LIG d   1      -4.225  77.711 117.535  0.00  0.00    -0.090 HD
ENDBRANCH   5  18
BRANCH   3  22
ATOM     22  C   LIG d   1       0.170  79.184 114.745  0.00  0.00     0.382 C 
ATOM     23  O   LIG d   1       0.222  79.428 113.515  0.00  0.00    -0.241 OA
ATOM     24  O   LIG d   1       0.810  79.898 115.540  0.00  0.00    -0.241 OA
ENDBRANCH   3  22
TORSDOF 7
ENDMDL
MODEL 8
REMARK VINA RESULT:      -4.7     22.248     24.673
REMARK  7 active torsions:
REMARK  status: ('A' for Active; 'I' for Inactive)
REMARK    1  A    between atoms: C_2  and  C_3 
REMARK    2  A    between atoms: C_3  and  O_6 
REMARK    3  A    between atoms: C_3  and  C_4 
REMARK    4  A    between atoms: C_7  and  O_6 
REMARK    5  A    between atoms: C_9  and  C_10 
REMARK    6  A    between atoms: N_15  and  C_14 
REMARK    7  A    between atoms: N_20  and  C_19 
REMARK       I    between atoms: C_22  and  N_20 
ROOT
ATOM      1  C   LIG d   1     -25.810  85.006 114.221  0.00  0.00     0.161 C 
ATOM      2  C   LIG d   1     -24.840  86.017 114.118  0.00  0.00     0.016 C 
ATOM      3  C   LIG d   1     -23.522  85.787 113.661  0.00  0.00     0.038 C 
ATOM      4  C   LIG d   1     -23.127  84.550 113.129  0.00  0.00     0.028 C 
ATOM      5  C   LIG d   1     -23.921  83.372 113.681  0.00  0.00    -0.047 C 
ATOM      6  C   LIG d   1     -25.431  83.674 113.540  0.00  0.00     0.091 C 
ENDROOT
BRANCH   1   7
ATOM      7  O   LIG d   1     -27.071  85.486 113.714  0.00  0.00    -0.368 OA
BRANCH   7   8
ATOM      8  C   LIG d   1     -27.224  85.478 112.274  0.00  0.00     0.119 C 
BRANCH   8   9
ATOM      9  C   LIG d   1     -27.337  86.944 111.812  0.00  0.00     0.028 C 
ATOM     10  C   LIG d   1     -28.137  87.810 112.799  0.00  0.00     0.006 C 
ENDBRANCH   8   9
BRANCH   8  11
ATOM     11  C   LIG d   1     -28.543  84.819 111.857  0.00  0.00     0.028 C 
ATOM     12  C   LIG d   1     -29.337  84.268 113.052  0.00  0.00     0.006 C 
ENDBRANCH   8  11
ENDBRANCH   7   8
ENDBRANCH   1   7
BRANCH   6  13
ATOM     13  N   LIG d   1     -26.280  82.608 114.134  0.00  0.00    -0.311 N 
ATOM     14  C   LIG d   1     -26.787  81.598 113.429  0.00  0.00     0.210 C 
ATOM     15  C   LIG d   1     -27.652  80.620 114.232  0.00  0.00     0.109 C 
ATOM     16  O   LIG d   1     -26.576  81.400 112.223  0.00  0.00    -0.276 OA
ATOM     17  H   LIG d   1     -26.476  82.674 115.113  0.00  0.00     0.149 HD
ENDBRANCH   6  13
BRANCH   5  18
ATOM     18  N   LIG d   1     -23.502  82.166 112.942  0.00  0.00     0.381 N 
ATOM     19  H   LIG d   1     -24.251  81.848 112.360  0.00  0.00    -0.090 HD
ATOM     20  H   LIG d   1     -23.286  81.439 113.602  0.00  0.00    -0.090 HD
ATOM     21  H   LIG d   1     -22.701  82.368 112.386  0.00  0.00    -0.090 HD
ENDBRANCH   5  18
BRANCH   3  22
ATOM     22  C   LIG d   1     -22.572  86.790 113.770  0.00  0.00     0.382 C 
ATOM     23  O   LIG d   1     -22.805  87.800 114.477  0.00  0.00    -0.241 OA
ATOM     24  O   LIG d   1     -21.502  86.719 113.136  0.00  0.00    -0.241 OA
ENDBRANCH   3  22
TORSDOF 7
ENDMDL
MODEL 9
REMARK VINA RESULT:      -4.7     12.982     15.519
REMARK  7 active torsions:
REMARK  status: ('A' for Active; 'I' for Inactive)
REMARK    1  A    between atoms: C_2  and  C_3 
REMARK    2  A    between atoms: C_3  and  O_6 
REMARK    3  A    between atoms: C_3  and  C_4 
REMARK    4  A    between atoms: C_7  and  O_6 
REMARK    5  A    between atoms: C_9  and  C_10 
REMARK    6  A    between atoms: N_15  and  C_14 
REMARK    7  A    between atoms: N_20  and  C_19 
REMARK       I    between atoms: C_22  and  N_20 
ROOT
ATOM      1  C   LIG d   1      11.751  78.564 114.120  0.00  0.00     0.161 C 
ATOM      2  C   LIG d   1      10.448  78.741 114.614  0.00  0.00     0.016 C 
ATOM      3  C   LIG d   1       9.687  77.700 115.195  0.00  0.00     0.038 C 
ATOM      4  C   LIG d   1      10.239  76.438 115.459  0.00  0.00     0.028 C 
ATOM      5  C   LIG d   1      11.382  76.067 114.520  0.00  0.00    -0.047 C 
ATOM      6  C   LIG d   1      12.410  77.222 114.501  0.00  0.00     0.091 C 
ENDROOT
BRANCH   1   7
ATOM      7  O   LIG d   1      12.584  79.666 114.533  0.00  0.00    -0.368 OA
BRANCH   7   8
ATOM      8  C   LIG d   1      13.216  79.536 115.830  0.00  0.00     0.119 C 
BRANCH   8   9
ATOM      9  C   LIG d   1      12.655  80.653 116.732  0.00  0.00     0.028 C 
ATOM     10  C   LIG d   1      13.731  81.269 117.642  0.00  0.00     0.006 C 
ENDBRANCH   8   9
BRANCH   8  11
ATOM     11  C   LIG d   1      14.722  79.801 115.746  0.00  0.00     0.028 C 
ATOM     12  C   LIG d   1      15.178  80.202 114.334  0.00  0.00     0.006 C 
ENDBRANCH   8  11
ENDBRANCH   7   8
ENDBRANCH   1   7
BRANCH   6  13
ATOM     13  N   LIG d   1      13.519  76.977 113.543  0.00  0.00    -0.311 N 
ATOM     14  C   LIG d   1      14.706  76.493 113.904  0.00  0.00     0.210 C 
ATOM     15  C   LIG d   1      15.715  76.336 112.761  0.00  0.00     0.109 C 
ATOM     16  O   LIG d   1      15.009  76.148 115.056  0.00  0.00    -0.276 OA
ATOM     17  H   LIG d   1      13.349  77.200 112.582  0.00  0.00     0.149 HD
ENDBRANCH   6  13
BRANCH   5  18
ATOM     18  N   LIG d   1      11.953  74.792 114.994  0.00  0.00     0.381 N 
ATOM     19  H   LIG d   1      11.223  74.202 115.340  0.00  0.00    -0.090 HD
ATOM     20  H   LIG d   1      12.589  74.982 115.749  0.00  0.00    -0.090 HD
ATOM     21  H   LIG d   1      12.434  74.337 114.250  0.00  0.00    -0.090 HD
ENDBRANCH   5  18
BRANCH   3  22
ATOM     22  C   LIG d   1       8.346  77.906 115.480  0.00  0.00     0.382 C 
ATOM     23  O   LIG d   1       7.464  77.326 114.802  0.00  0.00    -0.241 OA
ATOM     24  O   LIG d   1       8.006  78.699 116.379  0.00  0.00    -0.241 OA
ENDBRANCH   3  22
TORSDOF 7
ENDMDL
