MODEL 1
REMARK VINA RESULT:      -5.2      0.000      0.000
REMARK  7 active torsions:
REMARK  status: ('A' for Active; 'I' for Inactive)
REMARK    1  A    between atoms: C_2  and  C_3 
REMARK    2  A    between atoms: C_3  and  O_6 
REMARK    3  A    between atoms: C_3  and  C_4 
REMARK    4  A    between atoms: C_7  and  O_6 
REMARK    5  A    between atoms: C_9  and  C_10 
REMARK    6  A    between atoms: N_15  and  C_14 
REMARK    7  A    between atoms: N_20  and  C_19 
REMARK       I    between atoms: C_22  and  N_20 
ROOT
ATOM      1  C   LIG d   1       4.558  89.317 116.286  0.00  0.00     0.161 C 
ATOM      2  C   LIG d   1       3.398  89.799 115.657  0.00  0.00     0.016 C 
ATOM      3  C   LIG d   1       3.290  89.985 114.260  0.00  0.00     0.038 C 
ATOM      4  C   LIG d   1       4.291  89.556 113.375  0.00  0.00     0.028 C 
ATOM      5  C   LIG d   1       5.681  89.530 114.000  0.00  0.00    -0.047 C 
ATOM      6  C   LIG d   1       5.620  88.738 115.327  0.00  0.00     0.091 C 
ENDROOT
BRANCH   1   7
ATOM      7  O   LIG d   1       4.203  88.342 117.286  0.00  0.00    -0.368 OA
BRANCH   7   8
ATOM      8  C   LIG d   1       2.999  87.576 117.031  0.00  0.00     0.119 C 
BRANCH   8   9
ATOM      9  C   LIG d   1       2.245  87.440 118.367  0.00  0.00     0.028 C 
ATOM     10  C   LIG d   1       1.293  86.232 118.384  0.00  0.00     0.006 C 
ENDBRANCH   8   9
BRANCH   8  11
ATOM     11  C   LIG d   1       3.330  86.143 116.604  0.00  0.00     0.028 C 
ATOM     12  C   LIG d   1       3.253  85.941 115.083  0.00  0.00     0.006 C 
ENDBRANCH   8  11
ENDBRANCH   7   8
ENDBRANCH   1   7
BRANCH   6  13
ATOM     13  N   LIG d   1       6.921  88.735 116.046  0.00  0.00    -0.311 N 
ATOM     14  C   LIG d   1       7.409  87.667 116.674  0.00  0.00     0.210 C 
ATOM     15  C   LIG d   1       8.757  87.885 117.369  0.00  0.00     0.109 C 
ATOM     16  O   LIG d   1       6.869  86.551 116.695  0.00  0.00    -0.276 OA
ATOM     17  H   LIG d   1       7.440  89.592 116.053  0.00  0.00     0.149 HD
ENDBRANCH   6  13
BRANCH   5  18
ATOM     18  N   LIG d   1       6.602  88.934 113.014  0.00  0.00     0.381 N 
ATOM     19  H   LIG d   1       7.052  89.658 112.490  0.00  0.00    -0.090 HD
ATOM     20  H   LIG d   1       6.072  88.365 112.377  0.00  0.00    -0.090 HD
ATOM     21  H   LIG d   1       7.285  88.377 113.478  0.00  0.00    -0.090 HD
ENDBRANCH   5  18
BRANCH   3  22
ATOM     22  C   LIG d   1       2.188  90.644 113.737  0.00  0.00     0.382 C 
ATOM     23  O   LIG d   1       2.265  91.206 112.618  0.00  0.00    -0.241 OA
ATOM     24  O   LIG d   1       1.130  90.722 114.391  0.00  0.00    -0.241 OA
ENDBRANCH   3  22
TORSDOF 7
ENDMDL
MODEL 2
REMARK VINA RESULT:      -5.1     29.174     31.678
REMARK  7 active torsions:
REMARK  status: ('A' for Active; 'I' for Inactive)
REMARK    1  A    between atoms: C_2  and  C_3 
REMARK    2  A    between atoms: C_3  and  O_6 
REMARK    3  A    between atoms: C_3  and  C_4 
REMARK    4  A    between atoms: C_7  and  O_6 
REMARK    5  A    between atoms: C_9  and  C_10 
REMARK    6  A    between atoms: N_15  and  C_14 
REMARK    7  A    between atoms: N_20  and  C_19 
REMARK       I    between atoms: C_22  and  N_20 
ROOT
ATOM      1  C   LIG d   1     -16.711  65.724 115.195  0.00  0.00     0.161 C 
ATOM      2  C   LIG d   1     -15.447  66.336 115.211  0.00  0.00     0.016 C 
ATOM      3  C   LIG d   1     -15.121  67.427 116.049  0.00  0.00     0.038 C 
ATOM      4  C   LIG d   1     -15.998  67.886 117.043  0.00  0.00     0.028 C 
ATOM      5  C   LIG d   1     -17.466  67.629 116.721  0.00  0.00    -0.047 C 
ATOM      6  C   LIG d   1     -17.645  66.139 116.350  0.00  0.00     0.091 C 
ENDROOT
BRANCH   1   7
ATOM      7  O   LIG d   1     -16.560  64.291 115.163  0.00  0.00    -0.368 OA
BRANCH   7   8
ATOM      8  C   LIG d   1     -16.909  63.641 113.916  0.00  0.00     0.119 C 
BRANCH   8   9
ATOM      9  C   LIG d   1     -17.479  64.720 112.975  0.00  0.00     0.028 C 
ATOM     10  C   LIG d   1     -18.924  64.418 112.542  0.00  0.00     0.006 C 
ENDBRANCH   8   9
BRANCH   8  11
ATOM     11  C   LIG d   1     -18.044  62.632 114.111  0.00  0.00     0.028 C 
ATOM     12  C   LIG d   1     -17.547  61.180 114.177  0.00  0.00     0.006 C 
ENDBRANCH   8  11
ENDBRANCH   7   8
ENDBRANCH   1   7
BRANCH   6  13
ATOM     13  N   LIG d   1     -19.038  65.821 115.939  0.00  0.00    -0.311 N 
ATOM     14  C   LIG d   1     -19.754  64.836 116.478  0.00  0.00     0.210 C 
ATOM     15  C   LIG d   1     -21.161  64.665 115.895  0.00  0.00     0.109 C 
ATOM     16  O   LIG d   1     -19.370  64.107 117.405  0.00  0.00    -0.276 OA
ATOM     17  H   LIG d   1     -19.439  66.383 115.214  0.00  0.00     0.149 HD
ENDBRANCH   6  13
BRANCH   5  18
ATOM     18  N   LIG d   1     -18.258  68.031 117.899  0.00  0.00     0.381 N 
ATOM     19  H   LIG d   1     -18.415  67.238 118.488  0.00  0.00    -0.090 HD
ATOM     20  H   LIG d   1     -19.150  68.375 117.589  0.00  0.00    -0.090 HD
ATOM     21  H   LIG d   1     -17.778  68.742 118.406  0.00  0.00    -0.090 HD
ENDBRANCH   5  18
BRANCH   3  22
ATOM     22  C   LIG d   1     -13.920  68.096 115.870  0.00  0.00     0.382 C 
ATOM     23  O   LIG d   1     -13.815  68.967 114.973  0.00  0.00    -0.241 OA
ATOM     24  O   LIG d   1     -12.927  67.809 116.565  0.00  0.00    -0.241 OA
ENDBRANCH   3  22
TORSDOF 7
ENDMDL
MODEL 3
REMARK VINA RESULT:      -4.9     13.926     16.147
REMARK  7 active torsions:
REMARK  status: ('A' for Active; 'I' for Inactive)
REMARK    1  A    between atoms: C_2  and  C_3 
REMARK    2  A    between atoms: C_3  and  O_6 
REMARK    3  A    between atoms: C_3  and  C_4 
REMARK    4  A    between atoms: C_7  and  O_6 
REMARK    5  A    between atoms: C_9  and  C_10 
REMARK    6  A    between atoms: N_15  and  C_14 
REMARK    7  A    between atoms: N_20  and  C_19 
REMARK       I    between atoms: C_22  and  N_20 
ROOT
ATOM      1  C   LIG d   1      -3.458  75.475 117.012  0.00  0.00     0.161 C 
ATOM      2  C   LIG d   1      -4.314  74.402 117.312  0.00  0.00     0.016 C 
ATOM      3  C   LIG d   1      -5.231  73.856 116.385  0.00  0.00     0.038 C 
ATOM      4  C   LIG d   1      -5.248  74.249 115.039  0.00  0.00     0.028 C 
ATOM      5  C   LIG d   1      -4.753  75.675 114.819  0.00  0.00    -0.047 C 
ATOM      6  C   LIG d   1      -3.383  75.844 115.516  0.00  0.00     0.091 C 
ENDROOT
BRANCH   1   7
ATOM      7  O   LIG d   1      -2.139  75.206 117.528  0.00  0.00    -0.368 OA
BRANCH   7   8
ATOM      8  C   LIG d   1      -1.535  73.956 117.114  0.00  0.00     0.119 C 
BRANCH   8   9
ATOM      9  C   LIG d   1      -1.018  73.249 118.382  0.00  0.00     0.028 C 
ATOM     10  C   LIG d   1       0.513  73.321 118.510  0.00  0.00     0.006 C 
ENDBRANCH   8   9
BRANCH   8  11
ATOM     11  C   LIG d   1      -0.294  74.196 116.249  0.00  0.00     0.028 C 
ATOM     12  C   LIG d   1      -0.442  73.635 114.826  0.00  0.00     0.006 C 
ENDBRANCH   8  11
ENDBRANCH   7   8
ENDBRANCH   1   7
BRANCH   6  13
ATOM     13  N   LIG d   1      -2.867  77.234 115.421  0.00  0.00    -0.311 N 
ATOM     14  C   LIG d   1      -2.040  77.645 114.460  0.00  0.00     0.210 C 
ATOM     15  C   LIG d   1      -1.613  79.112 114.559  0.00  0.00     0.109 C 
ATOM     16  O   LIG d   1      -1.647  76.942 113.518  0.00  0.00    -0.276 OA
ATOM     17  H   LIG d   1      -3.161  77.879 116.128  0.00  0.00     0.149 HD
ENDBRANCH   6  13
BRANCH   5  18
ATOM     18  N   LIG d   1      -4.693  75.906 113.363  0.00  0.00     0.381 N 
ATOM     19  H   LIG d   1      -4.795  76.882 113.170  0.00  0.00    -0.090 HD
ATOM     20  H   LIG d   1      -5.453  75.416 112.924  0.00  0.00    -0.090 HD
ATOM     21  H   LIG d   1      -3.824  75.578 113.001  0.00  0.00    -0.090 HD
ENDBRANCH   5  18
BRANCH   3  22
ATOM     22  C   LIG d   1      -6.172  72.932 116.813  0.00  0.00     0.382 C 
ATOM     23  O   LIG d   1      -6.619  72.075 116.013  0.00  0.00    -0.241 OA
ATOM     24  O   LIG d   1      -6.614  72.972 117.977  0.00  0.00    -0.241 OA
ENDBRANCH   3  22
TORSDOF 7
ENDMDL
MODEL 4
REMARK VINA RESULT:      -4.9     16.117     18.185
REMARK  7 active torsions:
REMARK  status: ('A' for Active; 'I' for Inactive)
REMARK    1  A    between atoms: C_2  and  C_3 
REMARK    2  A    between atoms: C_3  and  O_6 
REMARK    3  A    between atoms: C_3  and  C_4 
REMARK    4  A    between atoms: C_7  and  O_6 
REMARK    5  A    between atoms: C_9  and  C_10 
REMARK    6  A    between atoms: N_15  and  C_14 
REMARK    7  A    between atoms: N_20  and  C_19 
REMARK       I    between atoms: C_22  and  N_20 
ROOT
ATOM      1  C   LIG d   1      -7.201  76.051 117.549  0.00  0.00     0.161 C 
ATOM      2  C   LIG d   1      -7.616  77.357 117.860  0.00  0.00     0.016 C 
ATOM      3  C   LIG d   1      -8.954  77.696 118.166  0.00  0.00     0.038 C 
ATOM      4  C   LIG d   1      -9.947  76.719 118.332  0.00  0.00     0.028 C 
ATOM      5  C   LIG d   1      -9.684  75.446 117.534  0.00  0.00    -0.047 C 
ATOM      6  C   LIG d   1      -8.249  74.954 117.833  0.00  0.00     0.091 C 
ENDROOT
BRANCH   1   7
ATOM      7  O   LIG d   1      -5.968  75.754 118.233  0.00  0.00    -0.368 OA
BRANCH   7   8
ATOM      8  C   LIG d   1      -4.940  75.108 117.442  0.00  0.00     0.119 C 
BRANCH   8   9
ATOM      9  C   LIG d   1      -3.576  75.604 117.961  0.00  0.00     0.028 C 
ATOM     10  C   LIG d   1      -2.585  74.453 118.200  0.00  0.00     0.006 C 
ENDBRANCH   8   9
BRANCH   8  11
ATOM     11  C   LIG d   1      -5.002  75.552 115.977  0.00  0.00     0.028 C 
ATOM     12  C   LIG d   1      -5.001  74.370 114.996  0.00  0.00     0.006 C 
ENDBRANCH   8  11
ENDBRANCH   7   8
ENDBRANCH   1   7
BRANCH   6  13
ATOM     13  N   LIG d   1      -7.880  73.760 117.028  0.00  0.00    -0.311 N 
ATOM     14  C   LIG d   1      -8.025  72.510 117.463  0.00  0.00     0.210 C 
ATOM     15  C   LIG d   1      -7.564  71.427 116.483  0.00  0.00     0.109 C 
ATOM     16  O   LIG d   1      -8.523  72.194 118.554  0.00  0.00    -0.276 OA
ATOM     17  H   LIG d   1      -7.498  73.924 116.117  0.00  0.00     0.149 HD
ENDBRANCH   6  13
BRANCH   5  18
ATOM     18  N   LIG d   1     -10.720  74.464 117.905  0.00  0.00     0.381 N 
ATOM     19  H   LIG d   1     -11.350  74.330 117.139  0.00  0.00    -0.090 HD
ATOM     20  H   LIG d   1     -11.244  74.823 118.684  0.00  0.00    -0.090 HD
ATOM     21  H   LIG d   1     -10.296  73.597 118.152  0.00  0.00    -0.090 HD
ENDBRANCH   5  18
BRANCH   3  22
ATOM     22  C   LIG d   1      -9.318  79.029 118.272  0.00  0.00     0.382 C 
ATOM     23  O   LIG d   1     -10.521  79.339 118.449  0.00  0.00    -0.241 OA
ATOM     24  O   LIG d   1      -8.465  79.929 118.148  0.00  0.00    -0.241 OA
ENDBRANCH   3  22
TORSDOF 7
ENDMDL
MODEL 5
REMARK VINA RESULT:      -4.8     27.689     30.131
REMARK  7 active torsions:
REMARK  status: ('A' for Active; 'I' for Inactive)
REMARK    1  A    between atoms: C_2  and  C_3 
REMARK    2  A    between atoms: C_3  and  O_6 
REMARK    3  A    between atoms: C_3  and  C_4 
REMARK    4  A    between atoms: C_7  and  O_6 
REMARK    5  A    between atoms: C_9  and  C_10 
REMARK    6  A    between atoms: N_15  and  C_14 
REMARK    7  A    between atoms: N_20  and  C_19 
REMARK       I    between atoms: C_22  and  N_20 
ROOT
ATOM      1  C   LIG d   1     -25.287  85.116 114.346  0.00  0.00     0.161 C 
ATOM      2  C   LIG d   1     -24.299  86.111 114.259  0.00  0.00     0.016 C 
ATOM      3  C   LIG d   1     -23.099  85.954 113.528  0.00  0.00     0.038 C 
ATOM      4  C   LIG d   1     -22.874  84.842 112.703  0.00  0.00     0.028 C 
ATOM      5  C   LIG d   1     -23.618  83.590 113.157  0.00  0.00    -0.047 C 
ATOM      6  C   LIG d   1     -25.109  83.940 113.362  0.00  0.00     0.091 C 
ENDROOT
BRANCH   1   7
ATOM      7  O   LIG d   1     -26.592  85.709 114.187  0.00  0.00    -0.368 OA
BRANCH   7   8
ATOM      8  C   LIG d   1     -26.618  87.063 113.673  0.00  0.00     0.119 C 
BRANCH   8   9
ATOM      9  C   LIG d   1     -27.414  87.922 114.675  0.00  0.00     0.028 C 
ATOM     10  C   LIG d   1     -28.381  88.894 113.976  0.00  0.00     0.006 C 
ENDBRANCH   8   9
BRANCH   8  11
ATOM     11  C   LIG d   1     -27.398  87.146 112.358  0.00  0.00     0.028 C 
ATOM     12  C   LIG d   1     -27.868  85.771 111.857  0.00  0.00     0.006 C 
ENDBRANCH   8  11
ENDBRANCH   7   8
ENDBRANCH   1   7
BRANCH   6  13
ATOM     13  N   LIG d   1     -25.894  82.792 113.887  0.00  0.00    -0.311 N 
ATOM     14  C   LIG d   1     -26.626  81.991 113.116  0.00  0.00     0.210 C 
ATOM     15  C   LIG d   1     -27.372  80.880 113.862  0.00  0.00     0.109 C 
ATOM     16  O   LIG d   1     -26.703  82.075 111.881  0.00  0.00    -0.276 OA
ATOM     17  H   LIG d   1     -25.863  82.632 114.875  0.00  0.00     0.149 HD
ENDBRANCH   6  13
BRANCH   5  18
ATOM     18  N   LIG d   1     -23.404  82.549 112.134  0.00  0.00     0.381 N 
ATOM     19  H   LIG d   1     -23.190  81.678 112.577  0.00  0.00    -0.090 HD
ATOM     20  H   LIG d   1     -22.621  82.812 111.561  0.00  0.00    -0.090 HD
ATOM     21  H   LIG d   1     -24.219  82.452 111.570  0.00  0.00    -0.090 HD
ENDBRANCH   5  18
BRANCH   3  22
ATOM     22  C   LIG d   1     -22.092  86.899 113.649  0.00  0.00     0.382 C 
ATOM     23  O   LIG d   1     -22.241  87.879 114.418  0.00  0.00    -0.241 OA
ATOM     24  O   LIG d   1     -21.055  86.808 112.965  0.00  0.00    -0.241 OA
ENDBRANCH   3  22
TORSDOF 7
ENDMDL
MODEL 6
REMARK VINA RESULT:      -4.7     14.973     17.452
REMARK  7 active torsions:
REMARK  status: ('A' for Active; 'I' for Inactive)
REMARK    1  A    between atoms: C_2  and  C_3 
REMARK    2  A    between atoms: C_3  and  O_6 
REMARK    3  A    between atoms: C_3  and  C_4 
REMARK    4  A    between atoms: C_7  and  O_6 
REMARK    5  A    between atoms: C_9  and  C_10 
REMARK    6  A    between atoms: N_15  and  C_14 
REMARK    7  A    between atoms: N_20  and  C_19 
REMARK       I    between atoms: C_22  and  N_20 
ROOT
ATOM      1  C   LIG d   1      -6.342  75.626 117.099  0.00  0.00     0.161 C 
ATOM      2  C   LIG d   1      -7.727  75.717 117.317  0.00  0.00     0.016 C 
ATOM      3  C   LIG d   1      -8.555  74.592 117.536  0.00  0.00     0.038 C 
ATOM      4  C   LIG d   1      -8.027  73.304 117.705  0.00  0.00     0.028 C 
ATOM      5  C   LIG d   1      -6.695  73.097 116.992  0.00  0.00    -0.047 C 
ATOM      6  C   LIG d   1      -5.731  74.239 117.389  0.00  0.00     0.091 C 
ENDROOT
BRANCH   1   7
ATOM      7  O   LIG d   1      -5.661  76.643 117.859  0.00  0.00    -0.368 OA
BRANCH   7   8
ATOM      8  C   LIG d   1      -5.377  77.879 117.159  0.00  0.00     0.119 C 
BRANCH   8   9
ATOM      9  C   LIG d   1      -3.846  78.000 117.035  0.00  0.00     0.028 C 
ATOM     10  C   LIG d   1      -3.343  77.667 115.621  0.00  0.00     0.006 C 
ENDBRANCH   8   9
BRANCH   8  11
ATOM     11  C   LIG d   1      -5.815  79.097 117.979  0.00  0.00     0.028 C 
ATOM     12  C   LIG d   1      -7.331  79.135 118.225  0.00  0.00     0.006 C 
ENDBRANCH   8  11
ENDBRANCH   7   8
ENDBRANCH   1   7
BRANCH   6  13
ATOM     13  N   LIG d   1      -4.432  74.160 116.671  0.00  0.00    -0.311 N 
ATOM     14  C   LIG d   1      -3.255  74.357 117.262  0.00  0.00     0.210 C 
ATOM     15  C   LIG d   1      -2.040  74.249 116.335  0.00  0.00     0.109 C 
ATOM     16  O   LIG d   1      -3.099  74.579 118.472  0.00  0.00    -0.276 OA
ATOM     17  H   LIG d   1      -4.464  73.954 115.692  0.00  0.00     0.149 HD
ENDBRANCH   6  13
BRANCH   5  18
ATOM     18  N   LIG d   1      -6.192  71.761 117.364  0.00  0.00     0.381 N 
ATOM     19  H   LIG d   1      -5.608  71.404 116.635  0.00  0.00    -0.090 HD
ATOM     20  H   LIG d   1      -6.974  71.140 117.476  0.00  0.00    -0.090 HD
ATOM     21  H   LIG d   1      -5.677  71.816 118.215  0.00  0.00    -0.090 HD
ENDBRANCH   5  18
BRANCH   3  22
ATOM     22  C   LIG d   1      -9.933  74.746 117.550  0.00  0.00     0.382 C 
ATOM     23  O   LIG d   1     -10.463  75.710 116.946  0.00  0.00    -0.241 OA
ATOM     24  O   LIG d   1     -10.651  73.958 118.196  0.00  0.00    -0.241 OA
ENDBRANCH   3  22
TORSDOF 7
ENDMDL
MODEL 7
REMARK VINA RESULT:      -4.7     12.842     15.092
REMARK  7 active torsions:
REMARK  status: ('A' for Active; 'I' for Inactive)
REMARK    1  A    between atoms: C_2  and  C_3 
REMARK    2  A    between atoms: C_3  and  O_6 
REMARK    3  A    between atoms: C_3  and  C_4 
REMARK    4  A    between atoms: C_7  and  O_6 
REMARK    5  A    between atoms: C_9  and  C_10 
REMARK    6  A    between atoms: N_15  and  C_14 
REMARK    7  A    between atoms: N_20  and  C_19 
REMARK       I    between atoms: C_22  and  N_20 
ROOT
ATOM      1  C   LIG d   1      -3.001  75.384 114.549  0.00  0.00     0.161 C 
ATOM      2  C   LIG d   1      -4.115  76.007 115.136  0.00  0.00     0.016 C 
ATOM      3  C   LIG d   1      -4.489  75.821 116.487  0.00  0.00     0.038 C 
ATOM      4  C   LIG d   1      -3.681  75.113 117.389  0.00  0.00     0.028 C 
ATOM      5  C   LIG d   1      -2.814  74.050 116.721  0.00  0.00    -0.047 C 
ATOM      6  C   LIG d   1      -2.045  74.697 115.546  0.00  0.00     0.091 C 
ENDROOT
BRANCH   1   7
ATOM      7  O   LIG d   1      -2.281  76.334 113.738  0.00  0.00    -0.368 OA
BRANCH   7   8
ATOM      8  C   LIG d   1      -2.449  77.729 114.090  0.00  0.00     0.119 C 
BRANCH   8   9
ATOM      9  C   LIG d   1      -2.557  78.528 112.777  0.00  0.00     0.028 C 
ATOM     10  C   LIG d   1      -2.429  80.044 113.001  0.00  0.00     0.006 C 
ENDBRANCH   8   9
BRANCH   8  11
ATOM     11  C   LIG d   1      -1.207  78.279 114.798  0.00  0.00     0.028 C 
ATOM     12  C   LIG d   1      -1.384  78.378 116.322  0.00  0.00     0.006 C 
ENDBRANCH   8  11
ENDBRANCH   7   8
ENDBRANCH   1   7
BRANCH   6  13
ATOM     13  N   LIG d   1      -1.237  73.708 114.786  0.00  0.00    -0.311 N 
ATOM     14  C   LIG d   1       0.060  73.866 114.525  0.00  0.00     0.210 C 
ATOM     15  C   LIG d   1       0.697  72.737 113.709  0.00  0.00     0.109 C 
ATOM     16  O   LIG d   1       0.749  74.818 114.918  0.00  0.00    -0.276 OA
ATOM     17  H   LIG d   1      -1.710  72.890 114.455  0.00  0.00     0.149 HD
ENDBRANCH   6  13
BRANCH   5  18
ATOM     18  N   LIG d   1      -1.925  73.486 117.754  0.00  0.00     0.381 N 
ATOM     19  H   LIG d   1      -1.123  73.073 117.322  0.00  0.00    -0.090 HD
ATOM     20  H   LIG d   1      -2.421  72.767 118.252  0.00  0.00    -0.090 HD
ATOM     21  H   LIG d   1      -1.640  74.201 118.386  0.00  0.00    -0.090 HD
ENDBRANCH   5  18
BRANCH   3  22
ATOM     22  C   LIG d   1      -5.704  76.314 116.937  0.00  0.00     0.382 C 
ATOM     23  O   LIG d   1      -6.240  77.287 116.356  0.00  0.00    -0.241 OA
ATOM     24  O   LIG d   1      -6.249  75.825 117.945  0.00  0.00    -0.241 OA
ENDBRANCH   3  22
TORSDOF 7
ENDMDL
MODEL 8
REMARK VINA RESULT:      -4.6     27.101     29.563
REMARK  7 active torsions:
REMARK  status: ('A' for Active; 'I' for Inactive)
REMARK    1  A    between atoms: C_2  and  C_3 
REMARK    2  A    between atoms: C_3  and  O_6 
REMARK    3  A    between atoms: C_3  and  C_4 
REMARK    4  A    between atoms: C_7  and  O_6 
REMARK    5  A    between atoms: C_9  and  C_10 
REMARK    6  A    between atoms: N_15  and  C_14 
REMARK    7  A    between atoms: N_20  and  C_19 
REMARK       I    between atoms: C_22  and  N_20 
ROOT
ATOM      1  C   LIG d   1     -23.788  83.545 113.592  0.00  0.00     0.161 C 
ATOM      2  C   LIG d   1     -22.865  84.583 113.801  0.00  0.00     0.016 C 
ATOM      3  C   LIG d   1     -23.168  85.948 113.590  0.00  0.00     0.038 C 
ATOM      4  C   LIG d   1     -24.469  86.382 113.299  0.00  0.00     0.028 C 
ATOM      5  C   LIG d   1     -25.313  85.331 112.585  0.00  0.00    -0.047 C 
ATOM      6  C   LIG d   1     -25.245  84.008 113.381  0.00  0.00     0.091 C 
ENDROOT
BRANCH   1   7
ATOM      7  O   LIG d   1     -23.715  82.600 114.677  0.00  0.00    -0.368 OA
BRANCH   7   8
ATOM      8  C   LIG d   1     -24.561  82.876 115.821  0.00  0.00     0.119 C 
BRANCH   8   9
ATOM      9  C   LIG d   1     -23.637  83.141 117.026  0.00  0.00     0.028 C 
ATOM     10  C   LIG d   1     -22.279  82.432 116.892  0.00  0.00     0.006 C 
ENDBRANCH   8   9
BRANCH   8  11
ATOM     11  C   LIG d   1     -25.392  81.649 116.209  0.00  0.00     0.028 C 
ATOM     12  C   LIG d   1     -25.128  80.439 115.299  0.00  0.00     0.006 C 
ENDBRANCH   8  11
ENDBRANCH   7   8
ENDBRANCH   1   7
BRANCH   6  13
ATOM     13  N   LIG d   1     -25.975  82.903 112.707  0.00  0.00    -0.311 N 
ATOM     14  C   LIG d   1     -27.225  82.558 113.011  0.00  0.00     0.210 C 
ATOM     15  C   LIG d   1     -27.783  81.377 112.209  0.00  0.00     0.109 C 
ATOM     16  O   LIG d   1     -27.936  83.137 113.846  0.00  0.00    -0.276 OA
ATOM     17  H   LIG d   1     -25.484  82.399 111.995  0.00  0.00     0.149 HD
ENDBRANCH   6  13
BRANCH   5  18
ATOM     18  N   LIG d   1     -26.683  85.865 112.467  0.00  0.00     0.381 N 
ATOM     19  H   LIG d   1     -26.995  85.790 111.519  0.00  0.00    -0.090 HD
ATOM     20  H   LIG d   1     -26.676  86.838 112.720  0.00  0.00    -0.090 HD
ATOM     21  H   LIG d   1     -27.298  85.362 113.068  0.00  0.00    -0.090 HD
ENDBRANCH   5  18
BRANCH   3  22
ATOM     22  C   LIG d   1     -22.152  86.891 113.631  0.00  0.00     0.382 C 
ATOM     23  O   LIG d   1     -22.258  87.893 114.379  0.00  0.00    -0.241 OA
ATOM     24  O   LIG d   1     -21.152  86.775 112.898  0.00  0.00    -0.241 OA
ENDBRANCH   3  22
TORSDOF 7
ENDMDL
MODEL 9
REMARK VINA RESULT:      -4.6     27.131     29.375
REMARK  7 active torsions:
REMARK  status: ('A' for Active; 'I' for Inactive)
REMARK    1  A    between atoms: C_2  and  C_3 
REMARK    2  A    between atoms: C_3  and  O_6 
REMARK    3  A    between atoms: C_3  and  C_4 
REMARK    4  A    between atoms: C_7  and  O_6 
REMARK    5  A    between atoms: C_9  and  C_10 
REMARK    6  A    between atoms: N_15  and  C_14 
REMARK    7  A    between atoms: N_20  and  C_19 
REMARK       I    between atoms: C_22  and  N_20 
ROOT
ATOM      1  C   LIG d   1     -25.006  84.826 115.362  0.00  0.00     0.161 C 
ATOM      2  C   LIG d   1     -23.774  84.809 114.686  0.00  0.00     0.016 C 
ATOM      3  C   LIG d   1     -23.296  85.890 113.912  0.00  0.00     0.038 C 
ATOM      4  C   LIG d   1     -23.953  87.129 113.883  0.00  0.00     0.028 C 
ATOM      5  C   LIG d   1     -25.453  87.026 114.141  0.00  0.00    -0.047 C 
ATOM      6  C   LIG d   1     -25.685  86.210 115.433  0.00  0.00     0.091 C 
ENDROOT
BRANCH   1   7
ATOM      7  O   LIG d   1     -24.845  84.278 116.685  0.00  0.00    -0.368 OA
BRANCH   7   8
ATOM      8  C   LIG d   1     -23.529  84.412 117.275  0.00  0.00     0.119 C 
BRANCH   8   9
ATOM      9  C   LIG d   1     -23.148  83.044 117.873  0.00  0.00     0.028 C 
ATOM     10  C   LIG d   1     -21.988  82.374 117.117  0.00  0.00     0.006 C 
ENDBRANCH   8   9
BRANCH   8  11
ATOM     11  C   LIG d   1     -23.545  85.382 118.460  0.00  0.00     0.028 C 
ATOM     12  C   LIG d   1     -23.133  86.810 118.066  0.00  0.00     0.006 C 
ENDBRANCH   8  11
ENDBRANCH   7   8
ENDBRANCH   1   7
BRANCH   6  13
ATOM     13  N   LIG d   1     -27.128  85.989 115.713  0.00  0.00    -0.311 N 
ATOM     14  C   LIG d   1     -27.864  86.811 116.459  0.00  0.00     0.210 C 
ATOM     15  C   LIG d   1     -29.325  86.387 116.638  0.00  0.00     0.109 C 
ATOM     16  O   LIG d   1     -27.454  87.867 116.963  0.00  0.00    -0.276 OA
ATOM     17  H   LIG d   1     -27.549  85.172 115.317  0.00  0.00     0.149 HD
ENDBRANCH   6  13
BRANCH   5  18
ATOM     18  N   LIG d   1     -25.987  88.398 114.220  0.00  0.00     0.381 N 
ATOM     19  H   LIG d   1     -25.954  88.721 115.166  0.00  0.00    -0.090 HD
ATOM     20  H   LIG d   1     -26.947  88.391 113.923  0.00  0.00    -0.090 HD
ATOM     21  H   LIG d   1     -25.456  89.005 113.635  0.00  0.00    -0.090 HD
ENDBRANCH   5  18
BRANCH   3  22
ATOM     22  C   LIG d   1     -22.168  85.725 113.123  0.00  0.00     0.382 C 
ATOM     23  O   LIG d   1     -21.340  86.660 113.009  0.00  0.00    -0.241 OA
ATOM     24  O   LIG d   1     -21.991  84.668 112.487  0.00  0.00    -0.241 OA
ENDBRANCH   3  22
TORSDOF 7
ENDMDL
