MODEL 1
REMARK VINA RESULT:      -5.1      0.000      0.000
REMARK  7 active torsions:
REMARK  status: ('A' for Active; 'I' for Inactive)
REMARK    1  A    between atoms: C_2  and  C_3 
REMARK    2  A    between atoms: C_3  and  O_6 
REMARK    3  A    between atoms: C_3  and  C_4 
REMARK    4  A    between atoms: C_7  and  O_6 
REMARK    5  A    between atoms: C_9  and  C_10 
REMARK    6  A    between atoms: N_15  and  C_14 
REMARK    7  A    between atoms: N_20  and  C_19 
REMARK       I    between atoms: C_22  and  N_20 
ROOT
ATOM      1  C   LIG d   1      -3.011  80.090 115.065  0.00  0.00     0.161 C 
ATOM      2  C   LIG d   1      -2.472  81.256 114.495  0.00  0.00     0.016 C 
ATOM      3  C   LIG d   1      -1.718  81.260 113.299  0.00  0.00     0.038 C 
ATOM      4  C   LIG d   1      -1.580  80.112 112.506  0.00  0.00     0.028 C 
ATOM      5  C   LIG d   1      -1.678  78.813 113.298  0.00  0.00    -0.047 C 
ATOM      6  C   LIG d   1      -2.964  78.845 114.156  0.00  0.00     0.091 C 
ENDROOT
BRANCH   1   7
ATOM      7  O   LIG d   1      -4.361  80.340 115.504  0.00  0.00    -0.368 OA
BRANCH   7   8
ATOM      8  C   LIG d   1      -4.570  80.365 116.938  0.00  0.00     0.119 C 
BRANCH   8   9
ATOM      9  C   LIG d   1      -5.968  79.777 117.212  0.00  0.00     0.028 C 
ATOM     10  C   LIG d   1      -7.023  80.866 117.469  0.00  0.00     0.006 C 
ENDBRANCH   8   9
BRANCH   8  11
ATOM     11  C   LIG d   1      -4.624  81.801 117.468  0.00  0.00     0.028 C 
ATOM     12  C   LIG d   1      -3.358  82.198 118.243  0.00  0.00     0.006 C 
ENDBRANCH   8  11
ENDBRANCH   7   8
ENDBRANCH   1   7
BRANCH   6  13
ATOM     13  N   LIG d   1      -3.094  77.647 115.027  0.00  0.00    -0.311 N 
ATOM     14  C   LIG d   1      -3.774  76.556 114.676  0.00  0.00     0.210 C 
ATOM     15  C   LIG d   1      -3.800  75.444 115.729  0.00  0.00     0.109 C 
ATOM     16  O   LIG d   1      -4.331  76.392 113.580  0.00  0.00    -0.276 OA
ATOM     17  H   LIG d   1      -2.647  77.683 115.922  0.00  0.00     0.149 HD
ENDBRANCH   6  13
BRANCH   5  18
ATOM     18  N   LIG d   1      -1.655  77.698 112.332  0.00  0.00     0.381 N 
ATOM     19  H   LIG d   1      -2.121  76.903 112.721  0.00  0.00    -0.090 HD
ATOM     20  H   LIG d   1      -0.700  77.446 112.150  0.00  0.00    -0.090 HD
ATOM     21  H   LIG d   1      -2.101  77.972 111.485  0.00  0.00    -0.090 HD
ENDBRANCH   5  18
BRANCH   3  22
ATOM     22  C   LIG d   1      -1.060  82.416 112.906  0.00  0.00     0.382 C 
ATOM     23  O   LIG d   1       0.089  82.662 113.344  0.00  0.00    -0.241 OA
ATOM     24  O   LIG d   1      -1.619  83.236 112.154  0.00  0.00    -0.241 OA
ENDBRANCH   3  22
TORSDOF 7
ENDMDL
MODEL 2
REMARK VINA RESULT:      -4.9      1.885      2.557
REMARK  7 active torsions:
REMARK  status: ('A' for Active; 'I' for Inactive)
REMARK    1  A    between atoms: C_2  and  C_3 
REMARK    2  A    between atoms: C_3  and  O_6 
REMARK    3  A    between atoms: C_3  and  C_4 
REMARK    4  A    between atoms: C_7  and  O_6 
REMARK    5  A    between atoms: C_9  and  C_10 
REMARK    6  A    between atoms: N_15  and  C_14 
REMARK    7  A    between atoms: N_20  and  C_19 
REMARK       I    between atoms: C_22  and  N_20 
ROOT
ATOM      1  C   LIG d   1      -2.016  79.066 115.785  0.00  0.00     0.161 C 
ATOM      2  C   LIG d   1      -2.466  80.331 115.372  0.00  0.00     0.016 C 
ATOM      3  C   LIG d   1      -2.711  80.666 114.020  0.00  0.00     0.038 C 
ATOM      4  C   LIG d   1      -2.666  79.706 112.998  0.00  0.00     0.028 C 
ATOM      5  C   LIG d   1      -1.728  78.543 113.301  0.00  0.00    -0.047 C 
ATOM      6  C   LIG d   1      -2.068  77.973 114.697  0.00  0.00     0.091 C 
ENDROOT
BRANCH   1   7
ATOM      7  O   LIG d   1      -2.748  78.645 116.954  0.00  0.00    -0.368 OA
BRANCH   7   8
ATOM      8  C   LIG d   1      -4.174  78.462 116.781  0.00  0.00     0.119 C 
BRANCH   8   9
ATOM      9  C   LIG d   1      -4.885  79.392 117.782  0.00  0.00     0.028 C 
ATOM     10  C   LIG d   1      -5.737  80.466 117.084  0.00  0.00     0.006 C 
ENDBRANCH   8   9
BRANCH   8  11
ATOM     11  C   LIG d   1      -4.605  77.044 117.168  0.00  0.00     0.028 C 
ATOM     12  C   LIG d   1      -3.640  76.379 118.162  0.00  0.00     0.006 C 
ENDBRANCH   8  11
ENDBRANCH   7   8
ENDBRANCH   1   7
BRANCH   6  13
ATOM     13  N   LIG d   1      -1.142  76.886 115.107  0.00  0.00    -0.311 N 
ATOM     14  C   LIG d   1      -1.511  75.611 115.217  0.00  0.00     0.210 C 
ATOM     15  C   LIG d   1      -0.405  74.654 115.673  0.00  0.00     0.109 C 
ATOM     16  O   LIG d   1      -2.641  75.176 114.948  0.00  0.00    -0.276 OA
ATOM     17  H   LIG d   1      -0.197  77.145 115.314  0.00  0.00     0.149 HD
ENDBRANCH   6  13
BRANCH   5  18
ATOM     18  N   LIG d   1      -1.882  77.552 112.219  0.00  0.00     0.381 N 
ATOM     19  H   LIG d   1      -2.854  77.385 112.049  0.00  0.00    -0.090 HD
ATOM     20  H   LIG d   1      -1.460  76.687 112.507  0.00  0.00    -0.090 HD
ATOM     21  H   LIG d   1      -1.444  77.884 111.388  0.00  0.00    -0.090 HD
ENDBRANCH   5  18
BRANCH   3  22
ATOM     22  C   LIG d   1      -2.966  81.984 113.674  0.00  0.00     0.382 C 
ATOM     23  O   LIG d   1      -2.328  82.521 112.737  0.00  0.00    -0.241 OA
ATOM     24  O   LIG d   1      -3.795  82.657 114.317  0.00  0.00    -0.241 OA
ENDBRANCH   3  22
TORSDOF 7
ENDMDL
MODEL 3
REMARK VINA RESULT:      -4.9      4.477      8.524
REMARK  7 active torsions:
REMARK  status: ('A' for Active; 'I' for Inactive)
REMARK    1  A    between atoms: C_2  and  C_3 
REMARK    2  A    between atoms: C_3  and  O_6 
REMARK    3  A    between atoms: C_3  and  C_4 
REMARK    4  A    between atoms: C_7  and  O_6 
REMARK    5  A    between atoms: C_9  and  C_10 
REMARK    6  A    between atoms: N_15  and  C_14 
REMARK    7  A    between atoms: N_20  and  C_19 
REMARK       I    between atoms: C_22  and  N_20 
ROOT
ATOM      1  C   LIG d   1      -5.869  74.669 117.194  0.00  0.00     0.161 C 
ATOM      2  C   LIG d   1      -6.315  73.379 116.863  0.00  0.00     0.016 C 
ATOM      3  C   LIG d   1      -7.679  73.008 116.842  0.00  0.00     0.038 C 
ATOM      4  C   LIG d   1      -8.705  73.950 117.006  0.00  0.00     0.028 C 
ATOM      5  C   LIG d   1      -8.292  75.158 117.840  0.00  0.00    -0.047 C 
ATOM      6  C   LIG d   1      -6.979  75.738 117.267  0.00  0.00     0.091 C 
ENDROOT
BRANCH   1   7
ATOM      7  O   LIG d   1      -4.837  75.080 116.276  0.00  0.00    -0.368 OA
BRANCH   7   8
ATOM      8  C   LIG d   1      -3.472  74.859 116.710  0.00  0.00     0.119 C 
BRANCH   8   9
ATOM      9  C   LIG d   1      -3.411  75.166 118.219  0.00  0.00     0.028 C 
ATOM     10  C   LIG d   1      -2.608  76.441 118.526  0.00  0.00     0.006 C 
ENDBRANCH   8   9
BRANCH   8  11
ATOM     11  C   LIG d   1      -2.510  75.854 116.054  0.00  0.00     0.028 C 
ATOM     12  C   LIG d   1      -3.109  76.529 114.810  0.00  0.00     0.006 C 
ENDBRANCH   8  11
ENDBRANCH   7   8
ENDBRANCH   1   7
BRANCH   6  13
ATOM     13  N   LIG d   1      -6.460  76.872 118.075  0.00  0.00    -0.311 N 
ATOM     14  C   LIG d   1      -5.915  77.964 117.542  0.00  0.00     0.210 C 
ATOM     15  C   LIG d   1      -5.426  79.003 118.555  0.00  0.00     0.109 C 
ATOM     16  O   LIG d   1      -5.821  78.185 116.325  0.00  0.00    -0.276 OA
ATOM     17  H   LIG d   1      -6.525  76.789 119.071  0.00  0.00     0.149 HD
ENDBRANCH   6  13
BRANCH   5  18
ATOM     18  N   LIG d   1      -9.409  76.121 117.814  0.00  0.00     0.381 N 
ATOM     19  H   LIG d   1      -9.332  76.750 118.588  0.00  0.00    -0.090 HD
ATOM     20  H   LIG d   1     -10.275  75.617 117.902  0.00  0.00    -0.090 HD
ATOM     21  H   LIG d   1      -9.399  76.632 116.959  0.00  0.00    -0.090 HD
ENDBRANCH   5  18
BRANCH   3  22
ATOM     22  C   LIG d   1      -8.027  71.674 116.696  0.00  0.00     0.382 C 
ATOM     23  O   LIG d   1      -9.201  71.363 116.382  0.00  0.00    -0.241 OA
ATOM     24  O   LIG d   1      -7.192  70.776 116.917  0.00  0.00    -0.241 OA
ENDBRANCH   3  22
TORSDOF 7
ENDMDL
MODEL 4
REMARK VINA RESULT:      -4.8      8.203     10.732
REMARK  7 active torsions:
REMARK  status: ('A' for Active; 'I' for Inactive)
REMARK    1  A    between atoms: C_2  and  C_3 
REMARK    2  A    between atoms: C_3  and  O_6 
REMARK    3  A    between atoms: C_3  and  C_4 
REMARK    4  A    between atoms: C_7  and  O_6 
REMARK    5  A    between atoms: C_9  and  C_10 
REMARK    6  A    between atoms: N_15  and  C_14 
REMARK    7  A    between atoms: N_20  and  C_19 
REMARK       I    between atoms: C_22  and  N_20 
ROOT
ATOM      1  C   LIG d   1       2.774  87.994 115.447  0.00  0.00     0.161 C 
ATOM      2  C   LIG d   1       2.813  89.065 116.355  0.00  0.00     0.016 C 
ATOM      3  C   LIG d   1       3.658  90.188 116.198  0.00  0.00     0.038 C 
ATOM      4  C   LIG d   1       4.416  90.388 115.035  0.00  0.00     0.028 C 
ATOM      5  C   LIG d   1       4.789  89.092 114.324  0.00  0.00    -0.047 C 
ATOM      6  C   LIG d   1       3.511  88.248 114.115  0.00  0.00     0.091 C 
ENDROOT
BRANCH   1   7
ATOM      7  O   LIG d   1       1.405  87.616 115.197  0.00  0.00    -0.368 OA
BRANCH   7   8
ATOM      8  C   LIG d   1       0.808  86.714 116.160  0.00  0.00     0.119 C 
BRANCH   8   9
ATOM      9  C   LIG d   1       1.898  85.718 116.601  0.00  0.00     0.028 C 
ATOM     10  C   LIG d   1       1.344  84.602 117.502  0.00  0.00     0.006 C 
ENDBRANCH   8   9
BRANCH   8  11
ATOM     11  C   LIG d   1      -0.287  85.857 115.517  0.00  0.00     0.028 C 
ATOM     12  C   LIG d   1       0.012  85.510 114.051  0.00  0.00     0.006 C 
ENDBRANCH   8  11
ENDBRANCH   7   8
ENDBRANCH   1   7
BRANCH   6  13
ATOM     13  N   LIG d   1       3.800  86.925 113.502  0.00  0.00    -0.311 N 
ATOM     14  C   LIG d   1       3.155  86.456 112.435  0.00  0.00     0.210 C 
ATOM     15  C   LIG d   1       3.593  85.061 111.976  0.00  0.00     0.109 C 
ATOM     16  O   LIG d   1       2.283  87.075 111.806  0.00  0.00    -0.276 OA
ATOM     17  H   LIG d   1       4.514  86.369 113.930  0.00  0.00     0.149 HD
ENDBRANCH   6  13
BRANCH   5  18
ATOM     18  N   LIG d   1       5.456  89.453 113.059  0.00  0.00     0.381 N 
ATOM     19  H   LIG d   1       6.311  89.936 113.252  0.00  0.00    -0.090 HD
ATOM     20  H   LIG d   1       4.856  90.069 112.539  0.00  0.00    -0.090 HD
ATOM     21  H   LIG d   1       5.644  88.633 112.526  0.00  0.00    -0.090 HD
ENDBRANCH   5  18
BRANCH   3  22
ATOM     22  C   LIG d   1       3.781  91.105 117.230  0.00  0.00     0.382 C 
ATOM     23  O   LIG d   1       4.240  90.743 118.340  0.00  0.00    -0.241 OA
ATOM     24  O   LIG d   1       3.396  92.281 117.080  0.00  0.00    -0.241 OA
ENDBRANCH   3  22
TORSDOF 7
ENDMDL
MODEL 5
REMARK VINA RESULT:      -4.5      3.116      7.077
REMARK  7 active torsions:
REMARK  status: ('A' for Active; 'I' for Inactive)
REMARK    1  A    between atoms: C_2  and  C_3 
REMARK    2  A    between atoms: C_3  and  O_6 
REMARK    3  A    between atoms: C_3  and  C_4 
REMARK    4  A    between atoms: C_7  and  O_6 
REMARK    5  A    between atoms: C_9  and  C_10 
REMARK    6  A    between atoms: N_15  and  C_14 
REMARK    7  A    between atoms: N_20  and  C_19 
REMARK       I    between atoms: C_22  and  N_20 
ROOT
ATOM      1  C   LIG d   1      -5.706  78.231 117.068  0.00  0.00     0.161 C 
ATOM      2  C   LIG d   1      -7.005  77.825 117.418  0.00  0.00     0.016 C 
ATOM      3  C   LIG d   1      -8.016  78.724 117.829  0.00  0.00     0.038 C 
ATOM      4  C   LIG d   1      -7.841  80.115 117.771  0.00  0.00     0.028 C 
ATOM      5  C   LIG d   1      -6.384  80.547 117.906  0.00  0.00    -0.047 C 
ATOM      6  C   LIG d   1      -5.529  79.753 116.892  0.00  0.00     0.091 C 
ENDROOT
BRANCH   1   7
ATOM      7  O   LIG d   1      -5.282  77.536 115.878  0.00  0.00    -0.368 OA
BRANCH   7   8
ATOM      8  C   LIG d   1      -4.630  76.259 116.083  0.00  0.00     0.119 C 
BRANCH   8   9
ATOM      9  C   LIG d   1      -3.223  76.354 115.462  0.00  0.00     0.028 C 
ATOM     10  C   LIG d   1      -2.193  76.960 116.430  0.00  0.00     0.006 C 
ENDBRANCH   8   9
BRANCH   8  11
ATOM     11  C   LIG d   1      -5.339  75.141 115.314  0.00  0.00     0.028 C 
ATOM     12  C   LIG d   1      -5.755  75.563 113.896  0.00  0.00     0.006 C 
ENDBRANCH   8  11
ENDBRANCH   7   8
ENDBRANCH   1   7
BRANCH   6  13
ATOM     13  N   LIG d   1      -4.079  80.055 117.015  0.00  0.00    -0.311 N 
ATOM     14  C   LIG d   1      -3.340  80.524 116.012  0.00  0.00     0.210 C 
ATOM     15  C   LIG d   1      -1.862  80.747 116.346  0.00  0.00     0.109 C 
ATOM     16  O   LIG d   1      -3.775  80.807 114.885  0.00  0.00    -0.276 OA
ATOM     17  H   LIG d   1      -3.652  79.883 117.904  0.00  0.00     0.149 HD
ENDBRANCH   6  13
BRANCH   5  18
ATOM     18  N   LIG d   1      -6.331  82.006 117.691  0.00  0.00     0.381 N 
ATOM     19  H   LIG d   1      -6.007  82.459 118.522  0.00  0.00    -0.090 HD
ATOM     20  H   LIG d   1      -7.257  82.339 117.490  0.00  0.00    -0.090 HD
ATOM     21  H   LIG d   1      -5.722  82.216 116.931  0.00  0.00    -0.090 HD
ENDBRANCH   5  18
BRANCH   3  22
ATOM     22  C   LIG d   1      -9.207  78.231 118.341  0.00  0.00     0.382 C 
ATOM     23  O   LIG d   1      -9.336  77.002 118.555  0.00  0.00    -0.241 OA
ATOM     24  O   LIG d   1     -10.168  78.995 118.551  0.00  0.00    -0.241 OA
ENDBRANCH   3  22
TORSDOF 7
ENDMDL
MODEL 6
REMARK VINA RESULT:      -4.5      3.462      4.903
REMARK  7 active torsions:
REMARK  status: ('A' for Active; 'I' for Inactive)
REMARK    1  A    between atoms: C_2  and  C_3 
REMARK    2  A    between atoms: C_3  and  O_6 
REMARK    3  A    between atoms: C_3  and  C_4 
REMARK    4  A    between atoms: C_7  and  O_6 
REMARK    5  A    between atoms: C_9  and  C_10 
REMARK    6  A    between atoms: N_15  and  C_14 
REMARK    7  A    between atoms: N_20  and  C_19 
REMARK       I    between atoms: C_22  and  N_20 
ROOT
ATOM      1  C   LIG d   1      -1.101  83.388 115.699  0.00  0.00     0.161 C 
ATOM      2  C   LIG d   1      -0.488  84.594 116.076  0.00  0.00     0.016 C 
ATOM      3  C   LIG d   1       0.021  85.532 115.148  0.00  0.00     0.038 C 
ATOM      4  C   LIG d   1      -0.186  85.396 113.767  0.00  0.00     0.028 C 
ATOM      5  C   LIG d   1      -0.355  83.947 113.320  0.00  0.00    -0.047 C 
ATOM      6  C   LIG d   1      -1.436  83.274 114.197  0.00  0.00     0.091 C 
ENDROOT
BRANCH   1   7
ATOM      7  O   LIG d   1      -2.285  83.172 116.493  0.00  0.00    -0.368 OA
BRANCH   7   8
ATOM      8  C   LIG d   1      -2.080  82.553 117.787  0.00  0.00     0.119 C 
BRANCH   8   9
ATOM      9  C   LIG d   1      -1.483  81.154 117.541  0.00  0.00     0.028 C 
ATOM     10  C   LIG d   1      -0.174  80.930 118.318  0.00  0.00     0.006 C 
ENDBRANCH   8   9
BRANCH   8  11
ATOM     11  C   LIG d   1      -3.411  82.306 118.504  0.00  0.00     0.028 C 
ATOM     12  C   LIG d   1      -4.556  81.974 117.535  0.00  0.00     0.006 C 
ENDBRANCH   8  11
ENDBRANCH   7   8
ENDBRANCH   1   7
BRANCH   6  13
ATOM     13  N   LIG d   1      -1.603  81.832 113.882  0.00  0.00    -0.311 N 
ATOM     14  C   LIG d   1      -2.697  81.328 113.311  0.00  0.00     0.210 C 
ATOM     15  C   LIG d   1      -2.672  79.812 113.092  0.00  0.00     0.109 C 
ATOM     16  O   LIG d   1      -3.671  81.998 112.936  0.00  0.00    -0.276 OA
ATOM     17  H   LIG d   1      -0.848  81.221 114.124  0.00  0.00     0.149 HD
ENDBRANCH   6  13
BRANCH   5  18
ATOM     18  N   LIG d   1      -0.700  83.961 111.886  0.00  0.00     0.381 N 
ATOM     19  H   LIG d   1       0.038  83.543 111.356  0.00  0.00    -0.090 HD
ATOM     20  H   LIG d   1      -0.803  84.914 111.586  0.00  0.00    -0.090 HD
ATOM     21  H   LIG d   1      -1.550  83.464 111.735  0.00  0.00    -0.090 HD
ENDBRANCH   5  18
BRANCH   3  22
ATOM     22  C   LIG d   1       0.780  86.601 115.598  0.00  0.00     0.382 C 
ATOM     23  O   LIG d   1       0.215  87.630 116.040  0.00  0.00    -0.241 OA
ATOM     24  O   LIG d   1       2.024  86.567 115.526  0.00  0.00    -0.241 OA
ENDBRANCH   3  22
TORSDOF 7
ENDMDL
MODEL 7
REMARK VINA RESULT:      -4.5      4.951      7.949
REMARK  7 active torsions:
REMARK  status: ('A' for Active; 'I' for Inactive)
REMARK    1  A    between atoms: C_2  and  C_3 
REMARK    2  A    between atoms: C_3  and  O_6 
REMARK    3  A    between atoms: C_3  and  C_4 
REMARK    4  A    between atoms: C_7  and  O_6 
REMARK    5  A    between atoms: C_9  and  C_10 
REMARK    6  A    between atoms: N_15  and  C_14 
REMARK    7  A    between atoms: N_20  and  C_19 
REMARK       I    between atoms: C_22  and  N_20 
ROOT
ATOM      1  C   LIG d   1       0.550  85.255 113.301  0.00  0.00     0.161 C 
ATOM      2  C   LIG d   1      -0.519  84.352 113.425  0.00  0.00     0.016 C 
ATOM      3  C   LIG d   1      -0.436  82.992 113.047  0.00  0.00     0.038 C 
ATOM      4  C   LIG d   1       0.776  82.403 112.658  0.00  0.00     0.028 C 
ATOM      5  C   LIG d   1       1.758  83.391 112.038  0.00  0.00    -0.047 C 
ATOM      6  C   LIG d   1       1.913  84.605 112.982  0.00  0.00     0.091 C 
ENDROOT
BRANCH   1   7
ATOM      7  O   LIG d   1       0.647  86.064 114.490  0.00  0.00    -0.368 OA
BRANCH   7   8
ATOM      8  C   LIG d   1       1.369  85.479 115.601  0.00  0.00     0.119 C 
BRANCH   8   9
ATOM      9  C   LIG d   1       0.337  85.133 116.692  0.00  0.00     0.028 C 
ATOM     10  C   LIG d   1       0.916  84.203 117.772  0.00  0.00     0.006 C 
ENDBRANCH   8   9
BRANCH   8  11
ATOM     11  C   LIG d   1       2.316  86.496 116.247  0.00  0.00     0.028 C 
ATOM     12  C   LIG d   1       2.526  87.748 115.381  0.00  0.00     0.006 C 
ENDBRANCH   8  11
ENDBRANCH   7   8
ENDBRANCH   1   7
BRANCH   6  13
ATOM     13  N   LIG d   1       2.792  85.658 112.412  0.00  0.00    -0.311 N 
ATOM     14  C   LIG d   1       4.089  85.763 112.695  0.00  0.00     0.210 C 
ATOM     15  C   LIG d   1       4.806  86.934 112.015  0.00  0.00     0.109 C 
ATOM     16  O   LIG d   1       4.721  84.979 113.419  0.00  0.00    -0.276 OA
ATOM     17  H   LIG d   1       2.368  86.319 111.790  0.00  0.00     0.149 HD
ENDBRANCH   6  13
BRANCH   5  18
ATOM     18  N   LIG d   1       3.026  82.673 111.806  0.00  0.00     0.381 N 
ATOM     19  H   LIG d   1       3.784  83.325 111.782  0.00  0.00    -0.090 HD
ATOM     20  H   LIG d   1       2.979  82.210 110.915  0.00  0.00    -0.090 HD
ATOM     21  H   LIG d   1       3.176  82.004 112.529  0.00  0.00    -0.090 HD
ENDBRANCH   5  18
BRANCH   3  22
ATOM     22  C   LIG d   1      -1.585  82.216 113.019  0.00  0.00     0.382 C 
ATOM     23  O   LIG d   1      -1.555  81.070 112.509  0.00  0.00    -0.241 OA
ATOM     24  O   LIG d   1      -2.661  82.664 113.457  0.00  0.00    -0.241 OA
ENDBRANCH   3  22
TORSDOF 7
ENDMDL
MODEL 8
REMARK VINA RESULT:      -4.4      5.672      8.473
REMARK  7 active torsions:
REMARK  status: ('A' for Active; 'I' for Inactive)
REMARK    1  A    between atoms: C_2  and  C_3 
REMARK    2  A    between atoms: C_3  and  O_6 
REMARK    3  A    between atoms: C_3  and  C_4 
REMARK    4  A    between atoms: C_7  and  O_6 
REMARK    5  A    between atoms: C_9  and  C_10 
REMARK    6  A    between atoms: N_15  and  C_14 
REMARK    7  A    between atoms: N_20  and  C_19 
REMARK       I    between atoms: C_22  and  N_20 
ROOT
ATOM      1  C   LIG d   1       1.670  85.644 113.492  0.00  0.00     0.161 C 
ATOM      2  C   LIG d   1       2.701  86.424 112.942  0.00  0.00     0.016 C 
ATOM      3  C   LIG d   1       3.378  87.437 113.660  0.00  0.00     0.038 C 
ATOM      4  C   LIG d   1       3.170  87.638 115.032  0.00  0.00     0.028 C 
ATOM      5  C   LIG d   1       1.783  87.216 115.504  0.00  0.00    -0.047 C 
ATOM      6  C   LIG d   1       1.507  85.774 115.021  0.00  0.00     0.091 C 
ENDROOT
BRANCH   1   7
ATOM      7  O   LIG d   1       1.852  84.263 113.123  0.00  0.00    -0.368 OA
BRANCH   7   8
ATOM      8  C   LIG d   1       1.170  83.829 111.921  0.00  0.00     0.119 C 
BRANCH   8   9
ATOM      9  C   LIG d   1      -0.310  84.237 112.055  0.00  0.00     0.028 C 
ATOM     10  C   LIG d   1      -1.193  83.083 112.558  0.00  0.00     0.006 C 
ENDBRANCH   8   9
BRANCH   8  11
ATOM     11  C   LIG d   1       1.161  82.302 111.805  0.00  0.00     0.028 C 
ATOM     12  C   LIG d   1       2.241  81.633 112.670  0.00  0.00     0.006 C 
ENDBRANCH   8  11
ENDBRANCH   7   8
ENDBRANCH   1   7
BRANCH   6  13
ATOM     13  N   LIG d   1       0.137  85.312 115.368  0.00  0.00    -0.311 N 
ATOM     14  C   LIG d   1      -0.116  84.145 115.957  0.00  0.00     0.210 C 
ATOM     15  C   LIG d   1      -1.600  83.856 116.207  0.00  0.00     0.109 C 
ATOM     16  O   LIG d   1       0.748  83.336 116.325  0.00  0.00    -0.276 OA
ATOM     17  H   LIG d   1      -0.622  85.921 115.133  0.00  0.00     0.149 HD
ENDBRANCH   6  13
BRANCH   5  18
ATOM     18  N   LIG d   1       1.751  87.350 116.973  0.00  0.00     0.381 N 
ATOM     19  H   LIG d   1       2.110  86.518 117.397  0.00  0.00    -0.090 HD
ATOM     20  H   LIG d   1       0.798  87.469 117.268  0.00  0.00    -0.090 HD
ATOM     21  H   LIG d   1       2.295  88.136 117.255  0.00  0.00    -0.090 HD
ENDBRANCH   5  18
BRANCH   3  22
ATOM     22  C   LIG d   1       4.245  88.289 112.993  0.00  0.00     0.382 C 
ATOM     23  O   LIG d   1       4.053  89.529 113.024  0.00  0.00    -0.241 OA
ATOM     24  O   LIG d   1       5.191  87.831 112.324  0.00  0.00    -0.241 OA
ENDBRANCH   3  22
TORSDOF 7
ENDMDL
MODEL 9
REMARK VINA RESULT:      -4.3      6.750      8.961
REMARK  7 active torsions:
REMARK  status: ('A' for Active; 'I' for Inactive)
REMARK    1  A    between atoms: C_2  and  C_3 
REMARK    2  A    between atoms: C_3  and  O_6 
REMARK    3  A    between atoms: C_3  and  C_4 
REMARK    4  A    between atoms: C_7  and  O_6 
REMARK    5  A    between atoms: C_9  and  C_10 
REMARK    6  A    between atoms: N_15  and  C_14 
REMARK    7  A    between atoms: N_20  and  C_19 
REMARK       I    between atoms: C_22  and  N_20 
ROOT
ATOM      1  C   LIG d   1       2.046  86.636 115.086  0.00  0.00     0.161 C 
ATOM      2  C   LIG d   1       3.042  87.433 114.497  0.00  0.00     0.016 C 
ATOM      3  C   LIG d   1       3.369  87.379 113.122  0.00  0.00     0.038 C 
ATOM      4  C   LIG d   1       2.615  86.628 112.209  0.00  0.00     0.028 C 
ATOM      5  C   LIG d   1       1.925  85.423 112.840  0.00  0.00    -0.047 C 
ATOM      6  C   LIG d   1       1.137  85.892 114.085  0.00  0.00     0.091 C 
ENDROOT
BRANCH   1   7
ATOM      7  O   LIG d   1       1.252  87.433 115.987  0.00  0.00    -0.368 OA
BRANCH   7   8
ATOM      8  C   LIG d   1       1.857  88.666 116.449  0.00  0.00     0.119 C 
BRANCH   8   9
ATOM      9  C   LIG d   1       2.170  88.493 117.948  0.00  0.00     0.028 C 
ATOM     10  C   LIG d   1       3.681  88.416 118.227  0.00  0.00     0.006 C 
ENDBRANCH   8   9
BRANCH   8  11
ATOM     11  C   LIG d   1       0.869  89.834 116.373  0.00  0.00     0.028 C 
ATOM     12  C   LIG d   1       0.643  90.512 117.734  0.00  0.00     0.006 C 
ENDBRANCH   8  11
ENDBRANCH   7   8
ENDBRANCH   1   7
BRANCH   6  13
ATOM     13  N   LIG d   1       0.500  84.762 114.811  0.00  0.00    -0.311 N 
ATOM     14  C   LIG d   1      -0.770  84.402 114.638  0.00  0.00     0.210 C 
ATOM     15  C   LIG d   1      -1.232  83.224 115.500  0.00  0.00     0.109 C 
ATOM     16  O   LIG d   1      -1.549  84.927 113.828  0.00  0.00    -0.276 OA
ATOM     17  H   LIG d   1       1.070  84.261 115.465  0.00  0.00     0.149 HD
ENDBRANCH   6  13
BRANCH   5  18
ATOM     18  N   LIG d   1       1.065  84.812 111.809  0.00  0.00     0.381 N 
ATOM     19  H   LIG d   1       0.140  84.688 112.169  0.00  0.00    -0.090 HD
ATOM     20  H   LIG d   1       1.435  83.908 111.572  0.00  0.00    -0.090 HD
ATOM     21  H   LIG d   1       1.040  85.391 110.999  0.00  0.00    -0.090 HD
ENDBRANCH   5  18
BRANCH   3  22
ATOM     22  C   LIG d   1       4.488  88.052 112.656  0.00  0.00     0.382 C 
ATOM     23  O   LIG d   1       4.657  89.262 112.942  0.00  0.00    -0.241 OA
ATOM     24  O   LIG d   1       5.308  87.477 111.915  0.00  0.00    -0.241 OA
ENDBRANCH   3  22
TORSDOF 7
ENDMDL
