MODEL 1
REMARK VINA RESULT:      -5.2      0.000      0.000
REMARK  7 active torsions:
REMARK  status: ('A' for Active; 'I' for Inactive)
REMARK    1  A    between atoms: C_2  and  C_3 
REMARK    2  A    between atoms: C_3  and  O_6 
REMARK    3  A    between atoms: C_3  and  C_4 
REMARK    4  A    between atoms: C_7  and  O_6 
REMARK    5  A    between atoms: C_9  and  C_10 
REMARK    6  A    between atoms: N_15  and  C_14 
REMARK    7  A    between atoms: N_20  and  C_19 
REMARK       I    between atoms: C_22  and  N_20 
ROOT
ATOM      1  C   LIG d   1      -0.389  84.814 113.428  0.00  0.00     0.161 C 
ATOM      2  C   LIG d   1      -1.380  83.826 113.543  0.00  0.00     0.016 C 
ATOM      3  C   LIG d   1      -1.199  82.488 113.121  0.00  0.00     0.038 C 
ATOM      4  C   LIG d   1       0.047  82.009 112.691  0.00  0.00     0.028 C 
ATOM      5  C   LIG d   1       0.935  83.090 112.084  0.00  0.00    -0.047 C 
ATOM      6  C   LIG d   1       1.014  84.283 113.064  0.00  0.00     0.091 C 
ENDROOT
BRANCH   1   7
ATOM      7  O   LIG d   1      -0.331  85.592 114.640  0.00  0.00    -0.368 OA
BRANCH   7   8
ATOM      8  C   LIG d   1       0.625  85.151 115.635  0.00  0.00     0.119 C 
BRANCH   8   9
ATOM      9  C   LIG d   1      -0.161  84.418 116.739  0.00  0.00     0.028 C 
ATOM     10  C   LIG d   1       0.114  82.905 116.750  0.00  0.00     0.006 C 
ENDBRANCH   8   9
BRANCH   8  11
ATOM     11  C   LIG d   1       1.291  86.340 116.333  0.00  0.00     0.028 C 
ATOM     12  C   LIG d   1       1.316  87.605 115.461  0.00  0.00     0.006 C 
ENDBRANCH   8  11
ENDBRANCH   7   8
ENDBRANCH   1   7
BRANCH   6  13
ATOM     13  N   LIG d   1       1.795  85.420 112.511  0.00  0.00    -0.311 N 
ATOM     14  C   LIG d   1       3.092  85.604 112.752  0.00  0.00     0.210 C 
ATOM     15  C   LIG d   1       3.701  86.850 112.101  0.00  0.00     0.109 C 
ATOM     16  O   LIG d   1       3.804  84.836 113.416  0.00  0.00    -0.276 OA
ATOM     17  H   LIG d   1       1.303  86.075 111.936  0.00  0.00     0.149 HD
ENDBRANCH   6  13
BRANCH   5  18
ATOM     18  N   LIG d   1       2.251  82.483 111.806  0.00  0.00     0.381 N 
ATOM     19  H   LIG d   1       2.318  82.250 110.836  0.00  0.00    -0.090 HD
ATOM     20  H   LIG d   1       2.337  81.636 112.341  0.00  0.00    -0.090 HD
ATOM     21  H   LIG d   1       2.978  83.116 112.055  0.00  0.00    -0.090 HD
ENDBRANCH   5  18
BRANCH   3  22
ATOM     22  C   LIG d   1      -2.283  81.625 113.089  0.00  0.00     0.382 C 
ATOM     23  O   LIG d   1      -3.046  81.613 112.093  0.00  0.00    -0.241 OA
ATOM     24  O   LIG d   1      -2.534  80.889 114.062  0.00  0.00    -0.241 OA
ENDBRANCH   3  22
TORSDOF 7
ENDMDL
MODEL 2
REMARK VINA RESULT:      -5.1     21.924     25.376
REMARK  7 active torsions:
REMARK  status: ('A' for Active; 'I' for Inactive)
REMARK    1  A    between atoms: C_2  and  C_3 
REMARK    2  A    between atoms: C_3  and  O_6 
REMARK    3  A    between atoms: C_3  and  C_4 
REMARK    4  A    between atoms: C_7  and  O_6 
REMARK    5  A    between atoms: C_9  and  C_10 
REMARK    6  A    between atoms: N_15  and  C_14 
REMARK    7  A    between atoms: N_20  and  C_19 
REMARK       I    between atoms: C_22  and  N_20 
ROOT
ATOM      1  C   LIG d   1     -16.409  65.911 114.183  0.00  0.00     0.161 C 
ATOM      2  C   LIG d   1     -15.964  66.737 113.137  0.00  0.00     0.016 C 
ATOM      3  C   LIG d   1     -15.241  67.934 113.345  0.00  0.00     0.038 C 
ATOM      4  C   LIG d   1     -14.780  68.310 114.616  0.00  0.00     0.028 C 
ATOM      5  C   LIG d   1     -15.638  67.771 115.755  0.00  0.00    -0.047 C 
ATOM      6  C   LIG d   1     -15.820  66.248 115.569  0.00  0.00     0.091 C 
ENDROOT
BRANCH   1   7
ATOM      7  O   LIG d   1     -16.160  64.530 113.854  0.00  0.00    -0.368 OA
BRANCH   7   8
ATOM      8  C   LIG d   1     -17.319  63.744 113.481  0.00  0.00     0.119 C 
BRANCH   8   9
ATOM      9  C   LIG d   1     -18.558  64.646 113.635  0.00  0.00     0.028 C 
ATOM     10  C   LIG d   1     -19.508  64.549 112.429  0.00  0.00     0.006 C 
ENDBRANCH   8   9
BRANCH   8  11
ATOM     11  C   LIG d   1     -17.540  62.581 114.452  0.00  0.00     0.028 C 
ATOM     12  C   LIG d   1     -17.630  61.221 113.743  0.00  0.00     0.006 C 
ENDBRANCH   8  11
ENDBRANCH   7   8
ENDBRANCH   1   7
BRANCH   6  13
ATOM     13  N   LIG d   1     -16.717  65.654 116.594  0.00  0.00    -0.311 N 
ATOM     14  C   LIG d   1     -16.397  64.581 117.315  0.00  0.00     0.210 C 
ATOM     15  C   LIG d   1     -17.474  64.121 118.303  0.00  0.00     0.109 C 
ATOM     16  O   LIG d   1     -15.311  63.985 117.253  0.00  0.00    -0.276 OA
ATOM     17  H   LIG d   1     -17.606  66.094 116.732  0.00  0.00     0.149 HD
ENDBRANCH   6  13
BRANCH   5  18
ATOM     18  N   LIG d   1     -14.968  68.122 117.022  0.00  0.00     0.381 N 
ATOM     19  H   LIG d   1     -15.650  68.396 117.701  0.00  0.00    -0.090 HD
ATOM     20  H   LIG d   1     -14.354  68.901 116.860  0.00  0.00    -0.090 HD
ATOM     21  H   LIG d   1     -14.447  67.343 117.360  0.00  0.00    -0.090 HD
ENDBRANCH   5  18
BRANCH   3  22
ATOM     22  C   LIG d   1     -15.006  68.789 112.279  0.00  0.00     0.382 C 
ATOM     23  O   LIG d   1     -13.846  68.908 111.815  0.00  0.00    -0.241 OA
ATOM     24  O   LIG d   1     -15.930  69.476 111.805  0.00  0.00    -0.241 OA
ENDBRANCH   3  22
TORSDOF 7
ENDMDL
MODEL 3
REMARK VINA RESULT:      -5.0      3.744      7.018
REMARK  7 active torsions:
REMARK  status: ('A' for Active; 'I' for Inactive)
REMARK    1  A    between atoms: C_2  and  C_3 
REMARK    2  A    between atoms: C_3  and  O_6 
REMARK    3  A    between atoms: C_3  and  C_4 
REMARK    4  A    between atoms: C_7  and  O_6 
REMARK    5  A    between atoms: C_9  and  C_10 
REMARK    6  A    between atoms: N_15  and  C_14 
REMARK    7  A    between atoms: N_20  and  C_19 
REMARK       I    between atoms: C_22  and  N_20 
ROOT
ATOM      1  C   LIG d   1       2.531  88.205 115.665  0.00  0.00     0.161 C 
ATOM      2  C   LIG d   1       2.474  89.146 116.707  0.00  0.00     0.016 C 
ATOM      3  C   LIG d   1       3.368  90.235 116.820  0.00  0.00     0.038 C 
ATOM      4  C   LIG d   1       4.290  90.546 115.809  0.00  0.00     0.028 C 
ATOM      5  C   LIG d   1       4.720  89.335 114.988  0.00  0.00    -0.047 C 
ATOM      6  C   LIG d   1       3.458  88.591 114.494  0.00  0.00     0.091 C 
ENDROOT
BRANCH   1   7
ATOM      7  O   LIG d   1       1.201  87.932 115.181  0.00  0.00    -0.368 OA
BRANCH   7   8
ATOM      8  C   LIG d   1       0.668  86.620 115.488  0.00  0.00     0.119 C 
BRANCH   8   9
ATOM      9  C   LIG d   1       1.745  85.857 116.283  0.00  0.00     0.028 C 
ATOM     10  C   LIG d   1       1.205  85.287 117.606  0.00  0.00     0.006 C 
ENDBRANCH   8   9
BRANCH   8  11
ATOM     11  C   LIG d   1       0.445  85.797 114.215  0.00  0.00     0.028 C 
ATOM     12  C   LIG d   1      -1.005  85.307 114.069  0.00  0.00     0.006 C 
ENDBRANCH   8  11
ENDBRANCH   7   8
ENDBRANCH   1   7
BRANCH   6  13
ATOM     13  N   LIG d   1       3.789  87.346 113.753  0.00  0.00    -0.311 N 
ATOM     14  C   LIG d   1       3.389  87.107 112.505  0.00  0.00     0.210 C 
ATOM     15  C   LIG d   1       3.822  85.753 111.934  0.00  0.00     0.109 C 
ATOM     16  O   LIG d   1       2.744  87.902 111.805  0.00  0.00    -0.276 OA
ATOM     17  H   LIG d   1       4.336  86.659 114.235  0.00  0.00     0.149 HD
ENDBRANCH   6  13
BRANCH   5  18
ATOM     18  N   LIG d   1       5.572  89.823 113.887  0.00  0.00     0.381 N 
ATOM     19  H   LIG d   1       6.252  89.128 113.651  0.00  0.00    -0.090 HD
ATOM     20  H   LIG d   1       6.057  90.648 114.193  0.00  0.00    -0.090 HD
ATOM     21  H   LIG d   1       5.012  90.034 113.091  0.00  0.00    -0.090 HD
ENDBRANCH   5  18
BRANCH   3  22
ATOM     22  C   LIG d   1       3.372  91.004 117.974  0.00  0.00     0.382 C 
ATOM     23  O   LIG d   1       2.297  91.478 118.414  0.00  0.00    -0.241 OA
ATOM     24  O   LIG d   1       4.442  91.267 118.555  0.00  0.00    -0.241 OA
ENDBRANCH   3  22
TORSDOF 7
ENDMDL
MODEL 4
REMARK VINA RESULT:      -4.8      2.853      4.909
REMARK  7 active torsions:
REMARK  status: ('A' for Active; 'I' for Inactive)
REMARK    1  A    between atoms: C_2  and  C_3 
REMARK    2  A    between atoms: C_3  and  O_6 
REMARK    3  A    between atoms: C_3  and  C_4 
REMARK    4  A    between atoms: C_7  and  O_6 
REMARK    5  A    between atoms: C_9  and  C_10 
REMARK    6  A    between atoms: N_15  and  C_14 
REMARK    7  A    between atoms: N_20  and  C_19 
REMARK       I    between atoms: C_22  and  N_20 
ROOT
ATOM      1  C   LIG d   1       3.100  85.629 114.553  0.00  0.00     0.161 C 
ATOM      2  C   LIG d   1       2.192  84.845 115.284  0.00  0.00     0.016 C 
ATOM      3  C   LIG d   1       1.182  85.390 116.110  0.00  0.00     0.038 C 
ATOM      4  C   LIG d   1       0.915  86.767 116.144  0.00  0.00     0.028 C 
ATOM      5  C   LIG d   1       2.130  87.628 115.815  0.00  0.00    -0.047 C 
ATOM      6  C   LIG d   1       2.753  87.131 114.490  0.00  0.00     0.091 C 
ENDROOT
BRANCH   1   7
ATOM      7  O   LIG d   1       3.249  85.093 113.223  0.00  0.00    -0.368 OA
BRANCH   7   8
ATOM      8  C   LIG d   1       2.134  84.316 112.721  0.00  0.00     0.119 C 
BRANCH   8   9
ATOM      9  C   LIG d   1       2.710  83.217 111.807  0.00  0.00     0.028 C 
ATOM     10  C   LIG d   1       2.001  81.865 111.997  0.00  0.00     0.006 C 
ENDBRANCH   8   9
BRANCH   8  11
ATOM     11  C   LIG d   1       1.228  85.160 111.819  0.00  0.00     0.028 C 
ATOM     12  C   LIG d   1      -0.211  85.263 112.348  0.00  0.00     0.006 C 
ENDBRANCH   8  11
ENDBRANCH   7   8
ENDBRANCH   1   7
BRANCH   6  13
ATOM     13  N   LIG d   1       3.997  87.865 114.138  0.00  0.00    -0.311 N 
ATOM     14  C   LIG d   1       4.053  88.799 113.190  0.00  0.00     0.210 C 
ATOM     15  C   LIG d   1       5.438  89.418 112.974  0.00  0.00     0.109 C 
ATOM     16  O   LIG d   1       3.082  89.196 112.530  0.00  0.00    -0.276 OA
ATOM     17  H   LIG d   1       4.826  87.628 114.647  0.00  0.00     0.149 HD
ENDBRANCH   6  13
BRANCH   5  18
ATOM     18  N   LIG d   1       1.678  89.031 115.751  0.00  0.00     0.381 N 
ATOM     19  H   LIG d   1       2.383  89.594 115.318  0.00  0.00    -0.090 HD
ATOM     20  H   LIG d   1       1.534  89.369 116.686  0.00  0.00    -0.090 HD
ATOM     21  H   LIG d   1       0.829  89.092 115.233  0.00  0.00    -0.090 HD
ENDBRANCH   5  18
BRANCH   3  22
ATOM     22  C   LIG d   1       0.454  84.557 116.945  0.00  0.00     0.382 C 
ATOM     23  O   LIG d   1      -0.565  83.969 116.510  0.00  0.00    -0.241 OA
ATOM     24  O   LIG d   1       0.776  84.422 118.141  0.00  0.00    -0.241 OA
ENDBRANCH   3  22
TORSDOF 7
ENDMDL
MODEL 5
REMARK VINA RESULT:      -4.8      4.026      7.215
REMARK  7 active torsions:
REMARK  status: ('A' for Active; 'I' for Inactive)
REMARK    1  A    between atoms: C_2  and  C_3 
REMARK    2  A    between atoms: C_3  and  O_6 
REMARK    3  A    between atoms: C_3  and  C_4 
REMARK    4  A    between atoms: C_7  and  O_6 
REMARK    5  A    between atoms: C_9  and  C_10 
REMARK    6  A    between atoms: N_15  and  C_14 
REMARK    7  A    between atoms: N_20  and  C_19 
REMARK       I    between atoms: C_22  and  N_20 
ROOT
ATOM      1  C   LIG d   1       2.066  87.672 115.276  0.00  0.00     0.161 C 
ATOM      2  C   LIG d   1       2.077  89.051 115.547  0.00  0.00     0.016 C 
ATOM      3  C   LIG d   1       2.825  89.631 116.597  0.00  0.00     0.038 C 
ATOM      4  C   LIG d   1       3.737  88.884 117.359  0.00  0.00     0.028 C 
ATOM      5  C   LIG d   1       3.380  87.404 117.450  0.00  0.00    -0.047 C 
ATOM      6  C   LIG d   1       3.140  86.856 116.025  0.00  0.00     0.091 C 
ENDROOT
BRANCH   1   7
ATOM      7  O   LIG d   1       2.170  87.453 113.855  0.00  0.00    -0.368 OA
BRANCH   7   8
ATOM      8  C   LIG d   1       3.502  87.195 113.346  0.00  0.00     0.119 C 
BRANCH   8   9
ATOM      9  C   LIG d   1       3.963  88.459 112.595  0.00  0.00     0.028 C 
ATOM     10  C   LIG d   1       5.043  89.238 113.364  0.00  0.00     0.006 C 
ENDBRANCH   8   9
BRANCH   8  11
ATOM     11  C   LIG d   1       3.492  86.080 112.296  0.00  0.00     0.028 C 
ATOM     12  C   LIG d   1       2.140  85.354 112.212  0.00  0.00     0.006 C 
ENDBRANCH   8  11
ENDBRANCH   7   8
ENDBRANCH   1   7
BRANCH   6  13
ATOM     13  N   LIG d   1       2.704  85.436 116.030  0.00  0.00    -0.311 N 
ATOM     14  C   LIG d   1       3.516  84.419 115.747  0.00  0.00     0.210 C 
ATOM     15  C   LIG d   1       2.859  83.035 115.790  0.00  0.00     0.109 C 
ATOM     16  O   LIG d   1       4.726  84.528 115.497  0.00  0.00    -0.276 OA
ATOM     17  H   LIG d   1       1.745  85.254 116.252  0.00  0.00     0.149 HD
ENDBRANCH   6  13
BRANCH   5  18
ATOM     18  N   LIG d   1       4.483  86.722 118.153  0.00  0.00     0.381 N 
ATOM     19  H   LIG d   1       5.271  87.336 118.223  0.00  0.00    -0.090 HD
ATOM     20  H   LIG d   1       4.758  85.915 117.621  0.00  0.00    -0.090 HD
ATOM     21  H   LIG d   1       4.188  86.445 119.063  0.00  0.00    -0.090 HD
ENDBRANCH   5  18
BRANCH   3  22
ATOM     22  C   LIG d   1       2.635  90.965 116.921  0.00  0.00     0.382 C 
ATOM     23  O   LIG d   1       3.507  91.815 116.618  0.00  0.00    -0.241 OA
ATOM     24  O   LIG d   1       1.622  91.324 117.551  0.00  0.00    -0.241 OA
ENDBRANCH   3  22
TORSDOF 7
ENDMDL
MODEL 6
REMARK VINA RESULT:      -4.6      3.329      6.739
REMARK  7 active torsions:
REMARK  status: ('A' for Active; 'I' for Inactive)
REMARK    1  A    between atoms: C_2  and  C_3 
REMARK    2  A    between atoms: C_3  and  O_6 
REMARK    3  A    between atoms: C_3  and  C_4 
REMARK    4  A    between atoms: C_7  and  O_6 
REMARK    5  A    between atoms: C_9  and  C_10 
REMARK    6  A    between atoms: N_15  and  C_14 
REMARK    7  A    between atoms: N_20  and  C_19 
REMARK       I    between atoms: C_22  and  N_20 
ROOT
ATOM      1  C   LIG d   1       2.015  87.459 114.890  0.00  0.00     0.161 C 
ATOM      2  C   LIG d   1       2.782  88.334 114.103  0.00  0.00     0.016 C 
ATOM      3  C   LIG d   1       4.160  88.568 114.316  0.00  0.00     0.038 C 
ATOM      4  C   LIG d   1       4.903  87.823 115.243  0.00  0.00     0.028 C 
ATOM      5  C   LIG d   1       4.067  87.291 116.403  0.00  0.00    -0.047 C 
ATOM      6  C   LIG d   1       2.833  86.554 115.836  0.00  0.00     0.091 C 
ENDROOT
BRANCH   1   7
ATOM      7  O   LIG d   1       1.163  86.661 114.046  0.00  0.00    -0.368 OA
BRANCH   7   8
ATOM      8  C   LIG d   1       1.711  85.395 113.602  0.00  0.00     0.119 C 
BRANCH   8   9
ATOM      9  C   LIG d   1       2.018  85.526 112.097  0.00  0.00     0.028 C 
ATOM     10  C   LIG d   1       3.528  85.528 111.805  0.00  0.00     0.006 C 
ENDBRANCH   8   9
BRANCH   8  11
ATOM     11  C   LIG d   1       0.675  84.271 113.708  0.00  0.00     0.028 C 
ATOM     12  C   LIG d   1      -0.558  84.674 114.531  0.00  0.00     0.006 C 
ENDBRANCH   8  11
ENDBRANCH   7   8
ENDBRANCH   1   7
BRANCH   6  13
ATOM     13  N   LIG d   1       1.918  86.076 116.904  0.00  0.00    -0.311 N 
ATOM     14  C   LIG d   1       1.926  84.829 117.372  0.00  0.00     0.210 C 
ATOM     15  C   LIG d   1       0.886  84.540 118.460  0.00  0.00     0.109 C 
ATOM     16  O   LIG d   1       2.717  83.944 117.013  0.00  0.00    -0.276 OA
ATOM     17  H   LIG d   1       1.264  86.737 117.275  0.00  0.00     0.149 HD
ENDBRANCH   6  13
BRANCH   5  18
ATOM     18  N   LIG d   1       4.937  86.421 117.217  0.00  0.00     0.381 N 
ATOM     19  H   LIG d   1       4.509  86.251 118.105  0.00  0.00    -0.090 HD
ATOM     20  H   LIG d   1       5.812  86.890 117.373  0.00  0.00    -0.090 HD
ATOM     21  H   LIG d   1       5.094  85.558 116.745  0.00  0.00    -0.090 HD
ENDBRANCH   5  18
BRANCH   3  22
ATOM     22  C   LIG d   1       4.799  89.585 113.624  0.00  0.00     0.382 C 
ATOM     23  O   LIG d   1       4.124  90.448 113.013  0.00  0.00    -0.241 OA
ATOM     24  O   LIG d   1       6.043  89.624 113.566  0.00  0.00    -0.241 OA
ENDBRANCH   3  22
TORSDOF 7
ENDMDL
MODEL 7
REMARK VINA RESULT:      -4.6     11.906     13.403
REMARK  7 active torsions:
REMARK  status: ('A' for Active; 'I' for Inactive)
REMARK    1  A    between atoms: C_2  and  C_3 
REMARK    2  A    between atoms: C_3  and  O_6 
REMARK    3  A    between atoms: C_3  and  C_4 
REMARK    4  A    between atoms: C_7  and  O_6 
REMARK    5  A    between atoms: C_9  and  C_10 
REMARK    6  A    between atoms: N_15  and  C_14 
REMARK    7  A    between atoms: N_20  and  C_19 
REMARK       I    between atoms: C_22  and  N_20 
ROOT
ATOM      1  C   LIG d   1      11.053  77.314 115.227  0.00  0.00     0.161 C 
ATOM      2  C   LIG d   1       9.691  77.657 115.271  0.00  0.00     0.016 C 
ATOM      3  C   LIG d   1       9.182  78.885 114.789  0.00  0.00     0.038 C 
ATOM      4  C   LIG d   1       9.985  79.796 114.087  0.00  0.00     0.028 C 
ATOM      5  C   LIG d   1      11.461  79.719 114.465  0.00  0.00    -0.047 C 
ATOM      6  C   LIG d   1      11.927  78.249 114.365  0.00  0.00     0.091 C 
ENDROOT
BRANCH   1   7
ATOM      7  O   LIG d   1      11.198  75.948 114.791  0.00  0.00    -0.368 OA
BRANCH   7   8
ATOM      8  C   LIG d   1      11.231  74.946 115.837  0.00  0.00     0.119 C 
BRANCH   8   9
ATOM      9  C   LIG d   1      12.531  75.155 116.638  0.00  0.00     0.028 C 
ATOM     10  C   LIG d   1      13.772  74.641 115.889  0.00  0.00     0.006 C 
ENDBRANCH   8   9
BRANCH   8  11
ATOM     11  C   LIG d   1      11.339  73.534 115.252  0.00  0.00     0.028 C 
ATOM     12  C   LIG d   1      10.329  72.555 115.871  0.00  0.00     0.006 C 
ENDBRANCH   8  11
ENDBRANCH   7   8
ENDBRANCH   1   7
BRANCH   6  13
ATOM     13  N   LIG d   1      13.338  78.071 114.799  0.00  0.00    -0.311 N 
ATOM     14  C   LIG d   1      14.361  77.987 113.950  0.00  0.00     0.210 C 
ATOM     15  C   LIG d   1      15.730  77.785 114.606  0.00  0.00     0.109 C 
ATOM     16  O   LIG d   1      14.268  78.093 112.718  0.00  0.00    -0.276 OA
ATOM     17  H   LIG d   1      13.508  78.007 115.783  0.00  0.00     0.149 HD
ENDBRANCH   6  13
BRANCH   5  18
ATOM     18  N   LIG d   1      12.200  80.622 113.563  0.00  0.00     0.381 N 
ATOM     19  H   LIG d   1      12.547  81.406 114.078  0.00  0.00    -0.090 HD
ATOM     20  H   LIG d   1      11.571  80.963 112.857  0.00  0.00    -0.090 HD
ATOM     21  H   LIG d   1      12.956  80.135 113.136  0.00  0.00    -0.090 HD
ENDBRANCH   5  18
BRANCH   3  22
ATOM     22  C   LIG d   1       7.863  79.229 115.042  0.00  0.00     0.382 C 
ATOM     23  O   LIG d   1       6.938  78.689 114.389  0.00  0.00    -0.241 OA
ATOM     24  O   LIG d   1       7.589  80.105 115.884  0.00  0.00    -0.241 OA
ENDBRANCH   3  22
TORSDOF 7
ENDMDL
MODEL 8
REMARK VINA RESULT:      -4.5      3.351      6.602
REMARK  7 active torsions:
REMARK  status: ('A' for Active; 'I' for Inactive)
REMARK    1  A    between atoms: C_2  and  C_3 
REMARK    2  A    between atoms: C_3  and  O_6 
REMARK    3  A    between atoms: C_3  and  C_4 
REMARK    4  A    between atoms: C_7  and  O_6 
REMARK    5  A    between atoms: C_9  and  C_10 
REMARK    6  A    between atoms: N_15  and  C_14 
REMARK    7  A    between atoms: N_20  and  C_19 
REMARK       I    between atoms: C_22  and  N_20 
ROOT
ATOM      1  C   LIG d   1       3.189  85.771 113.701  0.00  0.00     0.161 C 
ATOM      2  C   LIG d   1       3.667  86.937 113.080  0.00  0.00     0.016 C 
ATOM      3  C   LIG d   1       4.321  87.978 113.779  0.00  0.00     0.038 C 
ATOM      4  C   LIG d   1       4.678  87.854 115.130  0.00  0.00     0.028 C 
ATOM      5  C   LIG d   1       3.770  86.911 115.912  0.00  0.00    -0.047 C 
ATOM      6  C   LIG d   1       3.668  85.568 115.154  0.00  0.00     0.091 C 
ENDROOT
BRANCH   1   7
ATOM      7  O   LIG d   1       3.521  84.620 112.899  0.00  0.00    -0.368 OA
BRANCH   7   8
ATOM      8  C   LIG d   1       2.420  83.991 112.199  0.00  0.00     0.119 C 
BRANCH   8   9
ATOM      9  C   LIG d   1       1.114  84.502 112.837  0.00  0.00     0.028 C 
ATOM     10  C   LIG d   1       0.231  85.266 111.836  0.00  0.00     0.006 C 
ENDBRANCH   8   9
BRANCH   8  11
ATOM     11  C   LIG d   1       2.412  82.476 112.418  0.00  0.00     0.028 C 
ATOM     12  C   LIG d   1       1.194  81.996 113.223  0.00  0.00     0.006 C 
ENDBRANCH   8  11
ENDBRANCH   7   8
ENDBRANCH   1   7
BRANCH   6  13
ATOM     13  N   LIG d   1       2.731  84.617 115.807  0.00  0.00    -0.311 N 
ATOM     14  C   LIG d   1       3.050  83.358 116.099  0.00  0.00     0.210 C 
ATOM     15  C   LIG d   1       1.931  82.542 116.753  0.00  0.00     0.109 C 
ATOM     16  O   LIG d   1       4.164  82.848 115.907  0.00  0.00    -0.276 OA
ATOM     17  H   LIG d   1       1.815  84.957 116.027  0.00  0.00     0.149 HD
ENDBRANCH   6  13
BRANCH   5  18
ATOM     18  N   LIG d   1       4.336  86.769 117.267  0.00  0.00     0.381 N 
ATOM     19  H   LIG d   1       3.716  87.176 117.938  0.00  0.00    -0.090 HD
ATOM     20  H   LIG d   1       5.211  87.260 117.307  0.00  0.00    -0.090 HD
ATOM     21  H   LIG d   1       4.478  85.805 117.478  0.00  0.00    -0.090 HD
ENDBRANCH   5  18
BRANCH   3  22
ATOM     22  C   LIG d   1       4.589  89.176 113.134  0.00  0.00     0.382 C 
ATOM     23  O   LIG d   1       3.905  90.195 113.395  0.00  0.00    -0.241 OA
ATOM     24  O   LIG d   1       5.477  89.239 112.263  0.00  0.00    -0.241 OA
ENDBRANCH   3  22
TORSDOF 7
ENDMDL
MODEL 9
REMARK VINA RESULT:      -4.5      3.276      6.464
REMARK  7 active torsions:
REMARK  status: ('A' for Active; 'I' for Inactive)
REMARK    1  A    between atoms: C_2  and  C_3 
REMARK    2  A    between atoms: C_3  and  O_6 
REMARK    3  A    between atoms: C_3  and  C_4 
REMARK    4  A    between atoms: C_7  and  O_6 
REMARK    5  A    between atoms: C_9  and  C_10 
REMARK    6  A    between atoms: N_15  and  C_14 
REMARK    7  A    between atoms: N_20  and  C_19 
REMARK       I    between atoms: C_22  and  N_20 
ROOT
ATOM      1  C   LIG d   1       2.624  86.386 114.433  0.00  0.00     0.161 C 
ATOM      2  C   LIG d   1       2.946  87.701 114.058  0.00  0.00     0.016 C 
ATOM      3  C   LIG d   1       4.002  88.440 114.640  0.00  0.00     0.038 C 
ATOM      4  C   LIG d   1       4.910  87.856 115.536  0.00  0.00     0.028 C 
ATOM      5  C   LIG d   1       4.321  86.688 116.320  0.00  0.00    -0.047 C 
ATOM      6  C   LIG d   1       3.673  85.694 115.329  0.00  0.00     0.091 C 
ENDROOT
BRANCH   1   7
ATOM      7  O   LIG d   1       2.368  85.592 113.258  0.00  0.00    -0.368 OA
BRANCH   7   8
ATOM      8  C   LIG d   1       0.974  85.354 112.942  0.00  0.00     0.119 C 
BRANCH   8   9
ATOM      9  C   LIG d   1       0.151  85.677 114.204  0.00  0.00     0.028 C 
ATOM     10  C   LIG d   1      -1.131  84.833 114.301  0.00  0.00     0.006 C 
ENDBRANCH   8   9
BRANCH   8  11
ATOM     11  C   LIG d   1       0.713  83.872 112.655  0.00  0.00     0.028 C 
ATOM     12  C   LIG d   1       1.935  82.985 112.942  0.00  0.00     0.006 C 
ENDBRANCH   8  11
ENDBRANCH   7   8
ENDBRANCH   1   7
BRANCH   6  13
ATOM     13  N   LIG d   1       2.999  84.564 116.019  0.00  0.00    -0.311 N 
ATOM     14  C   LIG d   1       3.612  83.422 116.326  0.00  0.00     0.210 C 
ATOM     15  C   LIG d   1       2.728  82.379 117.019  0.00  0.00     0.109 C 
ATOM     16  O   LIG d   1       4.811  83.185 116.119  0.00  0.00    -0.276 OA
ATOM     17  H   LIG d   1       2.032  84.683 116.252  0.00  0.00     0.149 HD
ENDBRANCH   6  13
BRANCH   5  18
ATOM     18  N   LIG d   1       5.411  86.087 117.112  0.00  0.00     0.381 N 
ATOM     19  H   LIG d   1       5.057  85.777 117.994  0.00  0.00    -0.090 HD
ATOM     20  H   LIG d   1       6.113  86.786 117.281  0.00  0.00    -0.090 HD
ATOM     21  H   LIG d   1       5.809  85.320 116.617  0.00  0.00    -0.090 HD
ENDBRANCH   5  18
BRANCH   3  22
ATOM     22  C   LIG d   1       4.134  89.790 114.356  0.00  0.00     0.382 C 
ATOM     23  O   LIG d   1       4.109  90.186 113.165  0.00  0.00    -0.241 OA
ATOM     24  O   LIG d   1       4.322  90.613 115.272  0.00  0.00    -0.241 OA
ENDBRANCH   3  22
TORSDOF 7
ENDMDL
