MODEL 1
REMARK VINA RESULT:      -5.1      0.000      0.000
REMARK  7 active torsions:
REMARK  status: ('A' for Active; 'I' for Inactive)
REMARK    1  A    between atoms: C_2  and  C_3 
REMARK    2  A    between atoms: C_3  and  O_6 
REMARK    3  A    between atoms: C_3  and  C_4 
REMARK    4  A    between atoms: C_7  and  O_6 
REMARK    5  A    between atoms: C_9  and  C_10 
REMARK    6  A    between atoms: N_15  and  C_14 
REMARK    7  A    between atoms: N_20  and  C_19 
REMARK       I    between atoms: C_22  and  N_20 
ROOT
ATOM      1  C   LIG d   1     -16.072  65.707 114.634  0.00  0.00     0.161 C 
ATOM      2  C   LIG d   1     -15.663  66.703 113.731  0.00  0.00     0.016 C 
ATOM      3  C   LIG d   1     -14.838  67.792 114.096  0.00  0.00     0.038 C 
ATOM      4  C   LIG d   1     -14.238  67.876 115.361  0.00  0.00     0.028 C 
ATOM      5  C   LIG d   1     -15.026  67.163 116.454  0.00  0.00    -0.047 C 
ATOM      6  C   LIG d   1     -15.336  65.722 115.990  0.00  0.00     0.091 C 
ENDROOT
BRANCH   1   7
ATOM      7  O   LIG d   1     -15.955  64.410 114.015  0.00  0.00    -0.368 OA
BRANCH   7   8
ATOM      8  C   LIG d   1     -17.199  63.716 113.750  0.00  0.00     0.119 C 
BRANCH   8   9
ATOM      9  C   LIG d   1     -18.349  64.645 114.186  0.00  0.00     0.028 C 
ATOM     10  C   LIG d   1     -19.239  65.071 113.006  0.00  0.00     0.006 C 
ENDBRANCH   8   9
BRANCH   8  11
ATOM     11  C   LIG d   1     -17.336  62.465 114.622  0.00  0.00     0.028 C 
ATOM     12  C   LIG d   1     -18.659  62.426 115.404  0.00  0.00     0.006 C 
ENDBRANCH   8  11
ENDBRANCH   7   8
ENDBRANCH   1   7
BRANCH   6  13
ATOM     13  N   LIG d   1     -16.178  64.981 116.966  0.00  0.00    -0.311 N 
ATOM     14  C   LIG d   1     -15.772  63.880 117.597  0.00  0.00     0.210 C 
ATOM     15  C   LIG d   1     -16.803  63.262 118.546  0.00  0.00     0.109 C 
ATOM     16  O   LIG d   1     -14.644  63.376 117.485  0.00  0.00    -0.276 OA
ATOM     17  H   LIG d   1     -17.096  65.339 117.140  0.00  0.00     0.149 HD
ENDBRANCH   6  13
BRANCH   5  18
ATOM     18  N   LIG d   1     -14.220  67.212 117.689  0.00  0.00     0.381 N 
ATOM     19  H   LIG d   1     -14.476  68.015 118.229  0.00  0.00    -0.090 HD
ATOM     20  H   LIG d   1     -13.250  67.296 117.441  0.00  0.00    -0.090 HD
ATOM     21  H   LIG d   1     -14.364  66.384 118.223  0.00  0.00    -0.090 HD
ENDBRANCH   5  18
BRANCH   3  22
ATOM     22  C   LIG d   1     -14.639  68.832 113.201  0.00  0.00     0.382 C 
ATOM     23  O   LIG d   1     -15.347  68.917 112.170  0.00  0.00    -0.241 OA
ATOM     24  O   LIG d   1     -13.729  69.662 113.390  0.00  0.00    -0.241 OA
ENDBRANCH   3  22
TORSDOF 7
ENDMDL
MODEL 2
REMARK VINA RESULT:      -4.9     15.864     18.786
REMARK  7 active torsions:
REMARK  status: ('A' for Active; 'I' for Inactive)
REMARK    1  A    between atoms: C_2  and  C_3 
REMARK    2  A    between atoms: C_3  and  O_6 
REMARK    3  A    between atoms: C_3  and  C_4 
REMARK    4  A    between atoms: C_7  and  O_6 
REMARK    5  A    between atoms: C_9  and  C_10 
REMARK    6  A    between atoms: N_15  and  C_14 
REMARK    7  A    between atoms: N_20  and  C_19 
REMARK       I    between atoms: C_22  and  N_20 
ROOT
ATOM      1  C   LIG d   1      -2.342  78.298 114.781  0.00  0.00     0.161 C 
ATOM      2  C   LIG d   1      -2.684  79.361 113.927  0.00  0.00     0.016 C 
ATOM      3  C   LIG d   1      -1.784  80.390 113.567  0.00  0.00     0.038 C 
ATOM      4  C   LIG d   1      -0.427  80.344 113.917  0.00  0.00     0.028 C 
ATOM      5  C   LIG d   1      -0.157  79.557 115.195  0.00  0.00    -0.047 C 
ATOM      6  C   LIG d   1      -0.835  78.172 115.083  0.00  0.00     0.091 C 
ENDROOT
BRANCH   1   7
ATOM      7  O   LIG d   1      -2.852  77.060 114.248  0.00  0.00    -0.368 OA
BRANCH   7   8
ATOM      8  C   LIG d   1      -3.710  76.293 115.128  0.00  0.00     0.119 C 
BRANCH   8   9
ATOM      9  C   LIG d   1      -5.001  75.970 114.350  0.00  0.00     0.028 C 
ATOM     10  C   LIG d   1      -5.520  74.551 114.637  0.00  0.00     0.006 C 
ENDBRANCH   8   9
BRANCH   8  11
ATOM     11  C   LIG d   1      -4.160  77.125 116.332  0.00  0.00     0.028 C 
ATOM     12  C   LIG d   1      -4.007  76.376 117.665  0.00  0.00     0.006 C 
ENDBRANCH   8  11
ENDBRANCH   7   8
ENDBRANCH   1   7
BRANCH   6  13
ATOM     13  N   LIG d   1      -0.691  77.369 116.326  0.00  0.00    -0.311 N 
ATOM     14  C   LIG d   1      -0.325  76.088 116.333  0.00  0.00     0.210 C 
ATOM     15  C   LIG d   1      -0.258  75.443 117.721  0.00  0.00     0.109 C 
ATOM     16  O   LIG d   1      -0.017  75.435 115.325  0.00  0.00    -0.276 OA
ATOM     17  H   LIG d   1      -0.891  77.829 117.192  0.00  0.00     0.149 HD
ENDBRANCH   6  13
BRANCH   5  18
ATOM     18  N   LIG d   1       1.305  79.473 115.367  0.00  0.00     0.381 N 
ATOM     19  H   LIG d   1       1.533  78.698 115.957  0.00  0.00    -0.090 HD
ATOM     20  H   LIG d   1       1.629  80.314 115.812  0.00  0.00    -0.090 HD
ATOM     21  H   LIG d   1       1.747  79.366 114.481  0.00  0.00    -0.090 HD
ENDBRANCH   5  18
BRANCH   3  22
ATOM     22  C   LIG d   1      -2.250  81.501 112.880  0.00  0.00     0.382 C 
ATOM     23  O   LIG d   1      -3.448  81.553 112.511  0.00  0.00    -0.241 OA
ATOM     24  O   LIG d   1      -1.477  82.432 112.586  0.00  0.00    -0.241 OA
ENDBRANCH   3  22
TORSDOF 7
ENDMDL
MODEL 3
REMARK VINA RESULT:      -4.8     13.299     16.192
REMARK  7 active torsions:
REMARK  status: ('A' for Active; 'I' for Inactive)
REMARK    1  A    between atoms: C_2  and  C_3 
REMARK    2  A    between atoms: C_3  and  O_6 
REMARK    3  A    between atoms: C_3  and  C_4 
REMARK    4  A    between atoms: C_7  and  O_6 
REMARK    5  A    between atoms: C_9  and  C_10 
REMARK    6  A    between atoms: N_15  and  C_14 
REMARK    7  A    between atoms: N_20  and  C_19 
REMARK       I    between atoms: C_22  and  N_20 
ROOT
ATOM      1  C   LIG d   1      -5.732  77.588 117.368  0.00  0.00     0.161 C 
ATOM      2  C   LIG d   1      -6.352  78.834 117.555  0.00  0.00     0.016 C 
ATOM      3  C   LIG d   1      -5.644  80.057 117.599  0.00  0.00     0.038 C 
ATOM      4  C   LIG d   1      -4.274  80.132 117.306  0.00  0.00     0.028 C 
ATOM      5  C   LIG d   1      -3.519  78.843 117.610  0.00  0.00    -0.047 C 
ATOM      6  C   LIG d   1      -4.252  77.661 116.936  0.00  0.00     0.091 C 
ENDROOT
BRANCH   1   7
ATOM      7  O   LIG d   1      -6.490  76.800 116.429  0.00  0.00    -0.368 OA
BRANCH   7   8
ATOM      8  C   LIG d   1      -7.588  76.033 116.980  0.00  0.00     0.119 C 
BRANCH   8   9
ATOM      9  C   LIG d   1      -6.996  74.743 117.581  0.00  0.00     0.028 C 
ATOM     10  C   LIG d   1      -6.488  73.773 116.501  0.00  0.00     0.006 C 
ENDBRANCH   8   9
BRANCH   8  11
ATOM     11  C   LIG d   1      -8.548  75.566 115.882  0.00  0.00     0.028 C 
ATOM     12  C   LIG d   1      -9.939  75.199 116.424  0.00  0.00     0.006 C 
ENDBRANCH   8  11
ENDBRANCH   7   8
ENDBRANCH   1   7
BRANCH   6  13
ATOM     13  N   LIG d   1      -3.626  76.351 117.254  0.00  0.00    -0.311 N 
ATOM     14  C   LIG d   1      -3.226  75.485 116.324  0.00  0.00     0.210 C 
ATOM     15  C   LIG d   1      -2.625  74.185 116.867  0.00  0.00     0.109 C 
ATOM     16  O   LIG d   1      -3.283  75.684 115.101  0.00  0.00    -0.276 OA
ATOM     17  H   LIG d   1      -3.513  76.121 118.222  0.00  0.00     0.149 HD
ENDBRANCH   6  13
BRANCH   5  18
ATOM     18  N   LIG d   1      -2.134  79.014 117.131  0.00  0.00     0.381 N 
ATOM     19  H   LIG d   1      -1.971  79.974 116.902  0.00  0.00    -0.090 HD
ATOM     20  H   LIG d   1      -2.009  78.465 116.298  0.00  0.00    -0.090 HD
ATOM     21  H   LIG d   1      -1.492  78.718 117.832  0.00  0.00    -0.090 HD
ENDBRANCH   5  18
BRANCH   3  22
ATOM     22  C   LIG d   1      -6.301  81.218 117.978  0.00  0.00     0.382 C 
ATOM     23  O   LIG d   1      -7.515  81.371 117.700  0.00  0.00    -0.241 OA
ATOM     24  O   LIG d   1      -5.684  82.134 118.555  0.00  0.00    -0.241 OA
ENDBRANCH   3  22
TORSDOF 7
ENDMDL
MODEL 4
REMARK VINA RESULT:      -4.7     13.024     15.911
REMARK  7 active torsions:
REMARK  status: ('A' for Active; 'I' for Inactive)
REMARK    1  A    between atoms: C_2  and  C_3 
REMARK    2  A    between atoms: C_3  and  O_6 
REMARK    3  A    between atoms: C_3  and  C_4 
REMARK    4  A    between atoms: C_7  and  O_6 
REMARK    5  A    between atoms: C_9  and  C_10 
REMARK    6  A    between atoms: N_15  and  C_14 
REMARK    7  A    between atoms: N_20  and  C_19 
REMARK       I    between atoms: C_22  and  N_20 
ROOT
ATOM      1  C   LIG d   1      -4.253  75.469 117.574  0.00  0.00     0.161 C 
ATOM      2  C   LIG d   1      -5.368  76.322 117.611  0.00  0.00     0.016 C 
ATOM      3  C   LIG d   1      -5.293  77.712 117.361  0.00  0.00     0.038 C 
ATOM      4  C   LIG d   1      -4.115  78.321 116.906  0.00  0.00     0.028 C 
ATOM      5  C   LIG d   1      -2.848  77.591 117.341  0.00  0.00    -0.047 C 
ATOM      6  C   LIG d   1      -2.979  76.096 116.970  0.00  0.00     0.091 C 
ENDROOT
BRANCH   1   7
ATOM      7  O   LIG d   1      -4.591  74.253 116.879  0.00  0.00    -0.368 OA
BRANCH   7   8
ATOM      8  C   LIG d   1      -5.766  74.308 116.032  0.00  0.00     0.119 C 
BRANCH   8   9
ATOM      9  C   LIG d   1      -6.416  72.911 116.049  0.00  0.00     0.028 C 
ATOM     10  C   LIG d   1      -7.158  72.626 117.366  0.00  0.00     0.006 C 
ENDBRANCH   8   9
BRANCH   8  11
ATOM     11  C   LIG d   1      -5.387  74.561 114.570  0.00  0.00     0.028 C 
ATOM     12  C   LIG d   1      -6.043  75.826 113.994  0.00  0.00     0.006 C 
ENDBRANCH   8  11
ENDBRANCH   7   8
ENDBRANCH   1   7
BRANCH   6  13
ATOM     13  N   LIG d   1      -1.818  75.293 117.436  0.00  0.00    -0.311 N 
ATOM     14  C   LIG d   1      -1.232  74.353 116.696  0.00  0.00     0.210 C 
ATOM     15  C   LIG d   1      -0.065  73.630 117.375  0.00  0.00     0.109 C 
ATOM     16  O   LIG d   1      -1.549  74.071 115.531  0.00  0.00    -0.276 OA
ATOM     17  H   LIG d   1      -1.477  75.478 118.359  0.00  0.00     0.149 HD
ENDBRANCH   6  13
BRANCH   5  18
ATOM     18  N   LIG d   1      -1.705  78.251 116.684  0.00  0.00     0.381 N 
ATOM     19  H   LIG d   1      -0.864  78.056 117.190  0.00  0.00    -0.090 HD
ATOM     20  H   LIG d   1      -1.854  79.245 116.693  0.00  0.00    -0.090 HD
ATOM     21  H   LIG d   1      -1.619  77.930 115.745  0.00  0.00    -0.090 HD
ENDBRANCH   5  18
BRANCH   3  22
ATOM     22  C   LIG d   1      -6.397  78.514 117.606  0.00  0.00     0.382 C 
ATOM     23  O   LIG d   1      -7.471  78.000 118.001  0.00  0.00    -0.241 OA
ATOM     24  O   LIG d   1      -6.346  79.741 117.393  0.00  0.00    -0.241 OA
ENDBRANCH   3  22
TORSDOF 7
ENDMDL
MODEL 5
REMARK VINA RESULT:      -4.6     14.288     17.386
REMARK  7 active torsions:
REMARK  status: ('A' for Active; 'I' for Inactive)
REMARK    1  A    between atoms: C_2  and  C_3 
REMARK    2  A    between atoms: C_3  and  O_6 
REMARK    3  A    between atoms: C_3  and  C_4 
REMARK    4  A    between atoms: C_7  and  O_6 
REMARK    5  A    between atoms: C_9  and  C_10 
REMARK    6  A    between atoms: N_15  and  C_14 
REMARK    7  A    between atoms: N_20  and  C_19 
REMARK       I    between atoms: C_22  and  N_20 
ROOT
ATOM      1  C   LIG d   1      -2.519  75.463 115.590  0.00  0.00     0.161 C 
ATOM      2  C   LIG d   1      -2.065  74.565 116.570  0.00  0.00     0.016 C 
ATOM      3  C   LIG d   1      -0.855  74.735 117.281  0.00  0.00     0.038 C 
ATOM      4  C   LIG d   1      -0.087  75.903 117.167  0.00  0.00     0.028 C 
ATOM      5  C   LIG d   1      -0.244  76.603 115.821  0.00  0.00    -0.047 C 
ATOM      6  C   LIG d   1      -1.750  76.799 115.531  0.00  0.00     0.091 C 
ENDROOT
BRANCH   1   7
ATOM      7  O   LIG d   1      -3.930  75.704 115.764  0.00  0.00    -0.368 OA
BRANCH   7   8
ATOM      8  C   LIG d   1      -4.812  74.614 115.400  0.00  0.00     0.119 C 
BRANCH   8   9
ATOM      9  C   LIG d   1      -5.744  75.126 114.285  0.00  0.00     0.028 C 
ATOM     10  C   LIG d   1      -6.881  76.009 114.828  0.00  0.00     0.006 C 
ENDBRANCH   8   9
BRANCH   8  11
ATOM     11  C   LIG d   1      -5.738  74.236 116.560  0.00  0.00     0.028 C 
ATOM     12  C   LIG d   1      -6.238  72.785 116.475  0.00  0.00     0.006 C 
ENDBRANCH   8  11
ENDBRANCH   7   8
ENDBRANCH   1   7
BRANCH   6  13
ATOM     13  N   LIG d   1      -1.996  77.401 114.194  0.00  0.00    -0.311 N 
ATOM     14  C   LIG d   1      -2.580  78.585 114.020  0.00  0.00     0.210 C 
ATOM     15  C   LIG d   1      -2.755  79.011 112.559  0.00  0.00     0.109 C 
ATOM     16  O   LIG d   1      -2.940  79.338 114.937  0.00  0.00    -0.276 OA
ATOM     17  H   LIG d   1      -1.706  76.872 113.395  0.00  0.00     0.149 HD
ENDBRANCH   6  13
BRANCH   5  18
ATOM     18  N   LIG d   1       0.502  77.874 115.889  0.00  0.00     0.381 N 
ATOM     19  H   LIG d   1       0.229  78.467 115.131  0.00  0.00    -0.090 HD
ATOM     20  H   LIG d   1       1.484  77.679 115.800  0.00  0.00    -0.090 HD
ATOM     21  H   LIG d   1       0.323  78.328 116.758  0.00  0.00    -0.090 HD
ENDBRANCH   5  18
BRANCH   3  22
ATOM     22  C   LIG d   1      -0.383  73.712 118.089  0.00  0.00     0.382 C 
ATOM     23  O   LIG d   1      -1.135  72.755 118.393  0.00  0.00    -0.241 OA
ATOM     24  O   LIG d   1       0.772  73.757 118.554  0.00  0.00    -0.241 OA
ENDBRANCH   3  22
TORSDOF 7
ENDMDL
MODEL 6
REMARK VINA RESULT:      -4.6      2.094      4.333
REMARK  7 active torsions:
REMARK  status: ('A' for Active; 'I' for Inactive)
REMARK    1  A    between atoms: C_2  and  C_3 
REMARK    2  A    between atoms: C_3  and  O_6 
REMARK    3  A    between atoms: C_3  and  C_4 
REMARK    4  A    between atoms: C_7  and  O_6 
REMARK    5  A    between atoms: C_9  and  C_10 
REMARK    6  A    between atoms: N_15  and  C_14 
REMARK    7  A    between atoms: N_20  and  C_19 
REMARK       I    between atoms: C_22  and  N_20 
ROOT
ATOM      1  C   LIG d   1     -15.828  64.810 115.150  0.00  0.00     0.161 C 
ATOM      2  C   LIG d   1     -15.288  66.070 114.844  0.00  0.00     0.016 C 
ATOM      3  C   LIG d   1     -15.707  66.850 113.741  0.00  0.00     0.038 C 
ATOM      4  C   LIG d   1     -16.809  66.486 112.953  0.00  0.00     0.028 C 
ATOM      5  C   LIG d   1     -17.058  64.982 112.917  0.00  0.00    -0.047 C 
ATOM      6  C   LIG d   1     -17.106  64.447 114.366  0.00  0.00     0.091 C 
ENDROOT
BRANCH   1   7
ATOM      7  O   LIG d   1     -16.064  64.711 116.568  0.00  0.00    -0.368 OA
BRANCH   7   8
ATOM      8  C   LIG d   1     -14.896  64.818 117.418  0.00  0.00     0.119 C 
BRANCH   8   9
ATOM      9  C   LIG d   1     -14.702  63.456 118.112  0.00  0.00     0.028 C 
ATOM     10  C   LIG d   1     -15.929  62.541 117.962  0.00  0.00     0.006 C 
ENDBRANCH   8   9
BRANCH   8  11
ATOM     11  C   LIG d   1     -15.122  65.823 118.552  0.00  0.00     0.028 C 
ATOM     12  C   LIG d   1     -14.824  67.271 118.133  0.00  0.00     0.006 C 
ENDBRANCH   8  11
ENDBRANCH   7   8
ENDBRANCH   1   7
BRANCH   6  13
ATOM     13  N   LIG d   1     -17.262  62.970 114.420  0.00  0.00    -0.311 N 
ATOM     14  C   LIG d   1     -18.444  62.360 114.499  0.00  0.00     0.210 C 
ATOM     15  C   LIG d   1     -18.379  60.830 114.563  0.00  0.00     0.109 C 
ATOM     16  O   LIG d   1     -19.541  62.938 114.489  0.00  0.00    -0.276 OA
ATOM     17  H   LIG d   1     -16.425  62.421 114.401  0.00  0.00     0.149 HD
ENDBRANCH   6  13
BRANCH   5  18
ATOM     18  N   LIG d   1     -18.312  64.756 112.174  0.00  0.00     0.381 N 
ATOM     19  H   LIG d   1     -19.008  64.384 112.790  0.00  0.00    -0.090 HD
ATOM     20  H   LIG d   1     -18.143  64.083 111.447  0.00  0.00    -0.090 HD
ATOM     21  H   LIG d   1     -18.633  65.611 111.777  0.00  0.00    -0.090 HD
ENDBRANCH   5  18
BRANCH   3  22
ATOM     22  C   LIG d   1     -14.996  67.989 113.395  0.00  0.00     0.382 C 
ATOM     23  O   LIG d   1     -14.607  68.780 114.287  0.00  0.00    -0.241 OA
ATOM     24  O   LIG d   1     -14.778  68.257 112.198  0.00  0.00    -0.241 OA
ENDBRANCH   3  22
TORSDOF 7
ENDMDL
MODEL 7
REMARK VINA RESULT:      -4.5     14.825     18.117
REMARK  7 active torsions:
REMARK  status: ('A' for Active; 'I' for Inactive)
REMARK    1  A    between atoms: C_2  and  C_3 
REMARK    2  A    between atoms: C_3  and  O_6 
REMARK    3  A    between atoms: C_3  and  C_4 
REMARK    4  A    between atoms: C_7  and  O_6 
REMARK    5  A    between atoms: C_9  and  C_10 
REMARK    6  A    between atoms: N_15  and  C_14 
REMARK    7  A    between atoms: N_20  and  C_19 
REMARK       I    between atoms: C_22  and  N_20 
ROOT
ATOM      1  C   LIG d   1      -3.231  77.001 115.000  0.00  0.00     0.161 C 
ATOM      2  C   LIG d   1      -2.913  75.767 115.591  0.00  0.00     0.016 C 
ATOM      3  C   LIG d   1      -1.624  75.445 116.075  0.00  0.00     0.038 C 
ATOM      4  C   LIG d   1      -0.596  76.398 116.137  0.00  0.00     0.028 C 
ATOM      5  C   LIG d   1      -0.727  77.499 115.090  0.00  0.00    -0.047 C 
ATOM      6  C   LIG d   1      -2.152  78.092 115.160  0.00  0.00     0.091 C 
ENDROOT
BRANCH   1   7
ATOM      7  O   LIG d   1      -4.498  77.472 115.503  0.00  0.00    -0.368 OA
BRANCH   7   8
ATOM      8  C   LIG d   1      -5.072  76.713 116.595  0.00  0.00     0.119 C 
BRANCH   8   9
ATOM      9  C   LIG d   1      -6.508  76.331 116.189  0.00  0.00     0.028 C 
ATOM     10  C   LIG d   1      -6.565  75.009 115.406  0.00  0.00     0.006 C 
ENDBRANCH   8   9
BRANCH   8  11
ATOM     11  C   LIG d   1      -5.221  77.573 117.854  0.00  0.00     0.028 C 
ATOM     12  C   LIG d   1      -6.125  78.797 117.635  0.00  0.00     0.006 C 
ENDBRANCH   8  11
ENDBRANCH   7   8
ENDBRANCH   1   7
BRANCH   6  13
ATOM     13  N   LIG d   1      -2.391  79.119 114.113  0.00  0.00    -0.311 N 
ATOM     14  C   LIG d   1      -2.130  80.414 114.282  0.00  0.00     0.210 C 
ATOM     15  C   LIG d   1      -2.470  81.304 113.082  0.00  0.00     0.109 C 
ATOM     16  O   LIG d   1      -1.620  80.906 115.300  0.00  0.00    -0.276 OA
ATOM     17  H   LIG d   1      -2.775  78.803 113.243  0.00  0.00     0.149 HD
ENDBRANCH   6  13
BRANCH   5  18
ATOM     18  N   LIG d   1       0.328  78.495 115.356  0.00  0.00     0.381 N 
ATOM     19  H   LIG d   1       0.902  78.185 116.115  0.00  0.00    -0.090 HD
ATOM     20  H   LIG d   1      -0.103  79.363 115.621  0.00  0.00    -0.090 HD
ATOM     21  H   LIG d   1       0.886  78.628 114.541  0.00  0.00    -0.090 HD
ENDBRANCH   5  18
BRANCH   3  22
ATOM     22  C   LIG d   1      -1.342  74.145 116.466  0.00  0.00     0.382 C 
ATOM     23  O   LIG d   1      -2.044  73.588 117.344  0.00  0.00    -0.241 OA
ATOM     24  O   LIG d   1      -0.367  73.538 115.984  0.00  0.00    -0.241 OA
ENDBRANCH   3  22
TORSDOF 7
ENDMDL
MODEL 8
REMARK VINA RESULT:      -4.5     11.502     14.436
REMARK  7 active torsions:
REMARK  status: ('A' for Active; 'I' for Inactive)
REMARK    1  A    between atoms: C_2  and  C_3 
REMARK    2  A    between atoms: C_3  and  O_6 
REMARK    3  A    between atoms: C_3  and  C_4 
REMARK    4  A    between atoms: C_7  and  O_6 
REMARK    5  A    between atoms: C_9  and  C_10 
REMARK    6  A    between atoms: N_15  and  C_14 
REMARK    7  A    between atoms: N_20  and  C_19 
REMARK       I    between atoms: C_22  and  N_20 
ROOT
ATOM      1  C   LIG d   1      -6.598  75.537 117.495  0.00  0.00     0.161 C 
ATOM      2  C   LIG d   1      -7.621  76.440 117.827  0.00  0.00     0.016 C 
ATOM      3  C   LIG d   1      -7.455  77.844 117.813  0.00  0.00     0.038 C 
ATOM      4  C   LIG d   1      -6.290  78.448 117.317  0.00  0.00     0.028 C 
ATOM      5  C   LIG d   1      -5.050  77.570 117.446  0.00  0.00    -0.047 C 
ATOM      6  C   LIG d   1      -5.355  76.179 116.844  0.00  0.00     0.091 C 
ENDROOT
BRANCH   1   7
ATOM      7  O   LIG d   1      -7.122  74.493 116.651  0.00  0.00    -0.368 OA
BRANCH   7   8
ATOM      8  C   LIG d   1      -7.960  73.507 117.303  0.00  0.00     0.119 C 
BRANCH   8   9
ATOM      9  C   LIG d   1      -7.347  72.121 117.024  0.00  0.00     0.028 C 
ATOM     10  C   LIG d   1      -8.321  71.187 116.286  0.00  0.00     0.006 C 
ENDBRANCH   8   9
BRANCH   8  11
ATOM     11  C   LIG d   1      -9.359  73.465 116.681  0.00  0.00     0.028 C 
ATOM     12  C   LIG d   1      -9.891  74.859 116.316  0.00  0.00     0.006 C 
ENDBRANCH   8  11
ENDBRANCH   7   8
ENDBRANCH   1   7
BRANCH   6  13
ATOM     13  N   LIG d   1      -4.222  75.231 117.005  0.00  0.00    -0.311 N 
ATOM     14  C   LIG d   1      -3.212  75.142 116.142  0.00  0.00     0.210 C 
ATOM     15  C   LIG d   1      -2.158  74.085 116.486  0.00  0.00     0.109 C 
ATOM     16  O   LIG d   1      -3.072  75.860 115.140  0.00  0.00    -0.276 OA
ATOM     17  H   LIG d   1      -4.239  74.632 117.807  0.00  0.00     0.149 HD
ENDBRANCH   6  13
BRANCH   5  18
ATOM     18  N   LIG d   1      -3.940  78.264 116.766  0.00  0.00     0.381 N 
ATOM     19  H   LIG d   1      -3.271  77.595 116.442  0.00  0.00    -0.090 HD
ATOM     20  H   LIG d   1      -3.485  78.871 117.425  0.00  0.00    -0.090 HD
ATOM     21  H   LIG d   1      -4.289  78.795 115.999  0.00  0.00    -0.090 HD
ENDBRANCH   5  18
BRANCH   3  22
ATOM     22  C   LIG d   1      -8.447  78.659 118.338  0.00  0.00     0.382 C 
ATOM     23  O   LIG d   1      -9.591  78.192 118.555  0.00  0.00    -0.241 OA
ATOM     24  O   LIG d   1      -8.225  79.865 118.555  0.00  0.00    -0.241 OA
ENDBRANCH   3  22
TORSDOF 7
ENDMDL
MODEL 9
REMARK VINA RESULT:      -4.5     12.541     15.991
REMARK  7 active torsions:
REMARK  status: ('A' for Active; 'I' for Inactive)
REMARK    1  A    between atoms: C_2  and  C_3 
REMARK    2  A    between atoms: C_3  and  O_6 
REMARK    3  A    between atoms: C_3  and  C_4 
REMARK    4  A    between atoms: C_7  and  O_6 
REMARK    5  A    between atoms: C_9  and  C_10 
REMARK    6  A    between atoms: N_15  and  C_14 
REMARK    7  A    between atoms: N_20  and  C_19 
REMARK       I    between atoms: C_22  and  N_20 
ROOT
ATOM      1  C   LIG d   1      -5.379  76.248 116.505  0.00  0.00     0.161 C 
ATOM      2  C   LIG d   1      -6.742  76.550 116.665  0.00  0.00     0.016 C 
ATOM      3  C   LIG d   1      -7.745  75.564 116.812  0.00  0.00     0.038 C 
ATOM      4  C   LIG d   1      -7.432  74.205 116.961  0.00  0.00     0.028 C 
ATOM      5  C   LIG d   1      -6.116  73.810 116.301  0.00  0.00    -0.047 C 
ATOM      6  C   LIG d   1      -5.007  74.776 116.777  0.00  0.00     0.091 C 
ENDROOT
BRANCH   1   7
ATOM      7  O   LIG d   1      -4.585  77.126 117.327  0.00  0.00    -0.368 OA
BRANCH   7   8
ATOM      8  C   LIG d   1      -4.157  78.364 116.709  0.00  0.00     0.119 C 
BRANCH   8   9
ATOM      9  C   LIG d   1      -2.632  78.278 116.507  0.00  0.00     0.028 C 
ATOM     10  C   LIG d   1      -2.252  77.878 115.071  0.00  0.00     0.006 C 
ENDBRANCH   8   9
BRANCH   8  11
ATOM     11  C   LIG d   1      -4.375  79.558 117.643  0.00  0.00     0.028 C 
ATOM     12  C   LIG d   1      -3.725  80.850 117.121  0.00  0.00     0.006 C 
ENDBRANCH   8  11
ENDBRANCH   7   8
ENDBRANCH   1   7
BRANCH   6  13
ATOM     13  N   LIG d   1      -3.703  74.512 116.113  0.00  0.00    -0.311 N 
ATOM     14  C   LIG d   1      -2.536  74.533 116.756  0.00  0.00     0.210 C 
ATOM     15  C   LIG d   1      -1.311  74.254 115.880  0.00  0.00     0.109 C 
ATOM     16  O   LIG d   1      -2.403  74.725 117.974  0.00  0.00    -0.276 OA
ATOM     17  H   LIG d   1      -3.722  74.317 115.132  0.00  0.00     0.149 HD
ENDBRANCH   6  13
BRANCH   5  18
ATOM     18  N   LIG d   1      -5.846  72.403 116.651  0.00  0.00     0.381 N 
ATOM     19  H   LIG d   1      -6.660  71.848 116.474  0.00  0.00    -0.090 HD
ATOM     20  H   LIG d   1      -5.633  72.346 117.631  0.00  0.00    -0.090 HD
ATOM     21  H   LIG d   1      -5.079  72.060 116.116  0.00  0.00    -0.090 HD
ENDBRANCH   5  18
BRANCH   3  22
ATOM     22  C   LIG d   1      -9.081  75.932 116.771  0.00  0.00     0.382 C 
ATOM     23  O   LIG d   1      -9.487  76.900 117.459  0.00  0.00    -0.241 OA
ATOM     24  O   LIG d   1      -9.895  75.281 116.089  0.00  0.00    -0.241 OA
ENDBRANCH   3  22
TORSDOF 7
ENDMDL
