MODEL 1
REMARK VINA RESULT:      -5.2      0.000      0.000
REMARK  7 active torsions:
REMARK  status: ('A' for Active; 'I' for Inactive)
REMARK    1  A    between atoms: C_2  and  C_3 
REMARK    2  A    between atoms: C_3  and  O_6 
REMARK    3  A    between atoms: C_3  and  C_4 
REMARK    4  A    between atoms: C_7  and  O_6 
REMARK    5  A    between atoms: C_9  and  C_10 
REMARK    6  A    between atoms: N_15  and  C_14 
REMARK    7  A    between atoms: N_20  and  C_19 
REMARK       I    between atoms: C_22  and  N_20 
ROOT
ATOM      1  C   LIG d   1     -16.942  65.390 114.529  0.00  0.00     0.161 C 
ATOM      2  C   LIG d   1     -16.363  66.227 113.561  0.00  0.00     0.016 C 
ATOM      3  C   LIG d   1     -15.902  67.535 113.837  0.00  0.00     0.038 C 
ATOM      4  C   LIG d   1     -15.852  68.042 115.144  0.00  0.00     0.028 C 
ATOM      5  C   LIG d   1     -16.892  67.425 116.074  0.00  0.00    -0.047 C 
ATOM      6  C   LIG d   1     -16.794  65.885 115.983  0.00  0.00     0.091 C 
ENDROOT
BRANCH   1   7
ATOM      7  O   LIG d   1     -16.417  64.054 114.398  0.00  0.00    -0.368 OA
BRANCH   7   8
ATOM      8  C   LIG d   1     -17.317  63.067 113.837  0.00  0.00     0.119 C 
BRANCH   8   9
ATOM      9  C   LIG d   1     -18.724  63.694 113.797  0.00  0.00     0.028 C 
ATOM     10  C   LIG d   1     -19.350  63.643 112.393  0.00  0.00     0.006 C 
ENDBRANCH   8   9
BRANCH   8  11
ATOM     11  C   LIG d   1     -17.443  61.845 114.751  0.00  0.00     0.028 C 
ATOM     12  C   LIG d   1     -18.042  60.624 114.035  0.00  0.00     0.006 C 
ENDBRANCH   8  11
ENDBRANCH   7   8
ENDBRANCH   1   7
BRANCH   6  13
ATOM     13  N   LIG d   1     -17.833  65.202 116.798  0.00  0.00    -0.311 N 
ATOM     14  C   LIG d   1     -17.569  64.194 117.627  0.00  0.00     0.210 C 
ATOM     15  C   LIG d   1     -18.788  63.620 118.356  0.00  0.00     0.109 C 
ATOM     16  O   LIG d   1     -16.436  63.741 117.851  0.00  0.00    -0.276 OA
ATOM     17  H   LIG d   1     -18.775  65.527 116.701  0.00  0.00     0.149 HD
ENDBRANCH   6  13
BRANCH   5  18
ATOM     18  N   LIG d   1     -16.637  67.941 117.432  0.00  0.00     0.381 N 
ATOM     19  H   LIG d   1     -16.491  67.178 118.062  0.00  0.00    -0.090 HD
ATOM     20  H   LIG d   1     -17.444  68.455 117.741  0.00  0.00    -0.090 HD
ATOM     21  H   LIG d   1     -15.838  68.536 117.427  0.00  0.00    -0.090 HD
ENDBRANCH   5  18
BRANCH   3  22
ATOM     22  C   LIG d   1     -15.523  68.365 112.793  0.00  0.00     0.382 C 
ATOM     23  O   LIG d   1     -14.437  68.991 112.854  0.00  0.00    -0.241 OA
ATOM     24  O   LIG d   1     -16.272  68.529 111.812  0.00  0.00    -0.241 OA
ENDBRANCH   3  22
TORSDOF 7
ENDMDL
MODEL 2
REMARK VINA RESULT:      -5.1     12.366     15.606
REMARK  7 active torsions:
REMARK  status: ('A' for Active; 'I' for Inactive)
REMARK    1  A    between atoms: C_2  and  C_3 
REMARK    2  A    between atoms: C_3  and  O_6 
REMARK    3  A    between atoms: C_3  and  C_4 
REMARK    4  A    between atoms: C_7  and  O_6 
REMARK    5  A    between atoms: C_9  and  C_10 
REMARK    6  A    between atoms: N_15  and  C_14 
REMARK    7  A    between atoms: N_20  and  C_19 
REMARK       I    between atoms: C_22  and  N_20 
ROOT
ATOM      1  C   LIG d   1      -5.886  74.417 116.933  0.00  0.00     0.161 C 
ATOM      2  C   LIG d   1      -6.713  73.300 116.735  0.00  0.00     0.016 C 
ATOM      3  C   LIG d   1      -8.094  73.291 117.036  0.00  0.00     0.038 C 
ATOM      4  C   LIG d   1      -8.778  74.455 117.418  0.00  0.00     0.028 C 
ATOM      5  C   LIG d   1      -7.888  75.479 118.114  0.00  0.00    -0.047 C 
ATOM      6  C   LIG d   1      -6.635  75.730 117.243  0.00  0.00     0.091 C 
ENDROOT
BRANCH   1   7
ATOM      7  O   LIG d   1      -5.020  74.592 115.794  0.00  0.00    -0.368 OA
BRANCH   7   8
ATOM      8  C   LIG d   1      -3.602  74.418 116.039  0.00  0.00     0.119 C 
BRANCH   8   9
ATOM      9  C   LIG d   1      -3.433  74.023 117.518  0.00  0.00     0.028 C 
ATOM     10  C   LIG d   1      -1.955  73.922 117.933  0.00  0.00     0.006 C 
ENDBRANCH   8   9
BRANCH   8  11
ATOM     11  C   LIG d   1      -2.844  75.740 115.882  0.00  0.00     0.028 C 
ATOM     12  C   LIG d   1      -3.511  76.695 114.880  0.00  0.00     0.006 C 
ENDBRANCH   8  11
ENDBRANCH   7   8
ENDBRANCH   1   7
BRANCH   6  13
ATOM     13  N   LIG d   1      -5.671  76.656 117.891  0.00  0.00    -0.311 N 
ATOM     14  C   LIG d   1      -5.655  77.970 117.671  0.00  0.00     0.210 C 
ATOM     15  C   LIG d   1      -4.566  78.739 118.425  0.00  0.00     0.109 C 
ATOM     16  O   LIG d   1      -6.460  78.576 116.949  0.00  0.00    -0.276 OA
ATOM     17  H   LIG d   1      -5.001  76.253 118.517  0.00  0.00     0.149 HD
ENDBRANCH   6  13
BRANCH   5  18
ATOM     18  N   LIG d   1      -8.693  76.695 118.332  0.00  0.00     0.381 N 
ATOM     19  H   LIG d   1      -8.538  77.343 117.585  0.00  0.00    -0.090 HD
ATOM     20  H   LIG d   1      -8.402  77.129 119.190  0.00  0.00    -0.090 HD
ATOM     21  H   LIG d   1      -9.660  76.459 118.381  0.00  0.00    -0.090 HD
ENDBRANCH   5  18
BRANCH   3  22
ATOM     22  C   LIG d   1      -8.799  72.097 116.996  0.00  0.00     0.382 C 
ATOM     23  O   LIG d   1      -8.310  71.100 116.413  0.00  0.00    -0.241 OA
ATOM     24  O   LIG d   1      -9.937  72.018 117.496  0.00  0.00    -0.241 OA
ENDBRANCH   3  22
TORSDOF 7
ENDMDL
MODEL 3
REMARK VINA RESULT:      -5.0     27.871     30.496
REMARK  7 active torsions:
REMARK  status: ('A' for Active; 'I' for Inactive)
REMARK    1  A    between atoms: C_2  and  C_3 
REMARK    2  A    between atoms: C_3  and  O_6 
REMARK    3  A    between atoms: C_3  and  C_4 
REMARK    4  A    between atoms: C_7  and  O_6 
REMARK    5  A    between atoms: C_9  and  C_10 
REMARK    6  A    between atoms: N_15  and  C_14 
REMARK    7  A    between atoms: N_20  and  C_19 
REMARK       I    between atoms: C_22  and  N_20 
ROOT
ATOM      1  C   LIG d   1       1.758  88.706 115.581  0.00  0.00     0.161 C 
ATOM      2  C   LIG d   1       0.442  88.748 116.072  0.00  0.00     0.016 C 
ATOM      3  C   LIG d   1       0.009  89.660 117.061  0.00  0.00     0.038 C 
ATOM      4  C   LIG d   1       0.832  90.699 117.522  0.00  0.00     0.028 C 
ATOM      5  C   LIG d   1       2.320  90.382 117.426  0.00  0.00    -0.047 C 
ATOM      6  C   LIG d   1       2.640  89.904 115.991  0.00  0.00     0.091 C 
ENDROOT
BRANCH   1   7
ATOM      7  O   LIG d   1       1.741  88.565 114.147  0.00  0.00    -0.368 OA
BRANCH   7   8
ATOM      8  C   LIG d   1       1.579  87.216 113.641  0.00  0.00     0.119 C 
BRANCH   8   9
ATOM      9  C   LIG d   1       2.970  86.553 113.639  0.00  0.00     0.028 C 
ATOM     10  C   LIG d   1       3.796  86.927 112.396  0.00  0.00     0.006 C 
ENDBRANCH   8   9
BRANCH   8  11
ATOM     11  C   LIG d   1       1.129  87.220 112.178  0.00  0.00     0.028 C 
ATOM     12  C   LIG d   1       0.106  86.117 111.866  0.00  0.00     0.006 C 
ENDBRANCH   8  11
ENDBRANCH   7   8
ENDBRANCH   1   7
BRANCH   6  13
ATOM     13  N   LIG d   1       4.059  89.493 115.834  0.00  0.00    -0.311 N 
ATOM     14  C   LIG d   1       4.762  89.695 114.721  0.00  0.00     0.210 C 
ATOM     15  C   LIG d   1       6.202  89.175 114.762  0.00  0.00     0.109 C 
ATOM     16  O   LIG d   1       4.339  90.284 113.715  0.00  0.00    -0.276 OA
ATOM     17  H   LIG d   1       4.491  89.036 116.613  0.00  0.00     0.149 HD
ENDBRANCH   6  13
BRANCH   5  18
ATOM     18  N   LIG d   1       3.061  91.599 117.809  0.00  0.00     0.381 N 
ATOM     19  H   LIG d   1       2.867  91.828 118.763  0.00  0.00    -0.090 HD
ATOM     20  H   LIG d   1       2.752  92.362 117.233  0.00  0.00    -0.090 HD
ATOM     21  H   LIG d   1       4.039  91.456 117.686  0.00  0.00    -0.090 HD
ENDBRANCH   5  18
BRANCH   3  22
ATOM     22  C   LIG d   1      -1.247  89.513 117.630  0.00  0.00     0.382 C 
ATOM     23  O   LIG d   1      -2.040  88.650 117.183  0.00  0.00    -0.241 OA
ATOM     24  O   LIG d   1      -1.613  90.262 118.555  0.00  0.00    -0.241 OA
ENDBRANCH   3  22
TORSDOF 7
ENDMDL
MODEL 4
REMARK VINA RESULT:      -5.0     14.297     17.103
REMARK  7 active torsions:
REMARK  status: ('A' for Active; 'I' for Inactive)
REMARK    1  A    between atoms: C_2  and  C_3 
REMARK    2  A    between atoms: C_3  and  O_6 
REMARK    3  A    between atoms: C_3  and  C_4 
REMARK    4  A    between atoms: C_7  and  O_6 
REMARK    5  A    between atoms: C_9  and  C_10 
REMARK    6  A    between atoms: N_15  and  C_14 
REMARK    7  A    between atoms: N_20  and  C_19 
REMARK       I    between atoms: C_22  and  N_20 
ROOT
ATOM      1  C   LIG d   1      -5.214  76.700 117.722  0.00  0.00     0.161 C 
ATOM      2  C   LIG d   1      -5.941  77.895 117.851  0.00  0.00     0.016 C 
ATOM      3  C   LIG d   1      -5.446  79.155 117.445  0.00  0.00     0.038 C 
ATOM      4  C   LIG d   1      -4.241  79.286 116.739  0.00  0.00     0.028 C 
ATOM      5  C   LIG d   1      -3.242  78.173 117.035  0.00  0.00    -0.047 C 
ATOM      6  C   LIG d   1      -3.944  76.807 116.853  0.00  0.00     0.091 C 
ENDROOT
BRANCH   1   7
ATOM      7  O   LIG d   1      -6.074  75.655 117.225  0.00  0.00    -0.368 OA
BRANCH   7   8
ATOM      8  C   LIG d   1      -7.039  76.049 116.218  0.00  0.00     0.119 C 
BRANCH   8   9
ATOM      9  C   LIG d   1      -8.388  75.407 116.594  0.00  0.00     0.028 C 
ATOM     10  C   LIG d   1      -8.268  74.444 117.788  0.00  0.00     0.006 C 
ENDBRANCH   8   9
BRANCH   8  11
ATOM     11  C   LIG d   1      -6.681  75.468 114.847  0.00  0.00     0.028 C 
ATOM     12  C   LIG d   1      -5.816  74.202 114.944  0.00  0.00     0.006 C 
ENDBRANCH   8  11
ENDBRANCH   7   8
ENDBRANCH   1   7
BRANCH   6  13
ATOM     13  N   LIG d   1      -3.060  75.665 117.204  0.00  0.00    -0.311 N 
ATOM     14  C   LIG d   1      -2.326  75.004 116.310  0.00  0.00     0.210 C 
ATOM     15  C   LIG d   1      -1.502  73.846 116.881  0.00  0.00     0.109 C 
ATOM     16  O   LIG d   1      -2.255  75.287 115.105  0.00  0.00    -0.276 OA
ATOM     17  H   LIG d   1      -3.034  75.388 118.166  0.00  0.00     0.149 HD
ENDBRANCH   6  13
BRANCH   5  18
ATOM     18  N   LIG d   1      -2.090  78.356 116.131  0.00  0.00     0.381 N 
ATOM     19  H   LIG d   1      -2.286  79.086 115.476  0.00  0.00    -0.090 HD
ATOM     20  H   LIG d   1      -1.940  77.505 115.619  0.00  0.00    -0.090 HD
ATOM     21  H   LIG d   1      -1.276  78.583 116.659  0.00  0.00    -0.090 HD
ENDBRANCH   5  18
BRANCH   3  22
ATOM     22  C   LIG d   1      -6.141  80.307 117.781  0.00  0.00     0.382 C 
ATOM     23  O   LIG d   1      -5.607  81.167 118.523  0.00  0.00    -0.241 OA
ATOM     24  O   LIG d   1      -7.311  80.477 117.388  0.00  0.00    -0.241 OA
ENDBRANCH   3  22
TORSDOF 7
ENDMDL
MODEL 5
REMARK VINA RESULT:      -4.7     15.129     18.306
REMARK  7 active torsions:
REMARK  status: ('A' for Active; 'I' for Inactive)
REMARK    1  A    between atoms: C_2  and  C_3 
REMARK    2  A    between atoms: C_3  and  O_6 
REMARK    3  A    between atoms: C_3  and  C_4 
REMARK    4  A    between atoms: C_7  and  O_6 
REMARK    5  A    between atoms: C_9  and  C_10 
REMARK    6  A    between atoms: N_15  and  C_14 
REMARK    7  A    between atoms: N_20  and  C_19 
REMARK       I    between atoms: C_22  and  N_20 
ROOT
ATOM      1  C   LIG d   1      -3.801  76.426 115.059  0.00  0.00     0.161 C 
ATOM      2  C   LIG d   1      -3.476  75.238 115.735  0.00  0.00     0.016 C 
ATOM      3  C   LIG d   1      -2.191  74.966 116.257  0.00  0.00     0.038 C 
ATOM      4  C   LIG d   1      -1.176  75.934 116.270  0.00  0.00     0.028 C 
ATOM      5  C   LIG d   1      -1.304  76.962 115.151  0.00  0.00    -0.047 C 
ATOM      6  C   LIG d   1      -2.737  77.540 115.162  0.00  0.00     0.091 C 
ENDROOT
BRANCH   1   7
ATOM      7  O   LIG d   1      -5.080  76.911 115.511  0.00  0.00    -0.368 OA
BRANCH   7   8
ATOM      8  C   LIG d   1      -5.854  76.001 116.331  0.00  0.00     0.119 C 
BRANCH   8   9
ATOM      9  C   LIG d   1      -7.074  75.555 115.502  0.00  0.00     0.028 C 
ATOM     10  C   LIG d   1      -8.337  75.382 116.363  0.00  0.00     0.006 C 
ENDBRANCH   8   9
BRANCH   8  11
ATOM     11  C   LIG d   1      -6.434  76.712 117.557  0.00  0.00     0.028 C 
ATOM     12  C   LIG d   1      -6.134  78.219 117.570  0.00  0.00     0.006 C 
ENDBRANCH   8  11
ENDBRANCH   7   8
ENDBRANCH   1   7
BRANCH   6  13
ATOM     13  N   LIG d   1      -2.973  78.491 114.045  0.00  0.00    -0.311 N 
ATOM     14  C   LIG d   1      -2.735  79.799 114.133  0.00  0.00     0.210 C 
ATOM     15  C   LIG d   1      -3.066  80.603 112.872  0.00  0.00     0.109 C 
ATOM     16  O   LIG d   1      -2.250  80.364 115.125  0.00  0.00    -0.276 OA
ATOM     17  H   LIG d   1      -3.337  78.113 113.192  0.00  0.00     0.149 HD
ENDBRANCH   6  13
BRANCH   5  18
ATOM     18  N   LIG d   1      -0.265  77.987 115.366  0.00  0.00     0.381 N 
ATOM     19  H   LIG d   1       0.458  77.619 115.950  0.00  0.00    -0.090 HD
ATOM     20  H   LIG d   1      -0.678  78.774 115.834  0.00  0.00    -0.090 HD
ATOM     21  H   LIG d   1       0.117  78.274 114.492  0.00  0.00    -0.090 HD
ENDBRANCH   5  18
BRANCH   3  22
ATOM     22  C   LIG d   1      -1.898  73.698 116.737  0.00  0.00     0.382 C 
ATOM     23  O   LIG d   1      -2.271  73.362 117.887  0.00  0.00    -0.241 OA
ATOM     24  O   LIG d   1      -1.228  72.902 116.052  0.00  0.00    -0.241 OA
ENDBRANCH   3  22
TORSDOF 7
ENDMDL
MODEL 6
REMARK VINA RESULT:      -4.6     13.124     16.556
REMARK  7 active torsions:
REMARK  status: ('A' for Active; 'I' for Inactive)
REMARK    1  A    between atoms: C_2  and  C_3 
REMARK    2  A    between atoms: C_3  and  O_6 
REMARK    3  A    between atoms: C_3  and  C_4 
REMARK    4  A    between atoms: C_7  and  O_6 
REMARK    5  A    between atoms: C_9  and  C_10 
REMARK    6  A    between atoms: N_15  and  C_14 
REMARK    7  A    between atoms: N_20  and  C_19 
REMARK       I    between atoms: C_22  and  N_20 
ROOT
ATOM      1  C   LIG d   1      -7.258  76.986 117.287  0.00  0.00     0.161 C 
ATOM      2  C   LIG d   1      -8.409  76.181 117.317  0.00  0.00     0.016 C 
ATOM      3  C   LIG d   1      -8.376  74.772 117.208  0.00  0.00     0.038 C 
ATOM      4  C   LIG d   1      -7.170  74.056 117.213  0.00  0.00     0.028 C 
ATOM      5  C   LIG d   1      -5.989  74.855 116.673  0.00  0.00    -0.047 C 
ATOM      6  C   LIG d   1      -5.926  76.215 117.405  0.00  0.00     0.091 C 
ENDROOT
BRANCH   1   7
ATOM      7  O   LIG d   1      -7.343  77.998 118.309  0.00  0.00    -0.368 OA
BRANCH   7   8
ATOM      8  C   LIG d   1      -7.651  79.339 117.855  0.00  0.00     0.119 C 
BRANCH   8   9
ATOM      9  C   LIG d   1      -6.672  80.301 118.555  0.00  0.00     0.028 C 
ATOM     10  C   LIG d   1      -5.438  80.614 117.692  0.00  0.00     0.006 C 
ENDBRANCH   8   9
BRANCH   8  11
ATOM     11  C   LIG d   1      -9.046  79.776 118.311  0.00  0.00     0.028 C 
ATOM     12  C   LIG d   1      -9.422  81.182 117.816  0.00  0.00     0.006 C 
ENDBRANCH   8  11
ENDBRANCH   7   8
ENDBRANCH   1   7
BRANCH   6  13
ATOM     13  N   LIG d   1      -4.850  77.093 116.878  0.00  0.00    -0.311 N 
ATOM     14  C   LIG d   1      -3.625  77.144 117.397  0.00  0.00     0.210 C 
ATOM     15  C   LIG d   1      -2.673  78.132 116.715  0.00  0.00     0.109 C 
ATOM     16  O   LIG d   1      -3.226  76.441 118.338  0.00  0.00    -0.276 OA
ATOM     17  H   LIG d   1      -5.078  77.675 116.096  0.00  0.00     0.149 HD
ENDBRANCH   6  13
BRANCH   5  18
ATOM     18  N   LIG d   1      -4.774  74.039 116.864  0.00  0.00     0.381 N 
ATOM     19  H   LIG d   1      -4.247  74.392 117.638  0.00  0.00    -0.090 HD
ATOM     20  H   LIG d   1      -4.205  74.106 116.038  0.00  0.00    -0.090 HD
ATOM     21  H   LIG d   1      -5.024  73.089 117.029  0.00  0.00    -0.090 HD
ENDBRANCH   5  18
BRANCH   3  22
ATOM     22  C   LIG d   1      -9.560  74.067 117.052  0.00  0.00     0.382 C 
ATOM     23  O   LIG d   1      -9.582  72.828 117.249  0.00  0.00    -0.241 OA
ATOM     24  O   LIG d   1     -10.595  74.647 116.674  0.00  0.00    -0.241 OA
ENDBRANCH   3  22
TORSDOF 7
ENDMDL
MODEL 7
REMARK VINA RESULT:      -4.6     13.921     16.634
REMARK  7 active torsions:
REMARK  status: ('A' for Active; 'I' for Inactive)
REMARK    1  A    between atoms: C_2  and  C_3 
REMARK    2  A    between atoms: C_3  and  O_6 
REMARK    3  A    between atoms: C_3  and  C_4 
REMARK    4  A    between atoms: C_7  and  O_6 
REMARK    5  A    between atoms: C_9  and  C_10 
REMARK    6  A    between atoms: N_15  and  C_14 
REMARK    7  A    between atoms: N_20  and  C_19 
REMARK       I    between atoms: C_22  and  N_20 
ROOT
ATOM      1  C   LIG d   1      -4.330  75.078 116.660  0.00  0.00     0.161 C 
ATOM      2  C   LIG d   1      -3.303  74.421 115.963  0.00  0.00     0.016 C 
ATOM      3  C   LIG d   1      -1.935  74.747 116.103  0.00  0.00     0.038 C 
ATOM      4  C   LIG d   1      -1.486  75.659 117.070  0.00  0.00     0.028 C 
ATOM      5  C   LIG d   1      -2.526  76.710 117.441  0.00  0.00    -0.047 C 
ATOM      6  C   LIG d   1      -3.851  76.000 117.801  0.00  0.00     0.091 C 
ENDROOT
BRANCH   1   7
ATOM      7  O   LIG d   1      -5.278  74.114 117.159  0.00  0.00    -0.368 OA
BRANCH   7   8
ATOM      8  C   LIG d   1      -6.367  73.770 116.268  0.00  0.00     0.119 C 
BRANCH   8   9
ATOM      9  C   LIG d   1      -6.903  75.083 115.665  0.00  0.00     0.028 C 
ATOM     10  C   LIG d   1      -8.151  75.600 116.399  0.00  0.00     0.006 C 
ENDBRANCH   8   9
BRANCH   8  11
ATOM     11  C   LIG d   1      -7.546  73.166 117.037  0.00  0.00     0.028 C 
ATOM     12  C   LIG d   1      -7.797  71.692 116.682  0.00  0.00     0.006 C 
ENDBRANCH   8  11
ENDBRANCH   7   8
ENDBRANCH   1   7
BRANCH   6  13
ATOM     13  N   LIG d   1      -4.947  76.959 118.095  0.00  0.00    -0.311 N 
ATOM     14  C   LIG d   1      -5.252  77.988 117.306  0.00  0.00     0.210 C 
ATOM     15  C   LIG d   1      -6.404  78.866 117.805  0.00  0.00     0.109 C 
ATOM     16  O   LIG d   1      -4.698  78.239 116.225  0.00  0.00    -0.276 OA
ATOM     17  H   LIG d   1      -5.469  76.812 118.937  0.00  0.00     0.149 HD
ENDBRANCH   6  13
BRANCH   5  18
ATOM     18  N   LIG d   1      -1.977  77.508 118.554  0.00  0.00     0.381 N 
ATOM     19  H   LIG d   1      -1.278  78.134 118.209  0.00  0.00    -0.090 HD
ATOM     20  H   LIG d   1      -1.546  76.887 119.217  0.00  0.00    -0.090 HD
ATOM     21  H   LIG d   1      -2.706  78.023 118.997  0.00  0.00    -0.090 HD
ENDBRANCH   5  18
BRANCH   3  22
ATOM     22  C   LIG d   1      -1.003  74.188 115.243  0.00  0.00     0.382 C 
ATOM     23  O   LIG d   1      -0.297  74.928 114.516  0.00  0.00    -0.241 OA
ATOM     24  O   LIG d   1      -0.890  72.951 115.152  0.00  0.00    -0.241 OA
ENDBRANCH   3  22
TORSDOF 7
ENDMDL
MODEL 8
REMARK VINA RESULT:      -4.1     29.311     31.068
REMARK  7 active torsions:
REMARK  status: ('A' for Active; 'I' for Inactive)
REMARK    1  A    between atoms: C_2  and  C_3 
REMARK    2  A    between atoms: C_3  and  O_6 
REMARK    3  A    between atoms: C_3  and  C_4 
REMARK    4  A    between atoms: C_7  and  O_6 
REMARK    5  A    between atoms: C_9  and  C_10 
REMARK    6  A    between atoms: N_15  and  C_14 
REMARK    7  A    between atoms: N_20  and  C_19 
REMARK       I    between atoms: C_22  and  N_20 
ROOT
ATOM      1  C   LIG d   1       2.861  88.387 116.085  0.00  0.00     0.161 C 
ATOM      2  C   LIG d   1       1.485  88.664 116.148  0.00  0.00     0.016 C 
ATOM      3  C   LIG d   1       0.945  89.769 116.844  0.00  0.00     0.038 C 
ATOM      4  C   LIG d   1       1.761  90.764 117.403  0.00  0.00     0.028 C 
ATOM      5  C   LIG d   1       3.145  90.261 117.798  0.00  0.00    -0.047 C 
ATOM      6  C   LIG d   1       3.773  89.522 116.594  0.00  0.00     0.091 C 
ENDROOT
BRANCH   1   7
ATOM      7  O   LIG d   1       3.224  88.018 114.740  0.00  0.00    -0.368 OA
BRANCH   7   8
ATOM      8  C   LIG d   1       3.851  86.721 114.582  0.00  0.00     0.119 C 
BRANCH   8   9
ATOM      9  C   LIG d   1       3.217  86.048 113.349  0.00  0.00     0.028 C 
ATOM     10  C   LIG d   1       3.750  86.626 112.027  0.00  0.00     0.006 C 
ENDBRANCH   8   9
BRANCH   8  11
ATOM     11  C   LIG d   1       3.525  85.797 115.760  0.00  0.00     0.028 C 
ATOM     12  C   LIG d   1       4.782  85.251 116.454  0.00  0.00     0.006 C 
ENDBRANCH   8  11
ENDBRANCH   7   8
ENDBRANCH   1   7
BRANCH   6  13
ATOM     13  N   LIG d   1       5.094  88.925 116.922  0.00  0.00    -0.311 N 
ATOM     14  C   LIG d   1       6.234  89.309 116.350  0.00  0.00     0.210 C 
ATOM     15  C   LIG d   1       7.480  88.549 116.817  0.00  0.00     0.109 C 
ATOM     16  O   LIG d   1       6.337  90.227 115.523  0.00  0.00    -0.276 OA
ATOM     17  H   LIG d   1       5.107  88.194 117.606  0.00  0.00     0.149 HD
ENDBRANCH   6  13
BRANCH   5  18
ATOM     18  N   LIG d   1       3.935  91.428 118.236  0.00  0.00     0.381 N 
ATOM     19  H   LIG d   1       3.893  91.510 119.233  0.00  0.00    -0.090 HD
ATOM     20  H   LIG d   1       3.537  92.259 117.835  0.00  0.00    -0.090 HD
ATOM     21  H   LIG d   1       4.882  91.328 117.943  0.00  0.00    -0.090 HD
ENDBRANCH   5  18
BRANCH   3  22
ATOM     22  C   LIG d   1      -0.427  89.866 117.022  0.00  0.00     0.382 C 
ATOM     23  O   LIG d   1      -1.157  88.865 116.822  0.00  0.00    -0.241 OA
ATOM     24  O   LIG d   1      -0.948  90.953 117.336  0.00  0.00    -0.241 OA
ENDBRANCH   3  22
TORSDOF 7
ENDMDL
MODEL 9
REMARK VINA RESULT:      -4.0     28.902     30.685
REMARK  7 active torsions:
REMARK  status: ('A' for Active; 'I' for Inactive)
REMARK    1  A    between atoms: C_2  and  C_3 
REMARK    2  A    between atoms: C_3  and  O_6 
REMARK    3  A    between atoms: C_3  and  C_4 
REMARK    4  A    between atoms: C_7  and  O_6 
REMARK    5  A    between atoms: C_9  and  C_10 
REMARK    6  A    between atoms: N_15  and  C_14 
REMARK    7  A    between atoms: N_20  and  C_19 
REMARK       I    between atoms: C_22  and  N_20 
ROOT
ATOM      1  C   LIG d   1       3.502  86.688 115.988  0.00  0.00     0.161 C 
ATOM      2  C   LIG d   1       2.203  87.222 115.944  0.00  0.00     0.016 C 
ATOM      3  C   LIG d   1       1.811  88.373 116.664  0.00  0.00     0.038 C 
ATOM      4  C   LIG d   1       2.737  89.162 117.364  0.00  0.00     0.028 C 
ATOM      5  C   LIG d   1       3.954  88.381 117.847  0.00  0.00    -0.047 C 
ATOM      6  C   LIG d   1       4.553  87.598 116.657  0.00  0.00     0.091 C 
ENDROOT
BRANCH   1   7
ATOM      7  O   LIG d   1       3.926  86.325 114.659  0.00  0.00    -0.368 OA
BRANCH   7   8
ATOM      8  C   LIG d   1       3.334  87.079 113.573  0.00  0.00     0.119 C 
BRANCH   8   9
ATOM      9  C   LIG d   1       2.922  86.073 112.481  0.00  0.00     0.028 C 
ATOM     10  C   LIG d   1       3.653  84.727 112.617  0.00  0.00     0.006 C 
ENDBRANCH   8   9
BRANCH   8  11
ATOM     11  C   LIG d   1       4.361  88.000 112.908  0.00  0.00     0.028 C 
ATOM     12  C   LIG d   1       4.406  89.399 113.543  0.00  0.00     0.006 C 
ENDBRANCH   8  11
ENDBRANCH   7   8
ENDBRANCH   1   7
BRANCH   6  13
ATOM     13  N   LIG d   1       5.698  86.740 117.061  0.00  0.00    -0.311 N 
ATOM     14  C   LIG d   1       6.971  87.114 116.943  0.00  0.00     0.210 C 
ATOM     15  C   LIG d   1       7.996  86.071 117.400  0.00  0.00     0.109 C 
ATOM     16  O   LIG d   1       7.348  88.222 116.534  0.00  0.00    -0.276 OA
ATOM     17  H   LIG d   1       5.482  85.836 117.433  0.00  0.00     0.149 HD
ENDBRANCH   6  13
BRANCH   5  18
ATOM     18  N   LIG d   1       4.899  89.348 118.437  0.00  0.00     0.381 N 
ATOM     19  H   LIG d   1       4.436  89.886 119.143  0.00  0.00    -0.090 HD
ATOM     20  H   LIG d   1       5.213  89.975 117.718  0.00  0.00    -0.090 HD
ATOM     21  H   LIG d   1       5.677  88.867 118.832  0.00  0.00    -0.090 HD
ENDBRANCH   5  18
BRANCH   3  22
ATOM     22  C   LIG d   1       0.471  88.724 116.722  0.00  0.00     0.382 C 
ATOM     23  O   LIG d   1      -0.181  88.537 117.778  0.00  0.00    -0.241 OA
ATOM     24  O   LIG d   1      -0.106  89.184 115.719  0.00  0.00    -0.241 OA
ENDBRANCH   3  22
TORSDOF 7
ENDMDL
