MODEL 1
REMARK VINA RESULT:      -4.8      0.000      0.000
REMARK  7 active torsions:
REMARK  status: ('A' for Active; 'I' for Inactive)
REMARK    1  A    between atoms: C_2  and  C_3 
REMARK    2  A    between atoms: C_3  and  O_6 
REMARK    3  A    between atoms: C_3  and  C_4 
REMARK    4  A    between atoms: C_7  and  O_6 
REMARK    5  A    between atoms: C_9  and  C_10 
REMARK    6  A    between atoms: N_15  and  C_14 
REMARK    7  A    between atoms: N_20  and  C_19 
REMARK       I    between atoms: C_22  and  N_20 
ROOT
ATOM      1  C   LIG d   1      10.537  77.909 114.587  0.00  0.00     0.161 C 
ATOM      2  C   LIG d   1       9.641  76.828 114.610  0.00  0.00     0.016 C 
ATOM      3  C   LIG d   1      10.045  75.479 114.481  0.00  0.00     0.038 C 
ATOM      4  C   LIG d   1      11.398  75.109 114.473  0.00  0.00     0.028 C 
ATOM      5  C   LIG d   1      12.322  76.199 113.940  0.00  0.00    -0.047 C 
ATOM      6  C   LIG d   1      12.026  77.518 114.690  0.00  0.00     0.091 C 
ENDROOT
BRANCH   1   7
ATOM      7  O   LIG d   1      10.194  78.850 115.623  0.00  0.00    -0.368 OA
BRANCH   7   8
ATOM      8  C   LIG d   1       9.764  78.281 116.884  0.00  0.00     0.119 C 
BRANCH   8   9
ATOM      9  C   LIG d   1       8.578  79.124 117.393  0.00  0.00     0.028 C 
ATOM     10  C   LIG d   1       7.304  78.906 116.560  0.00  0.00     0.006 C 
ENDBRANCH   8   9
BRANCH   8  11
ATOM     11  C   LIG d   1      10.848  78.419 117.957  0.00  0.00     0.028 C 
ATOM     12  C   LIG d   1      11.558  77.090 118.260  0.00  0.00     0.006 C 
ENDBRANCH   8  11
ENDBRANCH   7   8
ENDBRANCH   1   7
BRANCH   6  13
ATOM     13  N   LIG d   1      12.828  78.657 114.171  0.00  0.00    -0.311 N 
ATOM     14  C   LIG d   1      13.725  79.315 114.903  0.00  0.00     0.210 C 
ATOM     15  C   LIG d   1      14.426  80.470 114.181  0.00  0.00     0.109 C 
ATOM     16  O   LIG d   1      14.029  79.032 116.072  0.00  0.00    -0.276 OA
ATOM     17  H   LIG d   1      12.667  78.933 113.223  0.00  0.00     0.149 HD
ENDBRANCH   6  13
BRANCH   5  18
ATOM     18  N   LIG d   1      13.710  75.732 114.115  0.00  0.00     0.381 N 
ATOM     19  H   LIG d   1      13.889  75.558 115.084  0.00  0.00    -0.090 HD
ATOM     20  H   LIG d   1      14.337  76.453 113.803  0.00  0.00    -0.090 HD
ATOM     21  H   LIG d   1      13.860  74.901 113.588  0.00  0.00    -0.090 HD
ENDBRANCH   5  18
BRANCH   3  22
ATOM     22  C   LIG d   1       9.090  74.488 114.320  0.00  0.00     0.382 C 
ATOM     23  O   LIG d   1       8.202  74.610 113.442  0.00  0.00    -0.241 OA
ATOM     24  O   LIG d   1       9.078  73.493 115.070  0.00  0.00    -0.241 OA
ENDBRANCH   3  22
TORSDOF 7
ENDMDL
MODEL 2
REMARK VINA RESULT:      -4.6      2.127      4.552
REMARK  7 active torsions:
REMARK  status: ('A' for Active; 'I' for Inactive)
REMARK    1  A    between atoms: C_2  and  C_3 
REMARK    2  A    between atoms: C_3  and  O_6 
REMARK    3  A    between atoms: C_3  and  C_4 
REMARK    4  A    between atoms: C_7  and  O_6 
REMARK    5  A    between atoms: C_9  and  C_10 
REMARK    6  A    between atoms: N_15  and  C_14 
REMARK    7  A    between atoms: N_20  and  C_19 
REMARK       I    between atoms: C_22  and  N_20 
ROOT
ATOM      1  C   LIG d   1      10.506  75.676 114.970  0.00  0.00     0.161 C 
ATOM      2  C   LIG d   1       9.359  76.470 115.132  0.00  0.00     0.016 C 
ATOM      3  C   LIG d   1       9.381  77.884 115.101  0.00  0.00     0.038 C 
ATOM      4  C   LIG d   1      10.535  78.600 114.751  0.00  0.00     0.028 C 
ATOM      5  C   LIG d   1      11.828  77.860 115.076  0.00  0.00    -0.047 C 
ATOM      6  C   LIG d   1      11.755  76.436 114.478  0.00  0.00     0.091 C 
ENDROOT
BRANCH   1   7
ATOM      7  O   LIG d   1      10.214  74.570 114.093  0.00  0.00    -0.368 OA
BRANCH   7   8
ATOM      8  C   LIG d   1      10.343  73.247 114.670  0.00  0.00     0.119 C 
BRANCH   8   9
ATOM      9  C   LIG d   1       8.983  72.541 114.516  0.00  0.00     0.028 C 
ATOM     10  C   LIG d   1       9.130  71.066 114.105  0.00  0.00     0.006 C 
ENDBRANCH   8   9
BRANCH   8  11
ATOM     11  C   LIG d   1      10.594  73.320 116.179  0.00  0.00     0.028 C 
ATOM     12  C   LIG d   1       9.363  72.921 117.007  0.00  0.00     0.006 C 
ENDBRANCH   8  11
ENDBRANCH   7   8
ENDBRANCH   1   7
BRANCH   6  13
ATOM     13  N   LIG d   1      12.946  75.615 114.821  0.00  0.00    -0.311 N 
ATOM     14  C   LIG d   1      14.078  75.638 114.121  0.00  0.00     0.210 C 
ATOM     15  C   LIG d   1      15.175  74.700 114.634  0.00  0.00     0.109 C 
ATOM     16  O   LIG d   1      14.290  76.370 113.142  0.00  0.00    -0.276 OA
ATOM     17  H   LIG d   1      12.872  75.016 115.619  0.00  0.00     0.149 HD
ENDBRANCH   6  13
BRANCH   5  18
ATOM     18  N   LIG d   1      12.946  78.657 114.536  0.00  0.00     0.381 N 
ATOM     19  H   LIG d   1      13.063  78.460 113.562  0.00  0.00    -0.090 HD
ATOM     20  H   LIG d   1      13.791  78.399 115.014  0.00  0.00    -0.090 HD
ATOM     21  H   LIG d   1      12.766  79.628 114.666  0.00  0.00    -0.090 HD
ENDBRANCH   5  18
BRANCH   3  22
ATOM     22  C   LIG d   1       8.247  78.597 115.460  0.00  0.00     0.382 C 
ATOM     23  O   LIG d   1       7.230  78.568 114.725  0.00  0.00    -0.241 OA
ATOM     24  O   LIG d   1       8.243  79.303 116.486  0.00  0.00    -0.241 OA
ENDBRANCH   3  22
TORSDOF 7
ENDMDL
MODEL 3
REMARK VINA RESULT:      -4.4      2.470      5.312
REMARK  7 active torsions:
REMARK  status: ('A' for Active; 'I' for Inactive)
REMARK    1  A    between atoms: C_2  and  C_3 
REMARK    2  A    between atoms: C_3  and  O_6 
REMARK    3  A    between atoms: C_3  and  C_4 
REMARK    4  A    between atoms: C_7  and  O_6 
REMARK    5  A    between atoms: C_9  and  C_10 
REMARK    6  A    between atoms: N_15  and  C_14 
REMARK    7  A    between atoms: N_20  and  C_19 
REMARK       I    between atoms: C_22  and  N_20 
ROOT
ATOM      1  C   LIG d   1      10.278  74.828 115.352  0.00  0.00     0.161 C 
ATOM      2  C   LIG d   1       9.417  75.937 115.405  0.00  0.00     0.016 C 
ATOM      3  C   LIG d   1       9.776  77.225 114.945  0.00  0.00     0.038 C 
ATOM      4  C   LIG d   1      10.977  77.458 114.258  0.00  0.00     0.028 C 
ATOM      5  C   LIG d   1      12.088  76.483 114.631  0.00  0.00    -0.047 C 
ATOM      6  C   LIG d   1      11.551  75.039 114.505  0.00  0.00     0.091 C 
ENDROOT
BRANCH   1   7
ATOM      7  O   LIG d   1       9.556  73.669 114.892  0.00  0.00    -0.368 OA
BRANCH   7   8
ATOM      8  C   LIG d   1       9.137  72.732 115.914  0.00  0.00     0.119 C 
BRANCH   8   9
ATOM      9  C   LIG d   1       9.880  73.101 117.213  0.00  0.00     0.028 C 
ATOM     10  C   LIG d   1      10.190  71.870 118.081  0.00  0.00     0.006 C 
ENDBRANCH   8   9
BRANCH   8  11
ATOM     11  C   LIG d   1       9.587  71.306 115.581  0.00  0.00     0.028 C 
ATOM     12  C   LIG d   1       9.036  70.807 114.235  0.00  0.00     0.006 C 
ENDBRANCH   8  11
ENDBRANCH   7   8
ENDBRANCH   1   7
BRANCH   6  13
ATOM     13  N   LIG d   1      12.548  74.023 114.932  0.00  0.00    -0.311 N 
ATOM     14  C   LIG d   1      12.725  72.861 114.307  0.00  0.00     0.210 C 
ATOM     15  C   LIG d   1      13.792  71.951 114.924  0.00  0.00     0.109 C 
ATOM     16  O   LIG d   1      12.123  72.510 113.282  0.00  0.00    -0.276 OA
ATOM     17  H   LIG d   1      13.103  74.239 115.738  0.00  0.00     0.149 HD
ENDBRANCH   6  13
BRANCH   5  18
ATOM     18  N   LIG d   1      13.235  76.753 113.744  0.00  0.00     0.381 N 
ATOM     19  H   LIG d   1      14.060  76.328 114.118  0.00  0.00    -0.090 HD
ATOM     20  H   LIG d   1      13.384  77.746 113.699  0.00  0.00    -0.090 HD
ATOM     21  H   LIG d   1      13.052  76.395 112.832  0.00  0.00    -0.090 HD
ENDBRANCH   5  18
BRANCH   3  22
ATOM     22  C   LIG d   1       8.946  78.304 115.207  0.00  0.00     0.382 C 
ATOM     23  O   LIG d   1       7.862  78.427 114.587  0.00  0.00    -0.241 OA
ATOM     24  O   LIG d   1       9.288  79.180 116.024  0.00  0.00    -0.241 OA
ENDBRANCH   3  22
TORSDOF 7
ENDMDL
MODEL 4
REMARK VINA RESULT:      -4.4      2.273      4.347
REMARK  7 active torsions:
REMARK  status: ('A' for Active; 'I' for Inactive)
REMARK    1  A    between atoms: C_2  and  C_3 
REMARK    2  A    between atoms: C_3  and  O_6 
REMARK    3  A    between atoms: C_3  and  C_4 
REMARK    4  A    between atoms: C_7  and  O_6 
REMARK    5  A    between atoms: C_9  and  C_10 
REMARK    6  A    between atoms: N_15  and  C_14 
REMARK    7  A    between atoms: N_20  and  C_19 
REMARK       I    between atoms: C_22  and  N_20 
ROOT
ATOM      1  C   LIG d   1      11.988  76.092 114.521  0.00  0.00     0.161 C 
ATOM      2  C   LIG d   1      11.200  74.950 114.301  0.00  0.00     0.016 C 
ATOM      3  C   LIG d   1       9.791  74.942 114.418  0.00  0.00     0.038 C 
ATOM      4  C   LIG d   1       9.057  76.121 114.617  0.00  0.00     0.028 C 
ATOM      5  C   LIG d   1       9.842  77.207 115.345  0.00  0.00    -0.047 C 
ATOM      6  C   LIG d   1      11.197  77.412 114.630  0.00  0.00     0.091 C 
ENDROOT
BRANCH   1   7
ATOM      7  O   LIG d   1      12.996  76.195 113.496  0.00  0.00    -0.368 OA
BRANCH   7   8
ATOM      8  C   LIG d   1      14.368  76.268 113.956  0.00  0.00     0.119 C 
BRANCH   8   9
ATOM      9  C   LIG d   1      15.164  77.074 112.912  0.00  0.00     0.028 C 
ATOM     10  C   LIG d   1      14.263  77.991 112.067  0.00  0.00     0.006 C 
ENDBRANCH   8   9
BRANCH   8  11
ATOM     11  C   LIG d   1      15.021  74.883 113.983  0.00  0.00     0.028 C 
ATOM     12  C   LIG d   1      16.434  74.879 113.379  0.00  0.00     0.006 C 
ENDBRANCH   8  11
ENDBRANCH   7   8
ENDBRANCH   1   7
BRANCH   6  13
ATOM     13  N   LIG d   1      12.062  78.398 115.328  0.00  0.00    -0.311 N 
ATOM     14  C   LIG d   1      12.297  79.625 114.864  0.00  0.00     0.210 C 
ATOM     15  C   LIG d   1      13.234  80.474 115.728  0.00  0.00     0.109 C 
ATOM     16  O   LIG d   1      11.792  80.101 113.836  0.00  0.00    -0.276 OA
ATOM     17  H   LIG d   1      12.487  78.106 116.186  0.00  0.00     0.149 HD
ENDBRANCH   6  13
BRANCH   5  18
ATOM     18  N   LIG d   1       9.007  78.423 115.363  0.00  0.00     0.381 N 
ATOM     19  H   LIG d   1       8.109  78.212 115.748  0.00  0.00    -0.090 HD
ATOM     20  H   LIG d   1       8.879  78.743 114.419  0.00  0.00    -0.090 HD
ATOM     21  H   LIG d   1       9.450  79.133 115.905  0.00  0.00    -0.090 HD
ENDBRANCH   5  18
BRANCH   3  22
ATOM     22  C   LIG d   1       9.104  73.738 114.375  0.00  0.00     0.382 C 
ATOM     23  O   LIG d   1       9.590  72.719 114.923  0.00  0.00    -0.241 OA
ATOM     24  O   LIG d   1       8.026  73.647 113.757  0.00  0.00    -0.241 OA
ENDBRANCH   3  22
TORSDOF 7
ENDMDL
MODEL 5
REMARK VINA RESULT:      -4.4      4.282      6.729
REMARK  7 active torsions:
REMARK  status: ('A' for Active; 'I' for Inactive)
REMARK    1  A    between atoms: C_2  and  C_3 
REMARK    2  A    between atoms: C_3  and  O_6 
REMARK    3  A    between atoms: C_3  and  C_4 
REMARK    4  A    between atoms: C_7  and  O_6 
REMARK    5  A    between atoms: C_9  and  C_10 
REMARK    6  A    between atoms: N_15  and  C_14 
REMARK    7  A    between atoms: N_20  and  C_19 
REMARK       I    between atoms: C_22  and  N_20 
ROOT
ATOM      1  C   LIG d   1      12.140  72.497 114.273  0.00  0.00     0.161 C 
ATOM      2  C   LIG d   1      11.315  73.634 114.260  0.00  0.00     0.016 C 
ATOM      3  C   LIG d   1       9.913  73.581 114.432  0.00  0.00     0.038 C 
ATOM      4  C   LIG d   1       9.254  72.393 114.783  0.00  0.00     0.028 C 
ATOM      5  C   LIG d   1       9.977  71.136 114.309  0.00  0.00    -0.047 C 
ATOM      6  C   LIG d   1      11.453  71.206 114.764  0.00  0.00     0.091 C 
ENDROOT
BRANCH   1   7
ATOM      7  O   LIG d   1      13.324  72.762 115.050  0.00  0.00    -0.368 OA
BRANCH   7   8
ATOM      8  C   LIG d   1      13.283  73.939 115.894  0.00  0.00     0.119 C 
BRANCH   8   9
ATOM      9  C   LIG d   1      14.606  74.702 115.689  0.00  0.00     0.028 C 
ATOM     10  C   LIG d   1      14.841  75.084 114.218  0.00  0.00     0.006 C 
ENDBRANCH   8   9
BRANCH   8  11
ATOM     11  C   LIG d   1      13.259  73.560 117.378  0.00  0.00     0.028 C 
ATOM     12  C   LIG d   1      11.837  73.321 117.909  0.00  0.00     0.006 C 
ENDBRANCH   8  11
ENDBRANCH   7   8
ENDBRANCH   1   7
BRANCH   6  13
ATOM     13  N   LIG d   1      12.253  70.055 114.270  0.00  0.00    -0.311 N 
ATOM     14  C   LIG d   1      12.429  68.932 114.965  0.00  0.00     0.210 C 
ATOM     15  C   LIG d   1      13.306  67.879 114.280  0.00  0.00     0.109 C 
ATOM     16  O   LIG d   1      11.916  68.696 116.069  0.00  0.00    -0.276 OA
ATOM     17  H   LIG d   1      12.680  70.149 113.369  0.00  0.00     0.149 HD
ENDBRANCH   6  13
BRANCH   5  18
ATOM     18  N   LIG d   1       9.257  69.973 114.860  0.00  0.00     0.381 N 
ATOM     19  H   LIG d   1       8.690  70.260 115.632  0.00  0.00    -0.090 HD
ATOM     20  H   LIG d   1       9.928  69.303 115.193  0.00  0.00    -0.090 HD
ATOM     21  H   LIG d   1       8.687  69.560 114.155  0.00  0.00    -0.090 HD
ENDBRANCH   5  18
BRANCH   3  22
ATOM     22  C   LIG d   1       9.149  74.717 114.215  0.00  0.00     0.382 C 
ATOM     23  O   LIG d   1       8.175  74.677 113.426  0.00  0.00    -0.241 OA
ATOM     24  O   LIG d   1       9.449  75.795 114.763  0.00  0.00    -0.241 OA
ENDBRANCH   3  22
TORSDOF 7
ENDMDL
MODEL 6
REMARK VINA RESULT:      -4.3      3.776      6.109
REMARK  7 active torsions:
REMARK  status: ('A' for Active; 'I' for Inactive)
REMARK    1  A    between atoms: C_2  and  C_3 
REMARK    2  A    between atoms: C_3  and  O_6 
REMARK    3  A    between atoms: C_3  and  C_4 
REMARK    4  A    between atoms: C_7  and  O_6 
REMARK    5  A    between atoms: C_9  and  C_10 
REMARK    6  A    between atoms: N_15  and  C_14 
REMARK    7  A    between atoms: N_20  and  C_19 
REMARK       I    between atoms: C_22  and  N_20 
ROOT
ATOM      1  C   LIG d   1      12.000  72.893 114.872  0.00  0.00     0.161 C 
ATOM      2  C   LIG d   1      12.255  71.513 114.807  0.00  0.00     0.016 C 
ATOM      3  C   LIG d   1      11.244  70.543 114.623  0.00  0.00     0.038 C 
ATOM      4  C   LIG d   1       9.917  70.899 114.338  0.00  0.00     0.028 C 
ATOM      5  C   LIG d   1       9.524  72.263 114.895  0.00  0.00    -0.047 C 
ATOM      6  C   LIG d   1      10.574  73.307 114.452  0.00  0.00     0.091 C 
ENDROOT
BRANCH   1   7
ATOM      7  O   LIG d   1      12.979  73.609 114.092  0.00  0.00    -0.368 OA
BRANCH   7   8
ATOM      8  C   LIG d   1      14.120  74.125 114.821  0.00  0.00     0.119 C 
BRANCH   8   9
ATOM      9  C   LIG d   1      13.877  75.629 115.055  0.00  0.00     0.028 C 
ATOM     10  C   LIG d   1      13.266  76.323 113.826  0.00  0.00     0.006 C 
ENDBRANCH   8   9
BRANCH   8  11
ATOM     11  C   LIG d   1      15.399  74.047 113.982  0.00  0.00     0.028 C 
ATOM     12  C   LIG d   1      15.819  72.602 113.671  0.00  0.00     0.006 C 
ENDBRANCH   8  11
ENDBRANCH   7   8
ENDBRANCH   1   7
BRANCH   6  13
ATOM     13  N   LIG d   1      10.310  74.654 115.024  0.00  0.00    -0.311 N 
ATOM     14  C   LIG d   1       9.383  75.483 114.549  0.00  0.00     0.210 C 
ATOM     15  C   LIG d   1       9.289  76.831 115.272  0.00  0.00     0.109 C 
ATOM     16  O   LIG d   1       8.608  75.219 113.617  0.00  0.00    -0.276 OA
ATOM     17  H   LIG d   1      10.873  74.937 115.802  0.00  0.00     0.149 HD
ENDBRANCH   6  13
BRANCH   5  18
ATOM     18  N   LIG d   1       8.165  72.568 114.409  0.00  0.00     0.381 N 
ATOM     19  H   LIG d   1       8.202  73.314 113.744  0.00  0.00    -0.090 HD
ATOM     20  H   LIG d   1       7.601  72.865 115.185  0.00  0.00    -0.090 HD
ATOM     21  H   LIG d   1       7.764  71.758 113.988  0.00  0.00    -0.090 HD
ENDBRANCH   5  18
BRANCH   3  22
ATOM     22  C   LIG d   1      11.549  69.197 114.763  0.00  0.00     0.382 C 
ATOM     23  O   LIG d   1      10.648  68.378 115.065  0.00  0.00    -0.241 OA
ATOM     24  O   LIG d   1      12.722  68.799 114.634  0.00  0.00    -0.241 OA
ENDBRANCH   3  22
TORSDOF 7
ENDMDL
MODEL 7
REMARK VINA RESULT:      -4.3     10.414     12.158
REMARK  7 active torsions:
REMARK  status: ('A' for Active; 'I' for Inactive)
REMARK    1  A    between atoms: C_2  and  C_3 
REMARK    2  A    between atoms: C_3  and  O_6 
REMARK    3  A    between atoms: C_3  and  C_4 
REMARK    4  A    between atoms: C_7  and  O_6 
REMARK    5  A    between atoms: C_9  and  C_10 
REMARK    6  A    between atoms: N_15  and  C_14 
REMARK    7  A    between atoms: N_20  and  C_19 
REMARK       I    between atoms: C_22  and  N_20 
ROOT
ATOM      1  C   LIG d   1       2.049  86.057 115.174  0.00  0.00     0.161 C 
ATOM      2  C   LIG d   1       0.841  85.626 114.601  0.00  0.00     0.016 C 
ATOM      3  C   LIG d   1       0.715  85.245 113.245  0.00  0.00     0.038 C 
ATOM      4  C   LIG d   1       1.829  85.125 112.402  0.00  0.00     0.028 C 
ATOM      5  C   LIG d   1       2.989  86.033 112.798  0.00  0.00    -0.047 C 
ATOM      6  C   LIG d   1       3.298  85.827 114.298  0.00  0.00     0.091 C 
ENDROOT
BRANCH   1   7
ATOM      7  O   LIG d   1       2.223  85.445 116.466  0.00  0.00    -0.368 OA
BRANCH   7   8
ATOM      8  C   LIG d   1       1.377  84.303 116.750  0.00  0.00     0.119 C 
BRANCH   8   9
ATOM      9  C   LIG d   1       0.802  84.493 118.167  0.00  0.00     0.028 C 
ATOM     10  C   LIG d   1      -0.027  85.781 118.296  0.00  0.00     0.006 C 
ENDBRANCH   8   9
BRANCH   8  11
ATOM     11  C   LIG d   1       2.192  83.008 116.813  0.00  0.00     0.028 C 
ATOM     12  C   LIG d   1       2.444  82.394 115.427  0.00  0.00     0.006 C 
ENDBRANCH   8  11
ENDBRANCH   7   8
ENDBRANCH   1   7
BRANCH   6  13
ATOM     13  N   LIG d   1       4.365  86.739 114.787  0.00  0.00    -0.311 N 
ATOM     14  C   LIG d   1       5.302  86.370 115.659  0.00  0.00     0.210 C 
ATOM     15  C   LIG d   1       6.294  87.471 116.046  0.00  0.00     0.109 C 
ATOM     16  O   LIG d   1       5.424  85.227 116.124  0.00  0.00    -0.276 OA
ATOM     17  H   LIG d   1       4.359  87.677 114.437  0.00  0.00     0.149 HD
ENDBRANCH   6  13
BRANCH   5  18
ATOM     18  N   LIG d   1       4.130  85.706 111.922  0.00  0.00     0.381 N 
ATOM     19  H   LIG d   1       3.941  84.861 111.421  0.00  0.00    -0.090 HD
ATOM     20  H   LIG d   1       4.945  85.560 112.491  0.00  0.00    -0.090 HD
ATOM     21  H   LIG d   1       4.292  86.451 111.281  0.00  0.00    -0.090 HD
ENDBRANCH   5  18
BRANCH   3  22
ATOM     22  C   LIG d   1      -0.544  85.018 112.709  0.00  0.00     0.382 C 
ATOM     23  O   LIG d   1      -1.295  85.986 112.442  0.00  0.00    -0.241 OA
ATOM     24  O   LIG d   1      -0.954  83.855 112.532  0.00  0.00    -0.241 OA
ENDBRANCH   3  22
TORSDOF 7
ENDMDL
MODEL 8
REMARK VINA RESULT:      -4.2      9.563     12.269
REMARK  7 active torsions:
REMARK  status: ('A' for Active; 'I' for Inactive)
REMARK    1  A    between atoms: C_2  and  C_3 
REMARK    2  A    between atoms: C_3  and  O_6 
REMARK    3  A    between atoms: C_3  and  C_4 
REMARK    4  A    between atoms: C_7  and  O_6 
REMARK    5  A    between atoms: C_9  and  C_10 
REMARK    6  A    between atoms: N_15  and  C_14 
REMARK    7  A    between atoms: N_20  and  C_19 
REMARK       I    between atoms: C_22  and  N_20 
ROOT
ATOM      1  C   LIG d   1       3.130  85.491 113.434  0.00  0.00     0.161 C 
ATOM      2  C   LIG d   1       3.622  86.687 112.886  0.00  0.00     0.016 C 
ATOM      3  C   LIG d   1       4.679  87.429 113.461  0.00  0.00     0.038 C 
ATOM      4  C   LIG d   1       5.422  86.942 114.546  0.00  0.00     0.028 C 
ATOM      5  C   LIG d   1       4.638  85.985 115.437  0.00  0.00    -0.047 C 
ATOM      6  C   LIG d   1       4.002  84.887 114.555  0.00  0.00     0.091 C 
ENDROOT
BRANCH   1   7
ATOM      7  O   LIG d   1       2.921  84.523 112.386  0.00  0.00    -0.368 OA
BRANCH   7   8
ATOM      8  C   LIG d   1       1.550  84.334 111.957  0.00  0.00     0.119 C 
BRANCH   8   9
ATOM      9  C   LIG d   1       0.637  84.846 113.089  0.00  0.00     0.028 C 
ATOM     10  C   LIG d   1      -0.560  85.653 112.558  0.00  0.00     0.006 C 
ENDBRANCH   8   9
BRANCH   8  11
ATOM     11  C   LIG d   1       1.213  82.848 111.805  0.00  0.00     0.028 C 
ATOM     12  C   LIG d   1       2.430  81.936 112.030  0.00  0.00     0.006 C 
ENDBRANCH   8  11
ENDBRANCH   7   8
ENDBRANCH   1   7
BRANCH   6  13
ATOM     13  N   LIG d   1       3.147  83.956 115.337  0.00  0.00    -0.311 N 
ATOM     14  C   LIG d   1       3.457  82.678 115.549  0.00  0.00     0.210 C 
ATOM     15  C   LIG d   1       2.428  81.889 116.365  0.00  0.00     0.109 C 
ATOM     16  O   LIG d   1       4.503  82.132 115.167  0.00  0.00    -0.276 OA
ATOM     17  H   LIG d   1       2.294  84.325 115.711  0.00  0.00     0.149 HD
ENDBRANCH   6  13
BRANCH   5  18
ATOM     18  N   LIG d   1       5.571  85.449 116.445  0.00  0.00     0.381 N 
ATOM     19  H   LIG d   1       5.876  86.185 117.050  0.00  0.00    -0.090 HD
ATOM     20  H   LIG d   1       6.375  85.072 115.976  0.00  0.00    -0.090 HD
ATOM     21  H   LIG d   1       5.124  84.735 116.978  0.00  0.00    -0.090 HD
ENDBRANCH   5  18
BRANCH   3  22
ATOM     22  C   LIG d   1       4.976  88.693 112.973  0.00  0.00     0.382 C 
ATOM     23  O   LIG d   1       6.167  89.085 112.933  0.00  0.00    -0.241 OA
ATOM     24  O   LIG d   1       4.065  89.462 112.613  0.00  0.00    -0.241 OA
ENDBRANCH   3  22
TORSDOF 7
ENDMDL
MODEL 9
REMARK VINA RESULT:      -4.0      2.694      5.279
REMARK  7 active torsions:
REMARK  status: ('A' for Active; 'I' for Inactive)
REMARK    1  A    between atoms: C_2  and  C_3 
REMARK    2  A    between atoms: C_3  and  O_6 
REMARK    3  A    between atoms: C_3  and  C_4 
REMARK    4  A    between atoms: C_7  and  O_6 
REMARK    5  A    between atoms: C_9  and  C_10 
REMARK    6  A    between atoms: N_15  and  C_14 
REMARK    7  A    between atoms: N_20  and  C_19 
REMARK       I    between atoms: C_22  and  N_20 
ROOT
ATOM      1  C   LIG d   1      12.054  75.705 114.022  0.00  0.00     0.161 C 
ATOM      2  C   LIG d   1      11.318  76.850 114.368  0.00  0.00     0.016 C 
ATOM      3  C   LIG d   1      10.016  76.802 114.916  0.00  0.00     0.038 C 
ATOM      4  C   LIG d   1       9.417  75.593 115.299  0.00  0.00     0.028 C 
ATOM      5  C   LIG d   1       9.917  74.391 114.505  0.00  0.00    -0.047 C 
ATOM      6  C   LIG d   1      11.462  74.376 114.536  0.00  0.00     0.091 C 
ENDROOT
BRANCH   1   7
ATOM      7  O   LIG d   1      13.419  75.849 114.465  0.00  0.00    -0.368 OA
BRANCH   7   8
ATOM      8  C   LIG d   1      14.027  77.145 114.242  0.00  0.00     0.119 C 
BRANCH   8   9
ATOM      9  C   LIG d   1      15.039  76.990 113.090  0.00  0.00     0.028 C 
ATOM     10  C   LIG d   1      14.581  77.701 111.806  0.00  0.00     0.006 C 
ENDBRANCH   8   9
BRANCH   8  11
ATOM     11  C   LIG d   1      14.854  77.588 115.452  0.00  0.00     0.028 C 
ATOM     12  C   LIG d   1      14.102  77.420 116.782  0.00  0.00     0.006 C 
ENDBRANCH   8  11
ENDBRANCH   7   8
ENDBRANCH   1   7
BRANCH   6  13
ATOM     13  N   LIG d   1      12.035  73.279 113.713  0.00  0.00    -0.311 N 
ATOM     14  C   LIG d   1      12.853  72.348 114.199  0.00  0.00     0.210 C 
ATOM     15  C   LIG d   1      13.346  71.321 113.175  0.00  0.00     0.109 C 
ATOM     16  O   LIG d   1      13.193  72.256 115.389  0.00  0.00    -0.276 OA
ATOM     17  H   LIG d   1      11.787  73.260 112.743  0.00  0.00     0.149 HD
ENDBRANCH   6  13
BRANCH   5  18
ATOM     18  N   LIG d   1       9.314  73.182 115.099  0.00  0.00     0.381 N 
ATOM     19  H   LIG d   1      10.032  72.523 115.327  0.00  0.00    -0.090 HD
ATOM     20  H   LIG d   1       8.701  72.760 114.424  0.00  0.00    -0.090 HD
ATOM     21  H   LIG d   1       8.802  73.424 115.919  0.00  0.00    -0.090 HD
ENDBRANCH   5  18
BRANCH   3  22
ATOM     22  C   LIG d   1       9.282  77.971 115.049  0.00  0.00     0.382 C 
ATOM     23  O   LIG d   1       9.809  78.987 115.564  0.00  0.00    -0.241 OA
ATOM     24  O   LIG d   1       8.087  78.011 114.700  0.00  0.00    -0.241 OA
ENDBRANCH   3  22
TORSDOF 7
ENDMDL
