MODEL 1
REMARK VINA RESULT:      -5.6      0.000      0.000
REMARK  7 active torsions:
REMARK  status: ('A' for Active; 'I' for Inactive)
REMARK    1  A    between atoms: C_2  and  C_3 
REMARK    2  A    between atoms: C_3  and  O_6 
REMARK    3  A    between atoms: C_3  and  C_4 
REMARK    4  A    between atoms: C_7  and  O_6 
REMARK    5  A    between atoms: C_9  and  C_10 
REMARK    6  A    between atoms: N_15  and  C_14 
REMARK    7  A    between atoms: N_20  and  C_19 
REMARK       I    between atoms: C_22  and  N_20 
ROOT
ATOM      1  C   LIG d   1      -5.410  90.921 117.449  0.00  0.00     0.161 C 
ATOM      2  C   LIG d   1      -4.800  89.910 116.688  0.00  0.00     0.016 C 
ATOM      3  C   LIG d   1      -5.061  89.704 115.314  0.00  0.00     0.038 C 
ATOM      4  C   LIG d   1      -5.842  90.598 114.566  0.00  0.00     0.028 C 
ATOM      5  C   LIG d   1      -6.880  91.341 115.401  0.00  0.00    -0.047 C 
ATOM      6  C   LIG d   1      -6.180  91.975 116.625  0.00  0.00     0.091 C 
ENDROOT
BRANCH   1   7
ATOM      7  O   LIG d   1      -4.429  91.561 118.288  0.00  0.00    -0.368 OA
BRANCH   7   8
ATOM      8  C   LIG d   1      -3.101  91.698 117.725  0.00  0.00     0.119 C 
BRANCH   8   9
ATOM      9  C   LIG d   1      -2.153  90.809 118.554  0.00  0.00     0.028 C 
ATOM     10  C   LIG d   1      -1.168  90.021 117.675  0.00  0.00     0.006 C 
ENDBRANCH   8   9
BRANCH   8  11
ATOM     11  C   LIG d   1      -2.569  93.124 117.892  0.00  0.00     0.028 C 
ATOM     12  C   LIG d   1      -3.666  94.190 117.746  0.00  0.00     0.006 C 
ENDBRANCH   8  11
ENDBRANCH   7   8
ENDBRANCH   1   7
BRANCH   6  13
ATOM     13  N   LIG d   1      -7.138  92.649 117.539  0.00  0.00    -0.311 N 
ATOM     14  C   LIG d   1      -7.444  93.943 117.456  0.00  0.00     0.210 C 
ATOM     15  C   LIG d   1      -8.438  94.441 118.509  0.00  0.00     0.109 C 
ATOM     16  O   LIG d   1      -7.011  94.718 116.589  0.00  0.00    -0.276 OA
ATOM     17  H   LIG d   1      -7.560  92.088 118.253  0.00  0.00     0.149 HD
ENDBRANCH   6  13
BRANCH   5  18
ATOM     18  N   LIG d   1      -7.528  92.336 114.525  0.00  0.00     0.381 N 
ATOM     19  H   LIG d   1      -8.312  92.741 114.996  0.00  0.00    -0.090 HD
ATOM     20  H   LIG d   1      -7.861  91.873 113.698  0.00  0.00    -0.090 HD
ATOM     21  H   LIG d   1      -6.876  93.047 114.277  0.00  0.00    -0.090 HD
ENDBRANCH   5  18
BRANCH   3  22
ATOM     22  C   LIG d   1      -4.570  88.572 114.683  0.00  0.00     0.382 C 
ATOM     23  O   LIG d   1      -5.004  88.247 113.552  0.00  0.00    -0.241 OA
ATOM     24  O   LIG d   1      -3.732  87.846 115.250  0.00  0.00    -0.241 OA
ENDBRANCH   3  22
TORSDOF 7
ENDMDL
MODEL 2
REMARK VINA RESULT:      -5.0     18.608     21.055
REMARK  7 active torsions:
REMARK  status: ('A' for Active; 'I' for Inactive)
REMARK    1  A    between atoms: C_2  and  C_3 
REMARK    2  A    between atoms: C_3  and  O_6 
REMARK    3  A    between atoms: C_3  and  C_4 
REMARK    4  A    between atoms: C_7  and  O_6 
REMARK    5  A    between atoms: C_9  and  C_10 
REMARK    6  A    between atoms: N_15  and  C_14 
REMARK    7  A    between atoms: N_20  and  C_19 
REMARK       I    between atoms: C_22  and  N_20 
ROOT
ATOM      1  C   LIG d   1      10.414  78.755 114.703  0.00  0.00     0.161 C 
ATOM      2  C   LIG d   1       9.091  78.925 115.144  0.00  0.00     0.016 C 
ATOM      3  C   LIG d   1       8.253  77.851 115.523  0.00  0.00     0.038 C 
ATOM      4  C   LIG d   1       8.734  76.538 115.631  0.00  0.00     0.028 C 
ATOM      5  C   LIG d   1       9.917  76.248 114.713  0.00  0.00    -0.047 C 
ATOM      6  C   LIG d   1      10.991  77.340 114.921  0.00  0.00     0.091 C 
ENDROOT
BRANCH   1   7
ATOM      7  O   LIG d   1      11.265  79.743 115.318  0.00  0.00    -0.368 OA
BRANCH   7   8
ATOM      8  C   LIG d   1      11.424  80.987 114.593  0.00  0.00     0.119 C 
BRANCH   8   9
ATOM      9  C   LIG d   1      11.678  80.632 113.115  0.00  0.00     0.028 C 
ATOM     10  C   LIG d   1      11.085  81.673 112.151  0.00  0.00     0.006 C 
ENDBRANCH   8   9
BRANCH   8  11
ATOM     11  C   LIG d   1      12.675  81.742 115.050  0.00  0.00     0.028 C 
ATOM     12  C   LIG d   1      13.973  81.143 114.485  0.00  0.00     0.006 C 
ENDBRANCH   8  11
ENDBRANCH   7   8
ENDBRANCH   1   7
BRANCH   6  13
ATOM     13  N   LIG d   1      12.147  77.180 114.001  0.00  0.00    -0.311 N 
ATOM     14  C   LIG d   1      13.416  77.298 114.390  0.00  0.00     0.210 C 
ATOM     15  C   LIG d   1      14.453  77.115 113.277  0.00  0.00     0.109 C 
ATOM     16  O   LIG d   1      13.781  77.505 115.556  0.00  0.00    -0.276 OA
ATOM     17  H   LIG d   1      11.942  76.980 113.041  0.00  0.00     0.149 HD
ENDBRANCH   6  13
BRANCH   5  18
ATOM     18  N   LIG d   1      10.403  74.892 115.028  0.00  0.00     0.381 N 
ATOM     19  H   LIG d   1       9.847  74.213 114.547  0.00  0.00    -0.090 HD
ATOM     20  H   LIG d   1      10.310  74.734 116.016  0.00  0.00    -0.090 HD
ATOM     21  H   LIG d   1      11.358  74.801 114.758  0.00  0.00    -0.090 HD
ENDBRANCH   5  18
BRANCH   3  22
ATOM     22  C   LIG d   1       6.906  78.081 115.760  0.00  0.00     0.382 C 
ATOM     23  O   LIG d   1       6.483  79.256 115.882  0.00  0.00    -0.241 OA
ATOM     24  O   LIG d   1       6.117  77.127 115.896  0.00  0.00    -0.241 OA
ENDBRANCH   3  22
TORSDOF 7
ENDMDL
MODEL 3
REMARK VINA RESULT:      -4.8     18.413     21.492
REMARK  7 active torsions:
REMARK  status: ('A' for Active; 'I' for Inactive)
REMARK    1  A    between atoms: C_2  and  C_3 
REMARK    2  A    between atoms: C_3  and  O_6 
REMARK    3  A    between atoms: C_3  and  C_4 
REMARK    4  A    between atoms: C_7  and  O_6 
REMARK    5  A    between atoms: C_9  and  C_10 
REMARK    6  A    between atoms: N_15  and  C_14 
REMARK    7  A    between atoms: N_20  and  C_19 
REMARK       I    between atoms: C_22  and  N_20 
ROOT
ATOM      1  C   LIG d   1      11.411  78.875 115.054  0.00  0.00     0.161 C 
ATOM      2  C   LIG d   1      12.705  79.134 114.573  0.00  0.00     0.016 C 
ATOM      3  C   LIG d   1      13.566  78.130 114.075  0.00  0.00     0.038 C 
ATOM      4  C   LIG d   1      13.132  76.810 113.882  0.00  0.00     0.028 C 
ATOM      5  C   LIG d   1      12.003  76.400 114.822  0.00  0.00    -0.047 C 
ATOM      6  C   LIG d   1      10.880  77.459 114.748  0.00  0.00     0.091 C 
ENDROOT
BRANCH   1   7
ATOM      7  O   LIG d   1      10.496  79.871 114.557  0.00  0.00    -0.368 OA
BRANCH   7   8
ATOM      8  C   LIG d   1      10.979  81.237 114.559  0.00  0.00     0.119 C 
BRANCH   8   9
ATOM      9  C   LIG d   1      10.202  82.002 115.648  0.00  0.00     0.028 C 
ATOM     10  C   LIG d   1       9.770  83.403 115.186  0.00  0.00     0.006 C 
ENDBRANCH   8   9
BRANCH   8  11
ATOM     11  C   LIG d   1      10.643  81.949 113.245  0.00  0.00     0.028 C 
ATOM     12  C   LIG d   1      11.421  81.386 112.046  0.00  0.00     0.006 C 
ENDBRANCH   8  11
ENDBRANCH   7   8
ENDBRANCH   1   7
BRANCH   6  13
ATOM     13  N   LIG d   1       9.773  77.178 115.700  0.00  0.00    -0.311 N 
ATOM     14  C   LIG d   1       8.717  76.426 115.396  0.00  0.00     0.210 C 
ATOM     15  C   LIG d   1       7.682  76.281 116.516  0.00  0.00     0.109 C 
ATOM     16  O   LIG d   1       8.555  75.839 114.316  0.00  0.00    -0.276 OA
ATOM     17  H   LIG d   1       9.839  77.590 116.610  0.00  0.00     0.149 HD
ENDBRANCH   6  13
BRANCH   5  18
ATOM     18  N   LIG d   1      11.556  75.053 114.420  0.00  0.00     0.381 N 
ATOM     19  H   LIG d   1      10.658  75.111 113.984  0.00  0.00    -0.090 HD
ATOM     20  H   LIG d   1      11.471  74.480 115.242  0.00  0.00    -0.090 HD
ATOM     21  H   LIG d   1      12.214  74.648 113.791  0.00  0.00    -0.090 HD
ENDBRANCH   5  18
BRANCH   3  22
ATOM     22  C   LIG d   1      14.891  78.434 113.801  0.00  0.00     0.382 C 
ATOM     23  O   LIG d   1      15.212  78.877 112.672  0.00  0.00    -0.241 OA
ATOM     24  O   LIG d   1      15.776  78.228 114.654  0.00  0.00    -0.241 OA
ENDBRANCH   3  22
TORSDOF 7
ENDMDL
MODEL 4
REMARK VINA RESULT:      -4.8     14.710     16.731
REMARK  7 active torsions:
REMARK  status: ('A' for Active; 'I' for Inactive)
REMARK    1  A    between atoms: C_2  and  C_3 
REMARK    2  A    between atoms: C_3  and  O_6 
REMARK    3  A    between atoms: C_3  and  C_4 
REMARK    4  A    between atoms: C_7  and  O_6 
REMARK    5  A    between atoms: C_9  and  C_10 
REMARK    6  A    between atoms: N_15  and  C_14 
REMARK    7  A    between atoms: N_20  and  C_19 
REMARK       I    between atoms: C_22  and  N_20 
ROOT
ATOM      1  C   LIG d   1      -0.642  76.604 115.076  0.00  0.00     0.161 C 
ATOM      2  C   LIG d   1       0.677  76.896 115.462  0.00  0.00     0.016 C 
ATOM      3  C   LIG d   1       1.024  77.374 116.746  0.00  0.00     0.038 C 
ATOM      4  C   LIG d   1       0.087  77.449 117.788  0.00  0.00     0.028 C 
ATOM      5  C   LIG d   1      -1.345  77.645 117.301  0.00  0.00    -0.047 C 
ATOM      6  C   LIG d   1      -1.663  76.574 116.233  0.00  0.00     0.091 C 
ENDROOT
BRANCH   1   7
ATOM      7  O   LIG d   1      -0.674  75.361 114.348  0.00  0.00    -0.368 OA
BRANCH   7   8
ATOM      8  C   LIG d   1       0.251  74.338 114.791  0.00  0.00     0.119 C 
BRANCH   8   9
ATOM      9  C   LIG d   1       0.763  73.601 113.539  0.00  0.00     0.028 C 
ATOM     10  C   LIG d   1       0.228  72.162 113.445  0.00  0.00     0.006 C 
ENDBRANCH   8   9
BRANCH   8  11
ATOM     11  C   LIG d   1      -0.458  73.270 115.629  0.00  0.00     0.028 C 
ATOM     12  C   LIG d   1      -0.472  73.601 117.130  0.00  0.00     0.006 C 
ENDBRANCH   8  11
ENDBRANCH   7   8
ENDBRANCH   1   7
BRANCH   6  13
ATOM     13  N   LIG d   1      -3.016  76.745 115.643  0.00  0.00    -0.311 N 
ATOM     14  C   LIG d   1      -3.852  75.733 115.419  0.00  0.00     0.210 C 
ATOM     15  C   LIG d   1      -5.190  76.127 114.785  0.00  0.00     0.109 C 
ATOM     16  O   LIG d   1      -3.624  74.550 115.713  0.00  0.00    -0.276 OA
ATOM     17  H   LIG d   1      -3.294  77.677 115.403  0.00  0.00     0.149 HD
ENDBRANCH   6  13
BRANCH   5  18
ATOM     18  N   LIG d   1      -2.230  77.567 118.479  0.00  0.00     0.381 N 
ATOM     19  H   LIG d   1      -3.184  77.504 118.182  0.00  0.00    -0.090 HD
ATOM     20  H   LIG d   1      -2.124  78.406 119.021  0.00  0.00    -0.090 HD
ATOM     21  H   LIG d   1      -1.994  76.773 119.032  0.00  0.00    -0.090 HD
ENDBRANCH   5  18
BRANCH   3  22
ATOM     22  C   LIG d   1       2.314  77.821 116.988  0.00  0.00     0.382 C 
ATOM     23  O   LIG d   1       2.505  78.987 117.410  0.00  0.00    -0.241 OA
ATOM     24  O   LIG d   1       3.292  77.089 116.746  0.00  0.00    -0.241 OA
ENDBRANCH   3  22
TORSDOF 7
ENDMDL
MODEL 5
REMARK VINA RESULT:      -4.8      9.498     11.418
REMARK  7 active torsions:
REMARK  status: ('A' for Active; 'I' for Inactive)
REMARK    1  A    between atoms: C_2  and  C_3 
REMARK    2  A    between atoms: C_3  and  O_6 
REMARK    3  A    between atoms: C_3  and  C_4 
REMARK    4  A    between atoms: C_7  and  O_6 
REMARK    5  A    between atoms: C_9  and  C_10 
REMARK    6  A    between atoms: N_15  and  C_14 
REMARK    7  A    between atoms: N_20  and  C_19 
REMARK       I    between atoms: C_22  and  N_20 
ROOT
ATOM      1  C   LIG d   1       2.805  86.218 113.700  0.00  0.00     0.161 C 
ATOM      2  C   LIG d   1       3.428  87.249 112.978  0.00  0.00     0.016 C 
ATOM      3  C   LIG d   1       4.297  88.196 113.568  0.00  0.00     0.038 C 
ATOM      4  C   LIG d   1       4.723  88.083 114.900  0.00  0.00     0.028 C 
ATOM      5  C   LIG d   1       3.726  87.354 115.795  0.00  0.00    -0.047 C 
ATOM      6  C   LIG d   1       3.344  86.012 115.131  0.00  0.00     0.091 C 
ENDROOT
BRANCH   1   7
ATOM      7  O   LIG d   1       2.878  84.986 112.954  0.00  0.00    -0.368 OA
BRANCH   7   8
ATOM      8  C   LIG d   1       1.778  84.722 112.049  0.00  0.00     0.119 C 
BRANCH   8   9
ATOM      9  C   LIG d   1       0.483  85.173 112.752  0.00  0.00     0.028 C 
ATOM     10  C   LIG d   1      -0.464  85.931 111.806  0.00  0.00     0.006 C 
ENDBRANCH   8   9
BRANCH   8  11
ATOM     11  C   LIG d   1       1.605  83.220 111.806  0.00  0.00     0.028 C 
ATOM     12  C   LIG d   1       1.218  82.451 113.078  0.00  0.00     0.006 C 
ENDBRANCH   8  11
ENDBRANCH   7   8
ENDBRANCH   1   7
BRANCH   6  13
ATOM     13  N   LIG d   1       2.309  85.273 115.900  0.00  0.00    -0.311 N 
ATOM     14  C   LIG d   1       2.406  83.981 116.207  0.00  0.00     0.210 C 
ATOM     15  C   LIG d   1       1.218  83.411 116.988  0.00  0.00     0.109 C 
ATOM     16  O   LIG d   1       3.378  83.261 115.935  0.00  0.00    -0.276 OA
ATOM     17  H   LIG d   1       1.500  85.789 116.188  0.00  0.00     0.149 HD
ENDBRANCH   6  13
BRANCH   5  18
ATOM     18  N   LIG d   1       4.356  87.186 117.118  0.00  0.00     0.381 N 
ATOM     19  H   LIG d   1       3.672  87.314 117.837  0.00  0.00    -0.090 HD
ATOM     20  H   LIG d   1       5.067  87.887 117.231  0.00  0.00    -0.090 HD
ATOM     21  H   LIG d   1       4.759  86.278 117.191  0.00  0.00    -0.090 HD
ENDBRANCH   5  18
BRANCH   3  22
ATOM     22  C   LIG d   1       4.718  89.294 112.833  0.00  0.00     0.382 C 
ATOM     23  O   LIG d   1       5.719  89.199 112.082  0.00  0.00    -0.241 OA
ATOM     24  O   LIG d   1       4.137  90.390 112.945  0.00  0.00    -0.241 OA
ENDBRANCH   3  22
TORSDOF 7
ENDMDL
MODEL 6
REMARK VINA RESULT:      -4.7     18.251     21.231
REMARK  7 active torsions:
REMARK  status: ('A' for Active; 'I' for Inactive)
REMARK    1  A    between atoms: C_2  and  C_3 
REMARK    2  A    between atoms: C_3  and  O_6 
REMARK    3  A    between atoms: C_3  and  C_4 
REMARK    4  A    between atoms: C_7  and  O_6 
REMARK    5  A    between atoms: C_9  and  C_10 
REMARK    6  A    between atoms: N_15  and  C_14 
REMARK    7  A    between atoms: N_20  and  C_19 
REMARK       I    between atoms: C_22  and  N_20 
ROOT
ATOM      1  C   LIG d   1      11.169  79.228 115.622  0.00  0.00     0.161 C 
ATOM      2  C   LIG d   1      10.407  80.396 115.453  0.00  0.00     0.016 C 
ATOM      3  C   LIG d   1      10.531  81.251 114.334  0.00  0.00     0.038 C 
ATOM      4  C   LIG d   1      11.325  80.913 113.228  0.00  0.00     0.028 C 
ATOM      5  C   LIG d   1      12.493  79.997 113.577  0.00  0.00    -0.047 C 
ATOM      6  C   LIG d   1      11.959  78.785 114.373  0.00  0.00     0.091 C 
ENDROOT
BRANCH   1   7
ATOM      7  O   LIG d   1      10.324  78.156 116.087  0.00  0.00    -0.368 OA
BRANCH   7   8
ATOM      8  C   LIG d   1       9.463  77.547 115.093  0.00  0.00     0.119 C 
BRANCH   8   9
ATOM      9  C   LIG d   1       8.031  77.541 115.663  0.00  0.00     0.028 C 
ATOM     10  C   LIG d   1       7.207  78.752 115.193  0.00  0.00     0.006 C 
ENDBRANCH   8   9
BRANCH   8  11
ATOM     11  C   LIG d   1       9.819  76.074 114.875  0.00  0.00     0.028 C 
ATOM     12  C   LIG d   1      10.456  75.425 116.114  0.00  0.00     0.006 C 
ENDBRANCH   8  11
ENDBRANCH   7   8
ENDBRANCH   1   7
BRANCH   6  13
ATOM     13  N   LIG d   1      13.048  77.881 114.828  0.00  0.00    -0.311 N 
ATOM     14  C   LIG d   1      13.493  76.850 114.110  0.00  0.00     0.210 C 
ATOM     15  C   LIG d   1      14.608  76.035 114.772  0.00  0.00     0.109 C 
ATOM     16  O   LIG d   1      13.092  76.554 112.975  0.00  0.00    -0.276 OA
ATOM     17  H   LIG d   1      13.452  78.068 115.725  0.00  0.00     0.149 HD
ENDBRANCH   6  13
BRANCH   5  18
ATOM     18  N   LIG d   1      13.153  79.615 112.314  0.00  0.00     0.381 N 
ATOM     19  H   LIG d   1      12.462  79.417 111.618  0.00  0.00    -0.090 HD
ATOM     20  H   LIG d   1      13.692  78.781 112.469  0.00  0.00    -0.090 HD
ATOM     21  H   LIG d   1      13.747  80.351 112.003  0.00  0.00    -0.090 HD
ENDBRANCH   5  18
BRANCH   3  22
ATOM     22  C   LIG d   1       9.888  82.479 114.333  0.00  0.00     0.382 C 
ATOM     23  O   LIG d   1       9.961  83.224 113.326  0.00  0.00    -0.241 OA
ATOM     24  O   LIG d   1       9.271  82.870 115.342  0.00  0.00    -0.241 OA
ENDBRANCH   3  22
TORSDOF 7
ENDMDL
MODEL 7
REMARK VINA RESULT:      -4.6      7.068      9.805
REMARK  7 active torsions:
REMARK  status: ('A' for Active; 'I' for Inactive)
REMARK    1  A    between atoms: C_2  and  C_3 
REMARK    2  A    between atoms: C_3  and  O_6 
REMARK    3  A    between atoms: C_3  and  C_4 
REMARK    4  A    between atoms: C_7  and  O_6 
REMARK    5  A    between atoms: C_9  and  C_10 
REMARK    6  A    between atoms: N_15  and  C_14 
REMARK    7  A    between atoms: N_20  and  C_19 
REMARK       I    between atoms: C_22  and  N_20 
ROOT
ATOM      1  C   LIG d   1       2.092  87.266 114.724  0.00  0.00     0.161 C 
ATOM      2  C   LIG d   1       2.860  88.371 114.321  0.00  0.00     0.016 C 
ATOM      3  C   LIG d   1       3.687  88.367 113.174  0.00  0.00     0.038 C 
ATOM      4  C   LIG d   1       3.684  87.302 112.261  0.00  0.00     0.028 C 
ATOM      5  C   LIG d   1       3.309  85.965 112.892  0.00  0.00    -0.047 C 
ATOM      6  C   LIG d   1       1.990  86.134 113.679  0.00  0.00     0.091 C 
ENDROOT
BRANCH   1   7
ATOM      7  O   LIG d   1       0.776  87.703 115.118  0.00  0.00    -0.368 OA
BRANCH   7   8
ATOM      8  C   LIG d   1       0.390  87.410 116.483  0.00  0.00     0.119 C 
BRANCH   8   9
ATOM      9  C   LIG d   1      -0.885  86.546 116.429  0.00  0.00     0.028 C 
ATOM     10  C   LIG d   1      -2.161  87.364 116.687  0.00  0.00     0.006 C 
ENDBRANCH   8   9
BRANCH   8  11
ATOM     11  C   LIG d   1      -0.015  88.683 117.233  0.00  0.00     0.028 C 
ATOM     12  C   LIG d   1       1.145  89.680 117.384  0.00  0.00     0.006 C 
ENDBRANCH   8  11
ENDBRANCH   7   8
ENDBRANCH   1   7
BRANCH   6  13
ATOM     13  N   LIG d   1       1.596  84.894 114.397  0.00  0.00    -0.311 N 
ATOM     14  C   LIG d   1       0.508  84.186 114.095  0.00  0.00     0.210 C 
ATOM     15  C   LIG d   1       0.276  82.952 114.972  0.00  0.00     0.109 C 
ATOM     16  O   LIG d   1      -0.268  84.446 113.163  0.00  0.00    -0.276 OA
ATOM     17  H   LIG d   1       2.187  84.594 115.147  0.00  0.00     0.149 HD
ENDBRANCH   6  13
BRANCH   5  18
ATOM     18  N   LIG d   1       3.211  84.972 111.805  0.00  0.00     0.381 N 
ATOM     19  H   LIG d   1       3.922  85.146 111.123  0.00  0.00    -0.090 HD
ATOM     20  H   LIG d   1       2.315  85.066 111.359  0.00  0.00    -0.090 HD
ATOM     21  H   LIG d   1       3.311  84.052 112.174  0.00  0.00    -0.090 HD
ENDBRANCH   5  18
BRANCH   3  22
ATOM     22  C   LIG d   1       4.559  89.423 112.952  0.00  0.00     0.382 C 
ATOM     23  O   LIG d   1       4.336  90.540 113.477  0.00  0.00    -0.241 OA
ATOM     24  O   LIG d   1       5.540  89.283 112.199  0.00  0.00    -0.241 OA
ENDBRANCH   3  22
TORSDOF 7
ENDMDL
MODEL 8
REMARK VINA RESULT:      -4.6     12.403     15.121
REMARK  7 active torsions:
REMARK  status: ('A' for Active; 'I' for Inactive)
REMARK    1  A    between atoms: C_2  and  C_3 
REMARK    2  A    between atoms: C_3  and  O_6 
REMARK    3  A    between atoms: C_3  and  C_4 
REMARK    4  A    between atoms: C_7  and  O_6 
REMARK    5  A    between atoms: C_9  and  C_10 
REMARK    6  A    between atoms: N_15  and  C_14 
REMARK    7  A    between atoms: N_20  and  C_19 
REMARK       I    between atoms: C_22  and  N_20 
ROOT
ATOM      1  C   LIG d   1       0.098  78.837 114.789  0.00  0.00     0.161 C 
ATOM      2  C   LIG d   1       1.311  79.544 114.850  0.00  0.00     0.016 C 
ATOM      3  C   LIG d   1       2.419  79.122 115.620  0.00  0.00     0.038 C 
ATOM      4  C   LIG d   1       2.442  77.876 116.265  0.00  0.00     0.028 C 
ATOM      5  C   LIG d   1       1.056  77.364 116.643  0.00  0.00    -0.047 C 
ATOM      6  C   LIG d   1       0.143  77.420 115.397  0.00  0.00     0.091 C 
ENDROOT
BRANCH   1   7
ATOM      7  O   LIG d   1      -0.367  78.783 113.426  0.00  0.00    -0.368 OA
BRANCH   7   8
ATOM      8  C   LIG d   1      -1.197  79.887 112.990  0.00  0.00     0.119 C 
BRANCH   8   9
ATOM      9  C   LIG d   1      -2.363  79.297 112.174  0.00  0.00     0.028 C 
ATOM     10  C   LIG d   1      -2.552  77.791 112.425  0.00  0.00     0.006 C 
ENDBRANCH   8   9
BRANCH   8  11
ATOM     11  C   LIG d   1      -0.444  80.801 112.019  0.00  0.00     0.028 C 
ATOM     12  C   LIG d   1      -0.819  82.283 112.183  0.00  0.00     0.006 C 
ENDBRANCH   8  11
ENDBRANCH   7   8
ENDBRANCH   1   7
BRANCH   6  13
ATOM     13  N   LIG d   1      -1.254  77.015 115.700  0.00  0.00    -0.311 N 
ATOM     14  C   LIG d   1      -1.716  75.780 115.515  0.00  0.00     0.210 C 
ATOM     15  C   LIG d   1      -3.193  75.581 115.872  0.00  0.00     0.109 C 
ATOM     16  O   LIG d   1      -1.035  74.822 115.119  0.00  0.00    -0.276 OA
ATOM     17  H   LIG d   1      -1.867  77.723 116.055  0.00  0.00     0.149 HD
ENDBRANCH   6  13
BRANCH   5  18
ATOM     18  N   LIG d   1       1.217  76.000 117.182  0.00  0.00     0.381 N 
ATOM     19  H   LIG d   1       1.033  76.000 118.165  0.00  0.00    -0.090 HD
ATOM     20  H   LIG d   1       2.166  75.704 117.038  0.00  0.00    -0.090 HD
ATOM     21  H   LIG d   1       0.593  75.376 116.720  0.00  0.00    -0.090 HD
ENDBRANCH   5  18
BRANCH   3  22
ATOM     22  C   LIG d   1       3.505  79.968 115.782  0.00  0.00     0.382 C 
ATOM     23  O   LIG d   1       4.668  79.497 115.810  0.00  0.00    -0.241 OA
ATOM     24  O   LIG d   1       3.335  81.191 115.946  0.00  0.00    -0.241 OA
ENDBRANCH   3  22
TORSDOF 7
ENDMDL
MODEL 9
REMARK VINA RESULT:      -4.5     20.499     23.694
REMARK  7 active torsions:
REMARK  status: ('A' for Active; 'I' for Inactive)
REMARK    1  A    between atoms: C_2  and  C_3 
REMARK    2  A    between atoms: C_3  and  O_6 
REMARK    3  A    between atoms: C_3  and  C_4 
REMARK    4  A    between atoms: C_7  and  O_6 
REMARK    5  A    between atoms: C_9  and  C_10 
REMARK    6  A    between atoms: N_15  and  C_14 
REMARK    7  A    between atoms: N_20  and  C_19 
REMARK       I    between atoms: C_22  and  N_20 
ROOT
ATOM      1  C   LIG d   1      11.505  75.282 115.153  0.00  0.00     0.161 C 
ATOM      2  C   LIG d   1      10.146  75.300 115.506  0.00  0.00     0.016 C 
ATOM      3  C   LIG d   1       9.328  76.448 115.392  0.00  0.00     0.038 C 
ATOM      4  C   LIG d   1       9.780  77.622 114.772  0.00  0.00     0.028 C 
ATOM      5  C   LIG d   1      11.290  77.812 114.862  0.00  0.00    -0.047 C 
ATOM      6  C   LIG d   1      11.987  76.522 114.371  0.00  0.00     0.091 C 
ENDROOT
BRANCH   1   7
ATOM      7  O   LIG d   1      11.804  74.079 114.418  0.00  0.00    -0.368 OA
BRANCH   7   8
ATOM      8  C   LIG d   1      12.402  73.000 115.177  0.00  0.00     0.119 C 
BRANCH   8   9
ATOM      9  C   LIG d   1      13.929  73.203 115.145  0.00  0.00     0.028 C 
ATOM     10  C   LIG d   1      14.488  73.670 116.500  0.00  0.00     0.006 C 
ENDBRANCH   8   9
BRANCH   8  11
ATOM     11  C   LIG d   1      12.159  71.645 114.506  0.00  0.00     0.028 C 
ATOM     12  C   LIG d   1      13.101  70.546 115.023  0.00  0.00     0.006 C 
ENDBRANCH   8  11
ENDBRANCH   7   8
ENDBRANCH   1   7
BRANCH   6  13
ATOM     13  N   LIG d   1      13.466  76.591 114.505  0.00  0.00    -0.311 N 
ATOM     14  C   LIG d   1      14.276  76.952 113.511  0.00  0.00     0.210 C 
ATOM     15  C   LIG d   1      15.768  76.937 113.855  0.00  0.00     0.109 C 
ATOM     16  O   LIG d   1      13.898  77.314 112.387  0.00  0.00    -0.276 OA
ATOM     17  H   LIG d   1      13.856  76.344 115.393  0.00  0.00     0.149 HD
ENDBRANCH   6  13
BRANCH   5  18
ATOM     18  N   LIG d   1      11.639  78.999 114.058  0.00  0.00     0.381 N 
ATOM     19  H   LIG d   1      11.185  78.950 113.168  0.00  0.00    -0.090 HD
ATOM     20  H   LIG d   1      12.632  79.008 113.906  0.00  0.00    -0.090 HD
ATOM     21  H   LIG d   1      11.361  79.827 114.537  0.00  0.00    -0.090 HD
ENDBRANCH   5  18
BRANCH   3  22
ATOM     22  C   LIG d   1       8.053  76.440 115.939  0.00  0.00     0.382 C 
ATOM     23  O   LIG d   1       7.837  75.835 117.016  0.00  0.00    -0.241 OA
ATOM     24  O   LIG d   1       7.108  76.993 115.346  0.00  0.00    -0.241 OA
ENDBRANCH   3  22
TORSDOF 7
ENDMDL
