MODEL 1
REMARK VINA RESULT:      -4.6      0.000      0.000
REMARK  7 active torsions:
REMARK  status: ('A' for Active; 'I' for Inactive)
REMARK    1  A    between atoms: C_2  and  C_3 
REMARK    2  A    between atoms: C_3  and  O_6 
REMARK    3  A    between atoms: C_3  and  C_4 
REMARK    4  A    between atoms: C_7  and  O_6 
REMARK    5  A    between atoms: C_9  and  C_10 
REMARK    6  A    between atoms: N_15  and  C_14 
REMARK    7  A    between atoms: N_20  and  C_19 
REMARK       I    between atoms: C_22  and  N_20 
ROOT
ATOM      1  C   LIG d   1       3.386  88.426 116.433  0.00  0.00     0.161 C 
ATOM      2  C   LIG d   1       3.858  89.332 117.398  0.00  0.00     0.016 C 
ATOM      3  C   LIG d   1       4.645  90.464 117.083  0.00  0.00     0.038 C 
ATOM      4  C   LIG d   1       4.887  90.853 115.757  0.00  0.00     0.028 C 
ATOM      5  C   LIG d   1       4.855  89.691 114.769  0.00  0.00    -0.047 C 
ATOM      6  C   LIG d   1       3.545  88.896 114.972  0.00  0.00     0.091 C 
ENDROOT
BRANCH   1   7
ATOM      7  O   LIG d   1       2.009  88.097 116.706  0.00  0.00    -0.368 OA
BRANCH   7   8
ATOM      8  C   LIG d   1       1.303  88.995 117.597  0.00  0.00     0.119 C 
BRANCH   8   9
ATOM      9  C   LIG d   1       0.265  88.159 118.370  0.00  0.00     0.028 C 
ATOM     10  C   LIG d   1      -1.104  88.131 117.669  0.00  0.00     0.006 C 
ENDBRANCH   8   9
BRANCH   8  11
ATOM     11  C   LIG d   1       0.490  90.031 116.816  0.00  0.00     0.028 C 
ATOM     12  C   LIG d   1       0.787  91.474 117.252  0.00  0.00     0.006 C 
ENDBRANCH   8  11
ENDBRANCH   7   8
ENDBRANCH   1   7
BRANCH   6  13
ATOM     13  N   LIG d   1       3.473  87.692 114.103  0.00  0.00    -0.311 N 
ATOM     14  C   LIG d   1       2.896  87.689 112.902  0.00  0.00     0.210 C 
ATOM     15  C   LIG d   1       2.913  86.338 112.180  0.00  0.00     0.109 C 
ATOM     16  O   LIG d   1       2.400  88.685 112.353  0.00  0.00    -0.276 OA
ATOM     17  H   LIG d   1       3.878  86.848 114.457  0.00  0.00     0.149 HD
ENDBRANCH   6  13
BRANCH   5  18
ATOM     18  N   LIG d   1       4.984  90.256 113.413  0.00  0.00     0.381 N 
ATOM     19  H   LIG d   1       5.903  90.631 113.288  0.00  0.00    -0.090 HD
ATOM     20  H   LIG d   1       4.322  91.004 113.308  0.00  0.00    -0.090 HD
ATOM     21  H   LIG d   1       4.810  89.550 112.732  0.00  0.00    -0.090 HD
ENDBRANCH   5  18
BRANCH   3  22
ATOM     22  C   LIG d   1       5.232  91.197 118.102  0.00  0.00     0.382 C 
ATOM     23  O   LIG d   1       4.661  92.222 118.547  0.00  0.00    -0.241 OA
ATOM     24  O   LIG d   1       6.348  90.873 118.552  0.00  0.00    -0.241 OA
ENDBRANCH   3  22
TORSDOF 7
ENDMDL
MODEL 2
REMARK VINA RESULT:      -4.5     26.021     28.446
REMARK  7 active torsions:
REMARK  status: ('A' for Active; 'I' for Inactive)
REMARK    1  A    between atoms: C_2  and  C_3 
REMARK    2  A    between atoms: C_3  and  O_6 
REMARK    3  A    between atoms: C_3  and  C_4 
REMARK    4  A    between atoms: C_7  and  O_6 
REMARK    5  A    between atoms: C_9  and  C_10 
REMARK    6  A    between atoms: N_15  and  C_14 
REMARK    7  A    between atoms: N_20  and  C_19 
REMARK       I    between atoms: C_22  and  N_20 
ROOT
ATOM      1  C   LIG d   1     -23.973  83.481 113.304  0.00  0.00     0.161 C 
ATOM      2  C   LIG d   1     -22.951  84.428 113.479  0.00  0.00     0.016 C 
ATOM      3  C   LIG d   1     -23.177  85.823 113.499  0.00  0.00     0.038 C 
ATOM      4  C   LIG d   1     -24.471  86.364 113.495  0.00  0.00     0.028 C 
ATOM      5  C   LIG d   1     -25.500  85.470 112.811  0.00  0.00    -0.047 C 
ATOM      6  C   LIG d   1     -25.405  84.048 113.409  0.00  0.00     0.091 C 
ENDROOT
BRANCH   1   7
ATOM      7  O   LIG d   1     -23.796  82.392 114.231  0.00  0.00    -0.368 OA
BRANCH   7   8
ATOM      8  C   LIG d   1     -24.128  82.672 115.614  0.00  0.00     0.119 C 
BRANCH   8   9
ATOM      9  C   LIG d   1     -22.811  82.684 116.413  0.00  0.00     0.028 C 
ATOM     10  C   LIG d   1     -22.564  84.029 117.118  0.00  0.00     0.006 C 
ENDBRANCH   8   9
BRANCH   8  11
ATOM     11  C   LIG d   1     -24.963  81.544 116.226  0.00  0.00     0.028 C 
ATOM     12  C   LIG d   1     -25.217  80.390 115.243  0.00  0.00     0.006 C 
ENDBRANCH   8  11
ENDBRANCH   7   8
ENDBRANCH   1   7
BRANCH   6  13
ATOM     13  N   LIG d   1     -26.319  83.088 112.738  0.00  0.00    -0.311 N 
ATOM     14  C   LIG d   1     -27.397  82.570 113.324  0.00  0.00     0.210 C 
ATOM     15  C   LIG d   1     -28.192  81.585 112.461  0.00  0.00     0.109 C 
ATOM     16  O   LIG d   1     -27.789  82.857 114.465  0.00  0.00    -0.276 OA
ATOM     17  H   LIG d   1     -26.094  82.824 111.799  0.00  0.00     0.149 HD
ENDBRANCH   6  13
BRANCH   5  18
ATOM     18  N   LIG d   1     -26.825  86.089 113.001  0.00  0.00     0.381 N 
ATOM     19  H   LIG d   1     -26.971  86.796 112.308  0.00  0.00    -0.090 HD
ATOM     20  H   LIG d   1     -26.854  86.525 113.906  0.00  0.00    -0.090 HD
ATOM     21  H   LIG d   1     -27.538  85.396 112.935  0.00  0.00    -0.090 HD
ENDBRANCH   5  18
BRANCH   3  22
ATOM     22  C   LIG d   1     -22.099  86.694 113.482  0.00  0.00     0.382 C 
ATOM     23  O   LIG d   1     -22.091  87.697 114.237  0.00  0.00    -0.241 OA
ATOM     24  O   LIG d   1     -21.154  86.515 112.691  0.00  0.00    -0.241 OA
ENDBRANCH   3  22
TORSDOF 7
ENDMDL
MODEL 3
REMARK VINA RESULT:      -4.4      2.401      5.429
REMARK  7 active torsions:
REMARK  status: ('A' for Active; 'I' for Inactive)
REMARK    1  A    between atoms: C_2  and  C_3 
REMARK    2  A    between atoms: C_3  and  O_6 
REMARK    3  A    between atoms: C_3  and  C_4 
REMARK    4  A    between atoms: C_7  and  O_6 
REMARK    5  A    between atoms: C_9  and  C_10 
REMARK    6  A    between atoms: N_15  and  C_14 
REMARK    7  A    between atoms: N_20  and  C_19 
REMARK       I    between atoms: C_22  and  N_20 
ROOT
ATOM      1  C   LIG d   1       2.962  87.893 115.167  0.00  0.00     0.161 C 
ATOM      2  C   LIG d   1       2.860  86.761 114.341  0.00  0.00     0.016 C 
ATOM      3  C   LIG d   1       3.608  86.595 113.153  0.00  0.00     0.038 C 
ATOM      4  C   LIG d   1       4.627  87.487 112.788  0.00  0.00     0.028 C 
ATOM      5  C   LIG d   1       4.416  88.899 113.323  0.00  0.00    -0.047 C 
ATOM      6  C   LIG d   1       4.148  88.825 114.843  0.00  0.00     0.091 C 
ENDROOT
BRANCH   1   7
ATOM      7  O   LIG d   1       3.006  87.487 116.549  0.00  0.00    -0.368 OA
BRANCH   7   8
ATOM      8  C   LIG d   1       3.675  86.232 116.824  0.00  0.00     0.119 C 
BRANCH   8   9
ATOM      9  C   LIG d   1       2.789  85.439 117.804  0.00  0.00     0.028 C 
ATOM     10  C   LIG d   1       1.760  84.555 117.080  0.00  0.00     0.006 C 
ENDBRANCH   8   9
BRANCH   8  11
ATOM     11  C   LIG d   1       4.998  86.455 117.563  0.00  0.00     0.028 C 
ATOM     12  C   LIG d   1       6.219  86.395 116.631  0.00  0.00     0.006 C 
ENDBRANCH   8  11
ENDBRANCH   7   8
ENDBRANCH   1   7
BRANCH   6  13
ATOM     13  N   LIG d   1       3.847  90.156 115.431  0.00  0.00    -0.311 N 
ATOM     14  C   LIG d   1       4.479  90.647 116.497  0.00  0.00     0.210 C 
ATOM     15  C   LIG d   1       4.001  92.029 116.952  0.00  0.00     0.109 C 
ATOM     16  O   LIG d   1       5.411  90.082 117.088  0.00  0.00    -0.276 OA
ATOM     17  H   LIG d   1       3.126  90.696 114.995  0.00  0.00     0.149 HD
ENDBRANCH   6  13
BRANCH   5  18
ATOM     18  N   LIG d   1       5.616  89.688 112.985  0.00  0.00     0.381 N 
ATOM     19  H   LIG d   1       5.578  90.576 113.444  0.00  0.00    -0.090 HD
ATOM     20  H   LIG d   1       5.632  89.847 111.993  0.00  0.00    -0.090 HD
ATOM     21  H   LIG d   1       6.436  89.196 113.263  0.00  0.00    -0.090 HD
ENDBRANCH   5  18
BRANCH   3  22
ATOM     22  C   LIG d   1       3.312  85.546 112.296  0.00  0.00     0.382 C 
ATOM     23  O   LIG d   1       2.162  85.443 111.805  0.00  0.00    -0.241 OA
ATOM     24  O   LIG d   1       4.168  84.677 112.042  0.00  0.00    -0.241 OA
ENDBRANCH   3  22
TORSDOF 7
ENDMDL
MODEL 4
REMARK VINA RESULT:      -4.2     28.702     31.736
REMARK  7 active torsions:
REMARK  status: ('A' for Active; 'I' for Inactive)
REMARK    1  A    between atoms: C_2  and  C_3 
REMARK    2  A    between atoms: C_3  and  O_6 
REMARK    3  A    between atoms: C_3  and  C_4 
REMARK    4  A    between atoms: C_7  and  O_6 
REMARK    5  A    between atoms: C_9  and  C_10 
REMARK    6  A    between atoms: N_15  and  C_14 
REMARK    7  A    between atoms: N_20  and  C_19 
REMARK       I    between atoms: C_22  and  N_20 
ROOT
ATOM      1  C   LIG d   1     -17.986  66.008 116.293  0.00  0.00     0.161 C 
ATOM      2  C   LIG d   1     -16.611  66.095 116.567  0.00  0.00     0.016 C 
ATOM      3  C   LIG d   1     -16.043  67.095 117.390  0.00  0.00     0.038 C 
ATOM      4  C   LIG d   1     -16.836  67.992 118.121  0.00  0.00     0.028 C 
ATOM      5  C   LIG d   1     -18.194  68.261 117.481  0.00  0.00    -0.047 C 
ATOM      6  C   LIG d   1     -18.878  66.910 117.171  0.00  0.00     0.091 C 
ENDROOT
BRANCH   1   7
ATOM      7  O   LIG d   1     -18.416  64.635 116.385  0.00  0.00    -0.368 OA
BRANCH   7   8
ATOM      8  C   LIG d   1     -17.478  63.640 115.908  0.00  0.00     0.119 C 
BRANCH   8   9
ATOM      9  C   LIG d   1     -17.882  63.275 114.467  0.00  0.00     0.028 C 
ATOM     10  C   LIG d   1     -18.407  61.834 114.351  0.00  0.00     0.006 C 
ENDBRANCH   8   9
BRANCH   8  11
ATOM     11  C   LIG d   1     -17.596  62.337 116.705  0.00  0.00     0.028 C 
ATOM     12  C   LIG d   1     -16.529  62.212 117.804  0.00  0.00     0.006 C 
ENDBRANCH   8  11
ENDBRANCH   7   8
ENDBRANCH   1   7
BRANCH   6  13
ATOM     13  N   LIG d   1     -20.176  67.081 116.466  0.00  0.00    -0.311 N 
ATOM     14  C   LIG d   1     -21.346  67.169 117.096  0.00  0.00     0.210 C 
ATOM     15  C   LIG d   1     -22.564  67.322 116.180  0.00  0.00     0.109 C 
ATOM     16  O   LIG d   1     -21.488  67.167 118.328  0.00  0.00    -0.276 OA
ATOM     17  H   LIG d   1     -20.150  67.124 115.466  0.00  0.00     0.149 HD
ENDBRANCH   6  13
BRANCH   5  18
ATOM     18  N   LIG d   1     -18.968  69.100 118.415  0.00  0.00     0.381 N 
ATOM     19  H   LIG d   1     -19.286  68.546 119.184  0.00  0.00    -0.090 HD
ATOM     20  H   LIG d   1     -19.772  69.464 117.934  0.00  0.00    -0.090 HD
ATOM     21  H   LIG d   1     -18.403  69.850 118.748  0.00  0.00    -0.090 HD
ENDBRANCH   5  18
BRANCH   3  22
ATOM     22  C   LIG d   1     -14.664  67.230 117.456  0.00  0.00     0.382 C 
ATOM     23  O   LIG d   1     -13.994  67.343 116.401  0.00  0.00    -0.241 OA
ATOM     24  O   LIG d   1     -14.078  67.195 118.554  0.00  0.00    -0.241 OA
ENDBRANCH   3  22
TORSDOF 7
ENDMDL
MODEL 5
REMARK VINA RESULT:      -4.2      3.052      4.595
REMARK  7 active torsions:
REMARK  status: ('A' for Active; 'I' for Inactive)
REMARK    1  A    between atoms: C_2  and  C_3 
REMARK    2  A    between atoms: C_3  and  O_6 
REMARK    3  A    between atoms: C_3  and  C_4 
REMARK    4  A    between atoms: C_7  and  O_6 
REMARK    5  A    between atoms: C_9  and  C_10 
REMARK    6  A    between atoms: N_15  and  C_14 
REMARK    7  A    between atoms: N_20  and  C_19 
REMARK       I    between atoms: C_22  and  N_20 
ROOT
ATOM      1  C   LIG d   1       5.112  89.042 116.135  0.00  0.00     0.161 C 
ATOM      2  C   LIG d   1       4.686  90.372 116.290  0.00  0.00     0.016 C 
ATOM      3  C   LIG d   1       5.385  91.328 117.064  0.00  0.00     0.038 C 
ATOM      4  C   LIG d   1       6.646  91.057 117.615  0.00  0.00     0.028 C 
ATOM      5  C   LIG d   1       6.875  89.578 117.906  0.00  0.00    -0.047 C 
ATOM      6  C   LIG d   1       6.544  88.759 116.637  0.00  0.00     0.091 C 
ENDROOT
BRANCH   1   7
ATOM      7  O   LIG d   1       4.977  88.644 114.756  0.00  0.00    -0.368 OA
BRANCH   7   8
ATOM      8  C   LIG d   1       3.698  88.078 114.379  0.00  0.00     0.119 C 
BRANCH   8   9
ATOM      9  C   LIG d   1       3.729  86.581 114.743  0.00  0.00     0.028 C 
ATOM     10  C   LIG d   1       2.442  86.122 115.449  0.00  0.00     0.006 C 
ENDBRANCH   8   9
BRANCH   8  11
ATOM     11  C   LIG d   1       3.495  88.122 112.861  0.00  0.00     0.028 C 
ATOM     12  C   LIG d   1       4.112  86.912 112.142  0.00  0.00     0.006 C 
ENDBRANCH   8  11
ENDBRANCH   7   8
ENDBRANCH   1   7
BRANCH   6  13
ATOM     13  N   LIG d   1       6.660  87.294 116.861  0.00  0.00    -0.311 N 
ATOM     14  C   LIG d   1       7.774  86.603 116.625  0.00  0.00     0.210 C 
ATOM     15  C   LIG d   1       7.673  85.100 116.904  0.00  0.00     0.109 C 
ATOM     16  O   LIG d   1       8.845  87.097 116.242  0.00  0.00    -0.276 OA
ATOM     17  H   LIG d   1       5.847  86.819 117.201  0.00  0.00     0.149 HD
ENDBRANCH   6  13
BRANCH   5  18
ATOM     18  N   LIG d   1       8.274  89.421 118.346  0.00  0.00     0.381 N 
ATOM     19  H   LIG d   1       8.575  88.480 118.191  0.00  0.00    -0.090 HD
ATOM     20  H   LIG d   1       8.328  89.611 119.332  0.00  0.00    -0.090 HD
ATOM     21  H   LIG d   1       8.861  90.052 117.846  0.00  0.00    -0.090 HD
ENDBRANCH   5  18
BRANCH   3  22
ATOM     22  C   LIG d   1       4.802  92.558 117.325  0.00  0.00     0.382 C 
ATOM     23  O   LIG d   1       5.394  93.390 118.054  0.00  0.00    -0.241 OA
ATOM     24  O   LIG d   1       3.672  92.830 116.878  0.00  0.00    -0.241 OA
ENDBRANCH   3  22
TORSDOF 7
ENDMDL
MODEL 6
REMARK VINA RESULT:      -4.2     11.232     13.311
REMARK  7 active torsions:
REMARK  status: ('A' for Active; 'I' for Inactive)
REMARK    1  A    between atoms: C_2  and  C_3 
REMARK    2  A    between atoms: C_3  and  O_6 
REMARK    3  A    between atoms: C_3  and  C_4 
REMARK    4  A    between atoms: C_7  and  O_6 
REMARK    5  A    between atoms: C_9  and  C_10 
REMARK    6  A    between atoms: N_15  and  C_14 
REMARK    7  A    between atoms: N_20  and  C_19 
REMARK       I    between atoms: C_22  and  N_20 
ROOT
ATOM      1  C   LIG d   1      -3.315  77.924 117.138  0.00  0.00     0.161 C 
ATOM      2  C   LIG d   1      -2.351  78.773 117.707  0.00  0.00     0.016 C 
ATOM      3  C   LIG d   1      -0.996  78.793 117.304  0.00  0.00     0.038 C 
ATOM      4  C   LIG d   1      -0.542  78.068 116.193  0.00  0.00     0.028 C 
ATOM      5  C   LIG d   1      -1.368  76.818 115.907  0.00  0.00    -0.047 C 
ATOM      6  C   LIG d   1      -2.863  77.206 115.849  0.00  0.00     0.091 C 
ENDROOT
BRANCH   1   7
ATOM      7  O   LIG d   1      -4.533  78.657 116.901  0.00  0.00    -0.368 OA
BRANCH   7   8
ATOM      8  C   LIG d   1      -5.513  78.626 117.968  0.00  0.00     0.119 C 
BRANCH   8   9
ATOM      9  C   LIG d   1      -6.599  77.608 117.569  0.00  0.00     0.028 C 
ATOM     10  C   LIG d   1      -6.426  76.256 118.280  0.00  0.00     0.006 C 
ENDBRANCH   8   9
BRANCH   8  11
ATOM     11  C   LIG d   1      -6.241  79.967 118.096  0.00  0.00     0.028 C 
ATOM     12  C   LIG d   1      -7.770  79.824 118.029  0.00  0.00     0.006 C 
ENDBRANCH   8  11
ENDBRANCH   7   8
ENDBRANCH   1   7
BRANCH   6  13
ATOM     13  N   LIG d   1      -3.748  76.027 115.657  0.00  0.00    -0.311 N 
ATOM     14  C   LIG d   1      -4.429  75.797 114.536  0.00  0.00     0.210 C 
ATOM     15  C   LIG d   1      -5.297  74.535 114.555  0.00  0.00     0.109 C 
ATOM     16  O   LIG d   1      -4.371  76.500 113.516  0.00  0.00    -0.276 OA
ATOM     17  H   LIG d   1      -3.829  75.388 116.424  0.00  0.00     0.149 HD
ENDBRANCH   6  13
BRANCH   5  18
ATOM     18  N   LIG d   1      -0.872  76.235 114.646  0.00  0.00     0.381 N 
ATOM     19  H   LIG d   1      -1.392  76.604 113.875  0.00  0.00    -0.090 HD
ATOM     20  H   LIG d   1      -1.010  75.240 114.672  0.00  0.00    -0.090 HD
ATOM     21  H   LIG d   1       0.096  76.440 114.533  0.00  0.00    -0.090 HD
ENDBRANCH   5  18
BRANCH   3  22
ATOM     22  C   LIG d   1      -0.071  79.515 118.042  0.00  0.00     0.382 C 
ATOM     23  O   LIG d   1      -0.397  80.613 118.555  0.00  0.00    -0.241 OA
ATOM     24  O   LIG d   1       1.099  79.105 118.164  0.00  0.00    -0.241 OA
ENDBRANCH   3  22
TORSDOF 7
ENDMDL
MODEL 7
REMARK VINA RESULT:      -4.2     29.249     32.127
REMARK  7 active torsions:
REMARK  status: ('A' for Active; 'I' for Inactive)
REMARK    1  A    between atoms: C_2  and  C_3 
REMARK    2  A    between atoms: C_3  and  O_6 
REMARK    3  A    between atoms: C_3  and  C_4 
REMARK    4  A    between atoms: C_7  and  O_6 
REMARK    5  A    between atoms: C_9  and  C_10 
REMARK    6  A    between atoms: N_15  and  C_14 
REMARK    7  A    between atoms: N_20  and  C_19 
REMARK       I    between atoms: C_22  and  N_20 
ROOT
ATOM      1  C   LIG d   1     -17.389  64.781 117.347  0.00  0.00     0.161 C 
ATOM      2  C   LIG d   1     -16.574  65.923 117.424  0.00  0.00     0.016 C 
ATOM      3  C   LIG d   1     -15.945  66.507 116.301  0.00  0.00     0.038 C 
ATOM      4  C   LIG d   1     -16.211  66.074 114.993  0.00  0.00     0.028 C 
ATOM      5  C   LIG d   1     -16.630  64.610 114.913  0.00  0.00    -0.047 C 
ATOM      6  C   LIG d   1     -17.781  64.362 115.915  0.00  0.00     0.091 C 
ENDROOT
BRANCH   1   7
ATOM      7  O   LIG d   1     -18.568  64.967 118.155  0.00  0.00    -0.368 OA
BRANCH   7   8
ATOM      8  C   LIG d   1     -19.700  65.587 117.497  0.00  0.00     0.119 C 
BRANCH   8   9
ATOM      9  C   LIG d   1     -19.930  66.957 118.165  0.00  0.00     0.028 C 
ATOM     10  C   LIG d   1     -19.471  68.127 117.279  0.00  0.00     0.006 C 
ENDBRANCH   8   9
BRANCH   8  11
ATOM     11  C   LIG d   1     -20.988  64.795 117.741  0.00  0.00     0.028 C 
ATOM     12  C   LIG d   1     -20.754  63.513 118.555  0.00  0.00     0.006 C 
ENDBRANCH   8  11
ENDBRANCH   7   8
ENDBRANCH   1   7
BRANCH   6  13
ATOM     13  N   LIG d   1     -18.194  62.935 115.962  0.00  0.00    -0.311 N 
ATOM     14  C   LIG d   1     -19.224  62.447 115.272  0.00  0.00     0.210 C 
ATOM     15  C   LIG d   1     -19.490  60.953 115.479  0.00  0.00     0.109 C 
ATOM     16  O   LIG d   1     -19.922  63.103 114.485  0.00  0.00    -0.276 OA
ATOM     17  H   LIG d   1     -17.662  62.325 116.552  0.00  0.00     0.149 HD
ENDBRANCH   6  13
BRANCH   5  18
ATOM     18  N   LIG d   1     -17.010  64.331 113.516  0.00  0.00     0.381 N 
ATOM     19  H   LIG d   1     -17.844  64.832 113.284  0.00  0.00    -0.090 HD
ATOM     20  H   LIG d   1     -17.196  63.348 113.420  0.00  0.00    -0.090 HD
ATOM     21  H   LIG d   1     -16.272  64.598 112.902  0.00  0.00    -0.090 HD
ENDBRANCH   5  18
BRANCH   3  22
ATOM     22  C   LIG d   1     -15.006  67.511 116.483  0.00  0.00     0.382 C 
ATOM     23  O   LIG d   1     -15.235  68.669 116.058  0.00  0.00    -0.241 OA
ATOM     24  O   LIG d   1     -13.914  67.263 117.029  0.00  0.00    -0.241 OA
ENDBRANCH   3  22
TORSDOF 7
ENDMDL
MODEL 8
REMARK VINA RESULT:      -4.1      2.592      4.563
REMARK  7 active torsions:
REMARK  status: ('A' for Active; 'I' for Inactive)
REMARK    1  A    between atoms: C_2  and  C_3 
REMARK    2  A    between atoms: C_3  and  O_6 
REMARK    3  A    between atoms: C_3  and  C_4 
REMARK    4  A    between atoms: C_7  and  O_6 
REMARK    5  A    between atoms: C_9  and  C_10 
REMARK    6  A    between atoms: N_15  and  C_14 
REMARK    7  A    between atoms: N_20  and  C_19 
REMARK       I    between atoms: C_22  and  N_20 
ROOT
ATOM      1  C   LIG d   1       2.781  87.945 115.925  0.00  0.00     0.161 C 
ATOM      2  C   LIG d   1       3.142  89.302 115.920  0.00  0.00     0.016 C 
ATOM      3  C   LIG d   1       4.312  89.799 116.538  0.00  0.00     0.038 C 
ATOM      4  C   LIG d   1       5.286  88.945 117.077  0.00  0.00     0.028 C 
ATOM      5  C   LIG d   1       4.724  87.609 117.551  0.00  0.00    -0.047 C 
ATOM      6  C   LIG d   1       3.886  86.984 116.411  0.00  0.00     0.091 C 
ENDROOT
BRANCH   1   7
ATOM      7  O   LIG d   1       2.320  87.556 114.616  0.00  0.00    -0.368 OA
BRANCH   7   8
ATOM      8  C   LIG d   1       3.337  87.087 113.696  0.00  0.00     0.119 C 
BRANCH   8   9
ATOM      9  C   LIG d   1       3.829  88.305 112.890  0.00  0.00     0.028 C 
ATOM     10  C   LIG d   1       5.328  88.581 113.100  0.00  0.00     0.006 C 
ENDBRANCH   8   9
BRANCH   8  11
ATOM     11  C   LIG d   1       2.748  86.126 112.658  0.00  0.00     0.028 C 
ATOM     12  C   LIG d   1       3.808  85.210 112.027  0.00  0.00     0.006 C 
ENDBRANCH   8  11
ENDBRANCH   7   8
ENDBRANCH   1   7
BRANCH   6  13
ATOM     13  N   LIG d   1       3.231  85.714 116.820  0.00  0.00    -0.311 N 
ATOM     14  C   LIG d   1       3.535  84.529 116.294  0.00  0.00     0.210 C 
ATOM     15  C   LIG d   1       2.726  83.351 116.844  0.00  0.00     0.109 C 
ATOM     16  O   LIG d   1       4.421  84.338 115.447  0.00  0.00    -0.276 OA
ATOM     17  H   LIG d   1       2.522  85.773 117.525  0.00  0.00     0.149 HD
ENDBRANCH   6  13
BRANCH   5  18
ATOM     18  N   LIG d   1       5.863  86.766 117.960  0.00  0.00     0.381 N 
ATOM     19  H   LIG d   1       6.143  87.003 118.890  0.00  0.00    -0.090 HD
ATOM     20  H   LIG d   1       6.636  86.942 117.343  0.00  0.00    -0.090 HD
ATOM     21  H   LIG d   1       5.608  85.804 117.918  0.00  0.00    -0.090 HD
ENDBRANCH   5  18
BRANCH   3  22
ATOM     22  C   LIG d   1       4.499  91.168 116.656  0.00  0.00     0.382 C 
ATOM     23  O   LIG d   1       3.514  91.942 116.600  0.00  0.00    -0.241 OA
ATOM     24  O   LIG d   1       5.645  91.641 116.775  0.00  0.00    -0.241 OA
ENDBRANCH   3  22
TORSDOF 7
ENDMDL
MODEL 9
REMARK VINA RESULT:      -4.0     26.020     27.977
REMARK  7 active torsions:
REMARK  status: ('A' for Active; 'I' for Inactive)
REMARK    1  A    between atoms: C_2  and  C_3 
REMARK    2  A    between atoms: C_3  and  O_6 
REMARK    3  A    between atoms: C_3  and  C_4 
REMARK    4  A    between atoms: C_7  and  O_6 
REMARK    5  A    between atoms: C_9  and  C_10 
REMARK    6  A    between atoms: N_15  and  C_14 
REMARK    7  A    between atoms: N_20  and  C_19 
REMARK       I    between atoms: C_22  and  N_20 
ROOT
ATOM      1  C   LIG d   1     -23.012  82.983 115.505  0.00  0.00     0.161 C 
ATOM      2  C   LIG d   1     -22.422  84.207 115.149  0.00  0.00     0.016 C 
ATOM      3  C   LIG d   1     -22.896  85.022 114.096  0.00  0.00     0.038 C 
ATOM      4  C   LIG d   1     -24.092  84.740 113.420  0.00  0.00     0.028 C 
ATOM      5  C   LIG d   1     -24.444  83.256 113.406  0.00  0.00    -0.047 C 
ATOM      6  C   LIG d   1     -24.384  82.713 114.852  0.00  0.00     0.091 C 
ENDROOT
BRANCH   1   7
ATOM      7  O   LIG d   1     -23.113  82.888 116.939  0.00  0.00    -0.368 OA
BRANCH   7   8
ATOM      8  C   LIG d   1     -24.229  83.583 117.548  0.00  0.00     0.119 C 
BRANCH   8   9
ATOM      9  C   LIG d   1     -23.649  84.684 118.456  0.00  0.00     0.028 C 
ATOM     10  C   LIG d   1     -23.918  86.097 117.911  0.00  0.00     0.006 C 
ENDBRANCH   8   9
BRANCH   8  11
ATOM     11  C   LIG d   1     -25.018  82.660 118.482  0.00  0.00     0.028 C 
ATOM     12  C   LIG d   1     -24.430  81.242 118.555  0.00  0.00     0.006 C 
ENDBRANCH   8  11
ENDBRANCH   7   8
ENDBRANCH   1   7
BRANCH   6  13
ATOM     13  N   LIG d   1     -24.633  81.249 114.918  0.00  0.00    -0.311 N 
ATOM     14  C   LIG d   1     -25.828  80.719 115.173  0.00  0.00     0.210 C 
ATOM     15  C   LIG d   1     -25.862  79.188 115.215  0.00  0.00     0.109 C 
ATOM     16  O   LIG d   1     -26.871  81.371 115.336  0.00  0.00    -0.276 OA
ATOM     17  H   LIG d   1     -23.849  80.646 114.767  0.00  0.00     0.149 HD
ENDBRANCH   6  13
BRANCH   5  18
ATOM     18  N   LIG d   1     -25.779  83.120 112.792  0.00  0.00     0.381 N 
ATOM     19  H   LIG d   1     -26.485  83.356 113.461  0.00  0.00    -0.090 HD
ATOM     20  H   LIG d   1     -25.913  82.164 112.515  0.00  0.00    -0.090 HD
ATOM     21  H   LIG d   1     -25.851  83.718 111.998  0.00  0.00    -0.090 HD
ENDBRANCH   5  18
BRANCH   3  22
ATOM     22  C   LIG d   1     -22.148  86.114 113.682  0.00  0.00     0.382 C 
ATOM     23  O   LIG d   1     -22.176  87.180 114.343  0.00  0.00    -0.241 OA
ATOM     24  O   LIG d   1     -21.480  86.061 112.632  0.00  0.00    -0.241 OA
ENDBRANCH   3  22
TORSDOF 7
ENDMDL
