MODEL 1
REMARK VINA RESULT:      -5.4      0.000      0.000
REMARK  7 active torsions:
REMARK  status: ('A' for Active; 'I' for Inactive)
REMARK    1  A    between atoms: C_2  and  C_3 
REMARK    2  A    between atoms: C_3  and  O_6 
REMARK    3  A    between atoms: C_3  and  C_4 
REMARK    4  A    between atoms: C_7  and  O_6 
REMARK    5  A    between atoms: C_9  and  C_10 
REMARK    6  A    between atoms: N_15  and  C_14 
REMARK    7  A    between atoms: N_20  and  C_19 
REMARK       I    between atoms: C_22  and  N_20 
ROOT
ATOM      1  C   LIG d   1       2.066  85.225 114.066  0.00  0.00     0.161 C 
ATOM      2  C   LIG d   1       1.359  84.117 113.569  0.00  0.00     0.016 C 
ATOM      3  C   LIG d   1      -0.004  83.872 113.854  0.00  0.00     0.038 C 
ATOM      4  C   LIG d   1      -0.798  84.805 114.538  0.00  0.00     0.028 C 
ATOM      5  C   LIG d   1      -0.004  85.694 115.489  0.00  0.00    -0.047 C 
ATOM      6  C   LIG d   1       1.188  86.311 114.721  0.00  0.00     0.091 C 
ENDROOT
BRANCH   1   7
ATOM      7  O   LIG d   1       2.874  85.798 113.019  0.00  0.00    -0.368 OA
BRANCH   7   8
ATOM      8  C   LIG d   1       4.294  85.894 113.290  0.00  0.00     0.119 C 
BRANCH   8   9
ATOM      9  C   LIG d   1       4.908  86.820 112.222  0.00  0.00     0.028 C 
ATOM     10  C   LIG d   1       5.528  88.089 112.832  0.00  0.00     0.006 C 
ENDBRANCH   8   9
BRANCH   8  11
ATOM     11  C   LIG d   1       4.990  84.542 113.103  0.00  0.00     0.028 C 
ATOM     12  C   LIG d   1       4.572  83.832 111.806  0.00  0.00     0.006 C 
ENDBRANCH   8  11
ENDBRANCH   7   8
ENDBRANCH   1   7
BRANCH   6  13
ATOM     13  N   LIG d   1       2.065  87.129 115.599  0.00  0.00    -0.311 N 
ATOM     14  C   LIG d   1       2.567  88.309 115.239  0.00  0.00     0.210 C 
ATOM     15  C   LIG d   1       3.463  88.977 116.286  0.00  0.00     0.109 C 
ATOM     16  O   LIG d   1       2.329  88.881 114.165  0.00  0.00    -0.276 OA
ATOM     17  H   LIG d   1       2.284  86.755 116.501  0.00  0.00     0.149 HD
ENDBRANCH   6  13
BRANCH   5  18
ATOM     18  N   LIG d   1      -0.930  86.707 116.029  0.00  0.00     0.381 N 
ATOM     19  H   LIG d   1      -0.791  87.579 115.558  0.00  0.00    -0.090 HD
ATOM     20  H   LIG d   1      -0.732  86.841 117.005  0.00  0.00    -0.090 HD
ATOM     21  H   LIG d   1      -1.872  86.404 115.912  0.00  0.00    -0.090 HD
ENDBRANCH   5  18
BRANCH   3  22
ATOM     22  C   LIG d   1      -0.576  82.663 113.488  0.00  0.00     0.382 C 
ATOM     23  O   LIG d   1      -1.734  82.637 113.006  0.00  0.00    -0.241 OA
ATOM     24  O   LIG d   1       0.035  81.593 113.675  0.00  0.00    -0.241 OA
ENDBRANCH   3  22
TORSDOF 7
ENDMDL
MODEL 2
REMARK VINA RESULT:      -5.1      7.882     11.207
REMARK  7 active torsions:
REMARK  status: ('A' for Active; 'I' for Inactive)
REMARK    1  A    between atoms: C_2  and  C_3 
REMARK    2  A    between atoms: C_3  and  O_6 
REMARK    3  A    between atoms: C_3  and  C_4 
REMARK    4  A    between atoms: C_7  and  O_6 
REMARK    5  A    between atoms: C_9  and  C_10 
REMARK    6  A    between atoms: N_15  and  C_14 
REMARK    7  A    between atoms: N_20  and  C_19 
REMARK       I    between atoms: C_22  and  N_20 
ROOT
ATOM      1  C   LIG d   1      -1.705  76.072 114.729  0.00  0.00     0.161 C 
ATOM      2  C   LIG d   1      -1.484  75.153 115.768  0.00  0.00     0.016 C 
ATOM      3  C   LIG d   1      -0.633  75.412 116.867  0.00  0.00     0.038 C 
ATOM      4  C   LIG d   1      -0.060  76.674 117.080  0.00  0.00     0.028 C 
ATOM      5  C   LIG d   1       0.148  77.470 115.796  0.00  0.00    -0.047 C 
ATOM      6  C   LIG d   1      -1.177  77.496 115.001  0.00  0.00     0.091 C 
ENDROOT
BRANCH   1   7
ATOM      7  O   LIG d   1      -3.109  76.112 114.404  0.00  0.00    -0.368 OA
BRANCH   7   8
ATOM      8  C   LIG d   1      -3.989  75.369 115.283  0.00  0.00     0.119 C 
BRANCH   8   9
ATOM      9  C   LIG d   1      -4.821  74.414 114.406  0.00  0.00     0.028 C 
ATOM     10  C   LIG d   1      -5.601  73.383 115.239  0.00  0.00     0.006 C 
ENDBRANCH   8   9
BRANCH   8  11
ATOM     11  C   LIG d   1      -5.008  76.291 115.960  0.00  0.00     0.028 C 
ATOM     12  C   LIG d   1      -4.349  77.360 116.846  0.00  0.00     0.006 C 
ENDBRANCH   8  11
ENDBRANCH   7   8
ENDBRANCH   1   7
BRANCH   6  13
ATOM     13  N   LIG d   1      -1.038  78.183 113.690  0.00  0.00    -0.311 N 
ATOM     14  C   LIG d   1      -1.854  79.153 113.281  0.00  0.00     0.210 C 
ATOM     15  C   LIG d   1      -1.547  79.711 111.888  0.00  0.00     0.109 C 
ATOM     16  O   LIG d   1      -2.784  79.625 113.952  0.00  0.00    -0.276 OA
ATOM     17  H   LIG d   1      -0.291  77.883 113.095  0.00  0.00     0.149 HD
ENDBRANCH   6  13
BRANCH   5  18
ATOM     18  N   LIG d   1       0.622  78.814 116.176  0.00  0.00     0.381 N 
ATOM     19  H   LIG d   1       0.274  79.492 115.528  0.00  0.00    -0.090 HD
ATOM     20  H   LIG d   1       1.626  78.828 116.139  0.00  0.00    -0.090 HD
ATOM     21  H   LIG d   1       0.313  79.036 117.097  0.00  0.00    -0.090 HD
ENDBRANCH   5  18
BRANCH   3  22
ATOM     22  C   LIG d   1      -0.315  74.388 117.746  0.00  0.00     0.382 C 
ATOM     23  O   LIG d   1      -1.005  73.339 117.763  0.00  0.00    -0.241 OA
ATOM     24  O   LIG d   1       0.624  74.517 118.554  0.00  0.00    -0.241 OA
ENDBRANCH   3  22
TORSDOF 7
ENDMDL
MODEL 3
REMARK VINA RESULT:      -4.8      2.143      4.404
REMARK  7 active torsions:
REMARK  status: ('A' for Active; 'I' for Inactive)
REMARK    1  A    between atoms: C_2  and  C_3 
REMARK    2  A    between atoms: C_3  and  O_6 
REMARK    3  A    between atoms: C_3  and  C_4 
REMARK    4  A    between atoms: C_7  and  O_6 
REMARK    5  A    between atoms: C_9  and  C_10 
REMARK    6  A    between atoms: N_15  and  C_14 
REMARK    7  A    between atoms: N_20  and  C_19 
REMARK       I    between atoms: C_22  and  N_20 
ROOT
ATOM      1  C   LIG d   1       0.496  85.094 112.702  0.00  0.00     0.161 C 
ATOM      2  C   LIG d   1      -0.484  84.089 112.741  0.00  0.00     0.016 C 
ATOM      3  C   LIG d   1      -0.184  82.708 112.700  0.00  0.00     0.038 C 
ATOM      4  C   LIG d   1       1.134  82.233 112.770  0.00  0.00     0.028 C 
ATOM      5  C   LIG d   1       2.162  83.217 112.222  0.00  0.00    -0.047 C 
ATOM      6  C   LIG d   1       1.944  84.594 112.890  0.00  0.00     0.091 C 
ENDROOT
BRANCH   1   7
ATOM      7  O   LIG d   1       0.189  86.114 113.673  0.00  0.00    -0.368 OA
BRANCH   7   8
ATOM      8  C   LIG d   1      -0.107  85.650 115.013  0.00  0.00     0.119 C 
BRANCH   8   9
ATOM      9  C   LIG d   1      -1.529  86.128 115.366  0.00  0.00     0.028 C 
ATOM     10  C   LIG d   1      -1.595  86.811 116.742  0.00  0.00     0.006 C 
ENDBRANCH   8   9
BRANCH   8  11
ATOM     11  C   LIG d   1       0.810  86.311 116.047  0.00  0.00     0.028 C 
ATOM     12  C   LIG d   1       1.758  87.349 115.425  0.00  0.00     0.006 C 
ENDBRANCH   8  11
ENDBRANCH   7   8
ENDBRANCH   1   7
BRANCH   6  13
ATOM     13  N   LIG d   1       2.854  85.637 112.350  0.00  0.00    -0.311 N 
ATOM     14  C   LIG d   1       4.034  85.933 112.892  0.00  0.00     0.210 C 
ATOM     15  C   LIG d   1       4.805  87.055 112.190  0.00  0.00     0.109 C 
ATOM     16  O   LIG d   1       4.529  85.351 113.869  0.00  0.00    -0.276 OA
ATOM     17  H   LIG d   1       2.544  86.137 111.540  0.00  0.00     0.149 HD
ENDBRANCH   6  13
BRANCH   5  18
ATOM     18  N   LIG d   1       3.501  82.654 112.482  0.00  0.00     0.381 N 
ATOM     19  H   LIG d   1       3.595  82.440 113.455  0.00  0.00    -0.090 HD
ATOM     20  H   LIG d   1       4.194  83.341 112.242  0.00  0.00    -0.090 HD
ATOM     21  H   LIG d   1       3.635  81.830 111.939  0.00  0.00    -0.090 HD
ENDBRANCH   5  18
BRANCH   3  22
ATOM     22  C   LIG d   1      -1.209  81.786 112.548  0.00  0.00     0.382 C 
ATOM     23  O   LIG d   1      -2.330  82.004 113.067  0.00  0.00    -0.241 OA
ATOM     24  O   LIG d   1      -1.013  80.719 111.936  0.00  0.00    -0.241 OA
ENDBRANCH   3  22
TORSDOF 7
ENDMDL
MODEL 4
REMARK VINA RESULT:      -4.8      2.763      6.373
REMARK  7 active torsions:
REMARK  status: ('A' for Active; 'I' for Inactive)
REMARK    1  A    between atoms: C_2  and  C_3 
REMARK    2  A    between atoms: C_3  and  O_6 
REMARK    3  A    between atoms: C_3  and  C_4 
REMARK    4  A    between atoms: C_7  and  O_6 
REMARK    5  A    between atoms: C_9  and  C_10 
REMARK    6  A    between atoms: N_15  and  C_14 
REMARK    7  A    between atoms: N_20  and  C_19 
REMARK       I    between atoms: C_22  and  N_20 
ROOT
ATOM      1  C   LIG d   1       2.954  87.450 114.380  0.00  0.00     0.161 C 
ATOM      2  C   LIG d   1       2.851  88.519 115.286  0.00  0.00     0.016 C 
ATOM      3  C   LIG d   1       3.782  89.581 115.345  0.00  0.00     0.038 C 
ATOM      4  C   LIG d   1       4.803  89.726 114.394  0.00  0.00     0.028 C 
ATOM      5  C   LIG d   1       5.245  88.405 113.774  0.00  0.00    -0.047 C 
ATOM      6  C   LIG d   1       3.998  87.649 113.262  0.00  0.00     0.091 C 
ENDROOT
BRANCH   1   7
ATOM      7  O   LIG d   1       1.660  87.165 113.813  0.00  0.00    -0.368 OA
BRANCH   7   8
ATOM      8  C   LIG d   1       1.110  85.856 114.105  0.00  0.00     0.119 C 
BRANCH   8   9
ATOM      9  C   LIG d   1       0.895  85.134 112.761  0.00  0.00     0.028 C 
ATOM     10  C   LIG d   1      -0.363  85.625 112.026  0.00  0.00     0.006 C 
ENDBRANCH   8   9
BRANCH   8  11
ATOM     11  C   LIG d   1      -0.282  85.965 114.735  0.00  0.00     0.028 C 
ATOM     12  C   LIG d   1      -0.243  86.480 116.182  0.00  0.00     0.006 C 
ENDBRANCH   8  11
ENDBRANCH   7   8
ENDBRANCH   1   7
BRANCH   6  13
ATOM     13  N   LIG d   1       4.333  86.307 112.716  0.00  0.00    -0.311 N 
ATOM     14  C   LIG d   1       4.802  85.309 113.462  0.00  0.00     0.210 C 
ATOM     15  C   LIG d   1       5.101  84.015 112.697  0.00  0.00     0.109 C 
ATOM     16  O   LIG d   1       4.968  85.361 114.690  0.00  0.00    -0.276 OA
ATOM     17  H   LIG d   1       4.198  86.168 111.734  0.00  0.00     0.149 HD
ENDBRANCH   6  13
BRANCH   5  18
ATOM     18  N   LIG d   1       6.212  88.716 112.705  0.00  0.00     0.381 N 
ATOM     19  H   LIG d   1       6.957  88.048 112.717  0.00  0.00    -0.090 HD
ATOM     20  H   LIG d   1       6.602  89.626 112.874  0.00  0.00    -0.090 HD
ATOM     21  H   LIG d   1       5.757  88.701 111.818  0.00  0.00    -0.090 HD
ENDBRANCH   5  18
BRANCH   3  22
ATOM     22  C   LIG d   1       3.720  90.492 116.389  0.00  0.00     0.382 C 
ATOM     23  O   LIG d   1       3.060  90.220 117.420  0.00  0.00    -0.241 OA
ATOM     24  O   LIG d   1       4.280  91.601 116.294  0.00  0.00    -0.241 OA
ENDBRANCH   3  22
TORSDOF 7
ENDMDL
MODEL 5
REMARK VINA RESULT:      -4.7     10.309     12.647
REMARK  7 active torsions:
REMARK  status: ('A' for Active; 'I' for Inactive)
REMARK    1  A    between atoms: C_2  and  C_3 
REMARK    2  A    between atoms: C_3  and  O_6 
REMARK    3  A    between atoms: C_3  and  C_4 
REMARK    4  A    between atoms: C_7  and  O_6 
REMARK    5  A    between atoms: C_9  and  C_10 
REMARK    6  A    between atoms: N_15  and  C_14 
REMARK    7  A    between atoms: N_20  and  C_19 
REMARK       I    between atoms: C_22  and  N_20 
ROOT
ATOM      1  C   LIG d   1      -6.506  76.592 117.283  0.00  0.00     0.161 C 
ATOM      2  C   LIG d   1      -7.821  77.056 117.453  0.00  0.00     0.016 C 
ATOM      3  C   LIG d   1      -8.135  78.343 117.947  0.00  0.00     0.038 C 
ATOM      4  C   LIG d   1      -7.147  79.314 118.165  0.00  0.00     0.028 C 
ATOM      5  C   LIG d   1      -5.778  78.724 118.487  0.00  0.00    -0.047 C 
ATOM      6  C   LIG d   1      -5.416  77.677 117.410  0.00  0.00     0.091 C 
ENDROOT
BRANCH   1   7
ATOM      7  O   LIG d   1      -6.388  75.909 116.019  0.00  0.00    -0.368 OA
BRANCH   7   8
ATOM      8  C   LIG d   1      -5.446  74.809 115.975  0.00  0.00     0.119 C 
BRANCH   8   9
ATOM      9  C   LIG d   1      -4.930  74.699 114.527  0.00  0.00     0.028 C 
ATOM     10  C   LIG d   1      -3.805  75.703 114.227  0.00  0.00     0.006 C 
ENDBRANCH   8   9
BRANCH   8  11
ATOM     11  C   LIG d   1      -6.136  73.472 116.262  0.00  0.00     0.028 C 
ATOM     12  C   LIG d   1      -5.739  72.370 115.267  0.00  0.00     0.006 C 
ENDBRANCH   8  11
ENDBRANCH   7   8
ENDBRANCH   1   7
BRANCH   6  13
ATOM     13  N   LIG d   1      -4.129  76.990 117.696  0.00  0.00    -0.311 N 
ATOM     14  C   LIG d   1      -2.969  77.351 117.150  0.00  0.00     0.210 C 
ATOM     15  C   LIG d   1      -1.767  76.497 117.565  0.00  0.00     0.109 C 
ATOM     16  O   LIG d   1      -2.816  78.317 116.387  0.00  0.00    -0.276 OA
ATOM     17  H   LIG d   1      -4.157  76.215 118.329  0.00  0.00     0.149 HD
ENDBRANCH   6  13
BRANCH   5  18
ATOM     18  N   LIG d   1      -4.816  79.841 118.554  0.00  0.00     0.381 N 
ATOM     19  H   LIG d   1      -5.171  80.559 119.154  0.00  0.00    -0.090 HD
ATOM     20  H   LIG d   1      -4.702  80.227 117.633  0.00  0.00    -0.090 HD
ATOM     21  H   LIG d   1      -3.939  79.515 118.897  0.00  0.00    -0.090 HD
ENDBRANCH   5  18
BRANCH   3  22
ATOM     22  C   LIG d   1      -9.447  78.655 118.267  0.00  0.00     0.382 C 
ATOM     23  O   LIG d   1     -10.257  77.741 118.555  0.00  0.00    -0.241 OA
ATOM     24  O   LIG d   1      -9.843  79.835 118.229  0.00  0.00    -0.241 OA
ENDBRANCH   3  22
TORSDOF 7
ENDMDL
MODEL 6
REMARK VINA RESULT:      -4.5     24.029     26.347
REMARK  7 active torsions:
REMARK  status: ('A' for Active; 'I' for Inactive)
REMARK    1  A    between atoms: C_2  and  C_3 
REMARK    2  A    between atoms: C_3  and  O_6 
REMARK    3  A    between atoms: C_3  and  C_4 
REMARK    4  A    between atoms: C_7  and  O_6 
REMARK    5  A    between atoms: C_9  and  C_10 
REMARK    6  A    between atoms: N_15  and  C_14 
REMARK    7  A    between atoms: N_20  and  C_19 
REMARK       I    between atoms: C_22  and  N_20 
ROOT
ATOM      1  C   LIG d   1     -23.370  83.587 115.841  0.00  0.00     0.161 C 
ATOM      2  C   LIG d   1     -22.774  84.838 115.614  0.00  0.00     0.016 C 
ATOM      3  C   LIG d   1     -22.765  85.478 114.353  0.00  0.00     0.038 C 
ATOM      4  C   LIG d   1     -23.489  84.976 113.261  0.00  0.00     0.028 C 
ATOM      5  C   LIG d   1     -23.684  83.464 113.308  0.00  0.00    -0.047 C 
ATOM      6  C   LIG d   1     -24.260  83.075 114.689  0.00  0.00     0.091 C 
ENDROOT
BRANCH   1   7
ATOM      7  O   LIG d   1     -24.115  83.618 117.075  0.00  0.00    -0.368 OA
BRANCH   7   8
ATOM      8  C   LIG d   1     -23.617  82.775 118.142  0.00  0.00     0.119 C 
BRANCH   8   9
ATOM      9  C   LIG d   1     -22.210  82.295 117.734  0.00  0.00     0.028 C 
ATOM     10  C   LIG d   1     -21.099  82.970 118.555  0.00  0.00     0.006 C 
ENDBRANCH   8   9
BRANCH   8  11
ATOM     11  C   LIG d   1     -24.455  81.501 118.284  0.00  0.00     0.028 C 
ATOM     12  C   LIG d   1     -25.965  81.783 118.330  0.00  0.00     0.006 C 
ENDBRANCH   8  11
ENDBRANCH   7   8
ENDBRANCH   1   7
BRANCH   6  13
ATOM     13  N   LIG d   1     -24.403  81.605 114.850  0.00  0.00    -0.311 N 
ATOM     14  C   LIG d   1     -25.533  80.946 114.598  0.00  0.00     0.210 C 
ATOM     15  C   LIG d   1     -25.471  79.436 114.848  0.00  0.00     0.109 C 
ATOM     16  O   LIG d   1     -26.571  81.464 114.160  0.00  0.00    -0.276 OA
ATOM     17  H   LIG d   1     -23.600  81.101 115.172  0.00  0.00     0.149 HD
ENDBRANCH   6  13
BRANCH   5  18
ATOM     18  N   LIG d   1     -24.569  83.094 112.188  0.00  0.00     0.381 N 
ATOM     19  H   LIG d   1     -25.401  82.665 112.541  0.00  0.00    -0.090 HD
ATOM     20  H   LIG d   1     -24.094  82.429 111.604  0.00  0.00    -0.090 HD
ATOM     21  H   LIG d   1     -24.804  83.904 111.657  0.00  0.00    -0.090 HD
ENDBRANCH   5  18
BRANCH   3  22
ATOM     22  C   LIG d   1     -21.993  86.615 114.165  0.00  0.00     0.382 C 
ATOM     23  O   LIG d   1     -21.040  86.597 113.349  0.00  0.00    -0.241 OA
ATOM     24  O   LIG d   1     -22.210  87.644 114.832  0.00  0.00    -0.241 OA
ENDBRANCH   3  22
TORSDOF 7
ENDMDL
MODEL 7
REMARK VINA RESULT:      -4.4     18.256     20.565
REMARK  7 active torsions:
REMARK  status: ('A' for Active; 'I' for Inactive)
REMARK    1  A    between atoms: C_2  and  C_3 
REMARK    2  A    between atoms: C_3  and  O_6 
REMARK    3  A    between atoms: C_3  and  C_4 
REMARK    4  A    between atoms: C_7  and  O_6 
REMARK    5  A    between atoms: C_9  and  C_10 
REMARK    6  A    between atoms: N_15  and  C_14 
REMARK    7  A    between atoms: N_20  and  C_19 
REMARK       I    between atoms: C_22  and  N_20 
ROOT
ATOM      1  C   LIG d   1       8.835  67.166 115.180  0.00  0.00     0.161 C 
ATOM      2  C   LIG d   1       9.133  68.421 114.622  0.00  0.00     0.016 C 
ATOM      3  C   LIG d   1       9.866  69.420 115.300  0.00  0.00     0.038 C 
ATOM      4  C   LIG d   1      10.487  69.176 116.535  0.00  0.00     0.028 C 
ATOM      5  C   LIG d   1       9.790  68.099 117.359  0.00  0.00    -0.047 C 
ATOM      6  C   LIG d   1       9.598  66.841 116.482  0.00  0.00     0.091 C 
ENDROOT
BRANCH   1   7
ATOM      7  O   LIG d   1       9.051  66.131 114.201  0.00  0.00    -0.368 OA
BRANCH   7   8
ATOM      8  C   LIG d   1       9.675  66.548 112.961  0.00  0.00     0.119 C 
BRANCH   8   9
ATOM      9  C   LIG d   1       8.790  66.041 111.805  0.00  0.00     0.028 C 
ATOM     10  C   LIG d   1       7.332  65.814 112.238  0.00  0.00     0.006 C 
ENDBRANCH   8   9
BRANCH   8  11
ATOM     11  C   LIG d   1      11.031  65.865 112.763  0.00  0.00     0.028 C 
ATOM     12  C   LIG d   1      12.177  66.597 113.479  0.00  0.00     0.006 C 
ENDBRANCH   8  11
ENDBRANCH   7   8
ENDBRANCH   1   7
BRANCH   6  13
ATOM     13  N   LIG d   1       8.849  65.767 117.185  0.00  0.00    -0.311 N 
ATOM     14  C   LIG d   1       9.249  64.498 117.223  0.00  0.00     0.210 C 
ATOM     15  C   LIG d   1       8.320  63.549 117.986  0.00  0.00     0.109 C 
ATOM     16  O   LIG d   1      10.302  64.073 116.725  0.00  0.00    -0.276 OA
ATOM     17  H   LIG d   1       7.999  66.030 117.644  0.00  0.00     0.149 HD
ENDBRANCH   6  13
BRANCH   5  18
ATOM     18  N   LIG d   1      10.618  67.848 118.555  0.00  0.00     0.381 N 
ATOM     19  H   LIG d   1      11.568  67.696 118.283  0.00  0.00    -0.090 HD
ATOM     20  H   LIG d   1      10.284  67.019 119.013  0.00  0.00    -0.090 HD
ATOM     21  H   LIG d   1      10.563  68.625 119.176  0.00  0.00    -0.090 HD
ENDBRANCH   5  18
BRANCH   3  22
ATOM     22  C   LIG d   1       9.952  70.695 114.761  0.00  0.00     0.382 C 
ATOM     23  O   LIG d   1      11.073  71.237 114.607  0.00  0.00    -0.241 OA
ATOM     24  O   LIG d   1       8.920  71.328 114.469  0.00  0.00    -0.241 OA
ENDBRANCH   3  22
TORSDOF 7
ENDMDL
MODEL 8
REMARK VINA RESULT:      -4.4      7.696      9.502
REMARK  7 active torsions:
REMARK  status: ('A' for Active; 'I' for Inactive)
REMARK    1  A    between atoms: C_2  and  C_3 
REMARK    2  A    between atoms: C_3  and  O_6 
REMARK    3  A    between atoms: C_3  and  C_4 
REMARK    4  A    between atoms: C_7  and  O_6 
REMARK    5  A    between atoms: C_9  and  C_10 
REMARK    6  A    between atoms: N_15  and  C_14 
REMARK    7  A    between atoms: N_20  and  C_19 
REMARK       I    between atoms: C_22  and  N_20 
ROOT
ATOM      1  C   LIG d   1      -4.697  90.595 116.699  0.00  0.00     0.161 C 
ATOM      2  C   LIG d   1      -4.232  89.547 115.887  0.00  0.00     0.016 C 
ATOM      3  C   LIG d   1      -4.982  88.995 114.823  0.00  0.00     0.038 C 
ATOM      4  C   LIG d   1      -6.195  89.559 114.401  0.00  0.00     0.028 C 
ATOM      5  C   LIG d   1      -6.939  90.297 115.509  0.00  0.00    -0.047 C 
ATOM      6  C   LIG d   1      -5.971  91.297 116.183  0.00  0.00     0.091 C 
ENDROOT
BRANCH   1   7
ATOM      7  O   LIG d   1      -3.644  91.557 116.906  0.00  0.00    -0.368 OA
BRANCH   7   8
ATOM      8  C   LIG d   1      -3.276  91.812 118.284  0.00  0.00     0.119 C 
BRANCH   8   9
ATOM      9  C   LIG d   1      -3.340  93.336 118.506  0.00  0.00     0.028 C 
ATOM     10  C   LIG d   1      -1.956  94.000 118.415  0.00  0.00     0.006 C 
ENDBRANCH   8   9
BRANCH   8  11
ATOM     11  C   LIG d   1      -1.819  91.424 118.553  0.00  0.00     0.028 C 
ATOM     12  C   LIG d   1      -1.114  90.857 117.310  0.00  0.00     0.006 C 
ENDBRANCH   8  11
ENDBRANCH   7   8
ENDBRANCH   1   7
BRANCH   6  13
ATOM     13  N   LIG d   1      -6.594  92.001 117.334  0.00  0.00    -0.311 N 
ATOM     14  C   LIG d   1      -7.142  93.211 117.244  0.00  0.00     0.210 C 
ATOM     15  C   LIG d   1      -7.710  93.763 118.555  0.00  0.00     0.109 C 
ATOM     16  O   LIG d   1      -7.239  93.867 116.196  0.00  0.00    -0.276 OA
ATOM     17  H   LIG d   1      -6.587  91.527 118.217  0.00  0.00     0.149 HD
ENDBRANCH   6  13
BRANCH   5  18
ATOM     18  N   LIG d   1      -8.112  90.951 114.900  0.00  0.00     0.381 N 
ATOM     19  H   LIG d   1      -8.706  91.317 115.617  0.00  0.00    -0.090 HD
ATOM     20  H   LIG d   1      -8.631  90.267 114.379  0.00  0.00    -0.090 HD
ATOM     21  H   LIG d   1      -7.818  91.686 114.296  0.00  0.00    -0.090 HD
ENDBRANCH   5  18
BRANCH   3  22
ATOM     22  C   LIG d   1      -4.538  87.842 114.195  0.00  0.00     0.382 C 
ATOM     23  O   LIG d   1      -4.939  87.563 113.039  0.00  0.00    -0.241 OA
ATOM     24  O   LIG d   1      -3.777  87.053 114.787  0.00  0.00    -0.241 OA
ENDBRANCH   3  22
TORSDOF 7
ENDMDL
MODEL 9
REMARK VINA RESULT:      -4.4      8.530     11.708
REMARK  7 active torsions:
REMARK  status: ('A' for Active; 'I' for Inactive)
REMARK    1  A    between atoms: C_2  and  C_3 
REMARK    2  A    between atoms: C_3  and  O_6 
REMARK    3  A    between atoms: C_3  and  C_4 
REMARK    4  A    between atoms: C_7  and  O_6 
REMARK    5  A    between atoms: C_9  and  C_10 
REMARK    6  A    between atoms: N_15  and  C_14 
REMARK    7  A    between atoms: N_20  and  C_19 
REMARK       I    between atoms: C_22  and  N_20 
ROOT
ATOM      1  C   LIG d   1      -2.714  77.285 116.073  0.00  0.00     0.161 C 
ATOM      2  C   LIG d   1      -2.880  78.213 115.031  0.00  0.00     0.016 C 
ATOM      3  C   LIG d   1      -2.077  78.227 113.867  0.00  0.00     0.038 C 
ATOM      4  C   LIG d   1      -1.147  77.213 113.595  0.00  0.00     0.028 C 
ATOM      5  C   LIG d   1      -0.596  76.544 114.850  0.00  0.00    -0.047 C 
ATOM      6  C   LIG d   1      -1.778  76.103 115.744  0.00  0.00     0.091 C 
ENDROOT
BRANCH   1   7
ATOM      7  O   LIG d   1      -4.001  76.799 116.504  0.00  0.00    -0.368 OA
BRANCH   7   8
ATOM      8  C   LIG d   1      -4.746  76.023 115.534  0.00  0.00     0.119 C 
BRANCH   8   9
ATOM      9  C   LIG d   1      -6.222  76.022 115.979  0.00  0.00     0.028 C 
ATOM     10  C   LIG d   1      -6.441  76.795 117.290  0.00  0.00     0.006 C 
ENDBRANCH   8   9
BRANCH   8  11
ATOM     11  C   LIG d   1      -4.317  74.553 115.548  0.00  0.00     0.028 C 
ATOM     12  C   LIG d   1      -5.510  73.584 115.597  0.00  0.00     0.006 C 
ENDBRANCH   8  11
ENDBRANCH   7   8
ENDBRANCH   1   7
BRANCH   6  13
ATOM     13  N   LIG d   1      -1.326  75.515 117.031  0.00  0.00    -0.311 N 
ATOM     14  C   LIG d   1      -0.736  74.324 117.127  0.00  0.00     0.210 C 
ATOM     15  C   LIG d   1      -0.368  73.898 118.551  0.00  0.00     0.109 C 
ATOM     16  O   LIG d   1      -0.454  73.596 116.164  0.00  0.00    -0.276 OA
ATOM     17  H   LIG d   1      -1.487  76.053 117.860  0.00  0.00     0.149 HD
ENDBRANCH   6  13
BRANCH   5  18
ATOM     18  N   LIG d   1       0.254  75.419 114.418  0.00  0.00     0.381 N 
ATOM     19  H   LIG d   1      -0.307  74.723 113.969  0.00  0.00    -0.090 HD
ATOM     20  H   LIG d   1       0.681  75.004 115.228  0.00  0.00    -0.090 HD
ATOM     21  H   LIG d   1       0.958  75.744 113.793  0.00  0.00    -0.090 HD
ENDBRANCH   5  18
BRANCH   3  22
ATOM     22  C   LIG d   1      -2.175  79.287 112.979  0.00  0.00     0.382 C 
ATOM     23  O   LIG d   1      -1.386  79.365 112.006  0.00  0.00    -0.241 OA
ATOM     24  O   LIG d   1      -3.012  80.191 113.162  0.00  0.00    -0.241 OA
ENDBRANCH   3  22
TORSDOF 7
ENDMDL
