MODEL 1
REMARK VINA RESULT:      -5.7      0.000      0.000
REMARK  7 active torsions:
REMARK  status: ('A' for Active; 'I' for Inactive)
REMARK    1  A    between atoms: C_2  and  C_3 
REMARK    2  A    between atoms: C_3  and  O_6 
REMARK    3  A    between atoms: C_3  and  C_4 
REMARK    4  A    between atoms: C_7  and  O_6 
REMARK    5  A    between atoms: C_9  and  C_10 
REMARK    6  A    between atoms: N_15  and  C_14 
REMARK    7  A    between atoms: N_20  and  C_19 
REMARK       I    between atoms: C_22  and  N_20 
ROOT
ATOM      1  C   LIG d   1      -6.027  74.748 116.679  0.00  0.00     0.161 C 
ATOM      2  C   LIG d   1      -6.611  73.552 116.230  0.00  0.00     0.016 C 
ATOM      3  C   LIG d   1      -7.998  73.287 116.307  0.00  0.00     0.038 C 
ATOM      4  C   LIG d   1      -8.920  74.267 116.703  0.00  0.00     0.028 C 
ATOM      5  C   LIG d   1      -8.326  75.314 117.640  0.00  0.00    -0.047 C 
ATOM      6  C   LIG d   1      -7.030  75.873 117.011  0.00  0.00     0.091 C 
ENDROOT
BRANCH   1   7
ATOM      7  O   LIG d   1      -5.058  75.210 115.717  0.00  0.00    -0.368 OA
BRANCH   7   8
ATOM      8  C   LIG d   1      -3.742  74.608 115.799  0.00  0.00     0.119 C 
BRANCH   8   9
ATOM      9  C   LIG d   1      -3.064  75.149 117.073  0.00  0.00     0.028 C 
ATOM     10  C   LIG d   1      -1.849  74.306 117.494  0.00  0.00     0.006 C 
ENDBRANCH   8   9
BRANCH   8  11
ATOM     11  C   LIG d   1      -2.849  75.060 114.640  0.00  0.00     0.028 C 
ATOM     12  C   LIG d   1      -3.628  75.800 113.541  0.00  0.00     0.006 C 
ENDBRANCH   8  11
ENDBRANCH   7   8
ENDBRANCH   1   7
BRANCH   6  13
ATOM     13  N   LIG d   1      -6.340  76.842 117.902  0.00  0.00    -0.311 N 
ATOM     14  C   LIG d   1      -5.835  77.999 117.476  0.00  0.00     0.210 C 
ATOM     15  C   LIG d   1      -5.147  78.841 118.555  0.00  0.00     0.109 C 
ATOM     16  O   LIG d   1      -5.920  78.422 116.313  0.00  0.00    -0.276 OA
ATOM     17  H   LIG d   1      -6.254  76.593 118.868  0.00  0.00     0.149 HD
ENDBRANCH   6  13
BRANCH   5  18
ATOM     18  N   LIG d   1      -9.355  76.348 117.862  0.00  0.00     0.381 N 
ATOM     19  H   LIG d   1     -10.231  75.914 118.073  0.00  0.00    -0.090 HD
ATOM     20  H   LIG d   1      -9.463  76.884 117.019  0.00  0.00    -0.090 HD
ATOM     21  H   LIG d   1      -9.082  76.944 118.612  0.00  0.00    -0.090 HD
ENDBRANCH   5  18
BRANCH   3  22
ATOM     22  C   LIG d   1      -8.471  72.014 116.023  0.00  0.00     0.382 C 
ATOM     23  O   LIG d   1      -9.677  71.735 116.225  0.00  0.00    -0.241 OA
ATOM     24  O   LIG d   1      -7.697  71.130 115.611  0.00  0.00    -0.241 OA
ENDBRANCH   3  22
TORSDOF 7
ENDMDL
MODEL 2
REMARK VINA RESULT:      -5.2      2.862      4.714
REMARK  7 active torsions:
REMARK  status: ('A' for Active; 'I' for Inactive)
REMARK    1  A    between atoms: C_2  and  C_3 
REMARK    2  A    between atoms: C_3  and  O_6 
REMARK    3  A    between atoms: C_3  and  C_4 
REMARK    4  A    between atoms: C_7  and  O_6 
REMARK    5  A    between atoms: C_9  and  C_10 
REMARK    6  A    between atoms: N_15  and  C_14 
REMARK    7  A    between atoms: N_20  and  C_19 
REMARK       I    between atoms: C_22  and  N_20 
ROOT
ATOM      1  C   LIG d   1      -5.982  77.670 116.896  0.00  0.00     0.161 C 
ATOM      2  C   LIG d   1      -7.329  77.563 117.283  0.00  0.00     0.016 C 
ATOM      3  C   LIG d   1      -8.092  78.656 117.756  0.00  0.00     0.038 C 
ATOM      4  C   LIG d   1      -7.600  79.969 117.731  0.00  0.00     0.028 C 
ATOM      5  C   LIG d   1      -6.080  80.049 117.824  0.00  0.00    -0.047 C 
ATOM      6  C   LIG d   1      -5.463  79.116 116.757  0.00  0.00     0.091 C 
ENDROOT
BRANCH   1   7
ATOM      7  O   LIG d   1      -5.766  76.940 115.673  0.00  0.00    -0.368 OA
BRANCH   7   8
ATOM      8  C   LIG d   1      -5.626  75.504 115.804  0.00  0.00     0.119 C 
BRANCH   8   9
ATOM      9  C   LIG d   1      -4.231  75.124 115.271  0.00  0.00     0.028 C 
ATOM     10  C   LIG d   1      -3.122  75.362 116.310  0.00  0.00     0.006 C 
ENDBRANCH   8   9
BRANCH   8  11
ATOM     11  C   LIG d   1      -6.619  74.763 114.903  0.00  0.00     0.028 C 
ATOM     12  C   LIG d   1      -7.722  74.045 115.697  0.00  0.00     0.006 C 
ENDBRANCH   8  11
ENDBRANCH   7   8
ENDBRANCH   1   7
BRANCH   6  13
ATOM     13  N   LIG d   1      -3.979  79.070 116.835  0.00  0.00    -0.311 N 
ATOM     14  C   LIG d   1      -3.184  79.256 115.783  0.00  0.00     0.210 C 
ATOM     15  C   LIG d   1      -1.685  79.147 116.078  0.00  0.00     0.109 C 
ATOM     16  O   LIG d   1      -3.577  79.532 114.639  0.00  0.00    -0.276 OA
ATOM     17  H   LIG d   1      -3.575  78.883 117.732  0.00  0.00     0.149 HD
ENDBRANCH   6  13
BRANCH   5  18
ATOM     18  N   LIG d   1      -5.697  81.463 117.648  0.00  0.00     0.381 N 
ATOM     19  H   LIG d   1      -6.077  82.012 118.392  0.00  0.00    -0.090 HD
ATOM     20  H   LIG d   1      -6.079  81.798 116.781  0.00  0.00    -0.090 HD
ATOM     21  H   LIG d   1      -4.704  81.548 117.636  0.00  0.00    -0.090 HD
ENDBRANCH   5  18
BRANCH   3  22
ATOM     22  C   LIG d   1      -9.348  78.433 118.298  0.00  0.00     0.382 C 
ATOM     23  O   LIG d   1      -9.736  77.260 118.521  0.00  0.00    -0.241 OA
ATOM     24  O   LIG d   1     -10.117  79.386 118.526  0.00  0.00    -0.241 OA
ENDBRANCH   3  22
TORSDOF 7
ENDMDL
MODEL 3
REMARK VINA RESULT:      -5.2      1.049      2.057
REMARK  7 active torsions:
REMARK  status: ('A' for Active; 'I' for Inactive)
REMARK    1  A    between atoms: C_2  and  C_3 
REMARK    2  A    between atoms: C_3  and  O_6 
REMARK    3  A    between atoms: C_3  and  C_4 
REMARK    4  A    between atoms: C_7  and  O_6 
REMARK    5  A    between atoms: C_9  and  C_10 
REMARK    6  A    between atoms: N_15  and  C_14 
REMARK    7  A    between atoms: N_20  and  C_19 
REMARK       I    between atoms: C_22  and  N_20 
ROOT
ATOM      1  C   LIG d   1      -5.471  74.497 116.656  0.00  0.00     0.161 C 
ATOM      2  C   LIG d   1      -6.185  73.369 116.218  0.00  0.00     0.016 C 
ATOM      3  C   LIG d   1      -7.596  73.321 116.147  0.00  0.00     0.038 C 
ATOM      4  C   LIG d   1      -8.389  74.458 116.367  0.00  0.00     0.028 C 
ATOM      5  C   LIG d   1      -7.742  75.477 117.299  0.00  0.00    -0.047 C 
ATOM      6  C   LIG d   1      -6.313  75.782 116.793  0.00  0.00     0.091 C 
ENDROOT
BRANCH   1   7
ATOM      7  O   LIG d   1      -4.343  74.727 115.789  0.00  0.00    -0.368 OA
BRANCH   7   8
ATOM      8  C   LIG d   1      -4.432  75.884 114.921  0.00  0.00     0.119 C 
BRANCH   8   9
ATOM      9  C   LIG d   1      -4.603  75.370 113.479  0.00  0.00     0.028 C 
ATOM     10  C   LIG d   1      -6.017  75.623 112.930  0.00  0.00     0.006 C 
ENDBRANCH   8   9
BRANCH   8  11
ATOM     11  C   LIG d   1      -3.122  76.679 114.916  0.00  0.00     0.028 C 
ATOM     12  C   LIG d   1      -2.297  76.476 116.196  0.00  0.00     0.006 C 
ENDBRANCH   8  11
ENDBRANCH   7   8
ENDBRANCH   1   7
BRANCH   6  13
ATOM     13  N   LIG d   1      -5.579  76.707 117.696  0.00  0.00    -0.311 N 
ATOM     14  C   LIG d   1      -5.530  78.025 117.513  0.00  0.00     0.210 C 
ATOM     15  C   LIG d   1      -4.701  78.792 118.549  0.00  0.00     0.109 C 
ATOM     16  O   LIG d   1      -6.122  78.637 116.611  0.00  0.00    -0.276 OA
ATOM     17  H   LIG d   1      -5.096  76.299 118.472  0.00  0.00     0.149 HD
ENDBRANCH   6  13
BRANCH   5  18
ATOM     18  N   LIG d   1      -8.611  76.668 117.330  0.00  0.00     0.381 N 
ATOM     19  H   LIG d   1      -9.161  76.664 118.166  0.00  0.00    -0.090 HD
ATOM     20  H   LIG d   1      -9.235  76.636 116.543  0.00  0.00    -0.090 HD
ATOM     21  H   LIG d   1      -8.058  77.495 117.292  0.00  0.00    -0.090 HD
ENDBRANCH   5  18
BRANCH   3  22
ATOM     22  C   LIG d   1      -8.231  72.115 115.892  0.00  0.00     0.382 C 
ATOM     23  O   LIG d   1      -7.552  71.079 115.694  0.00  0.00    -0.241 OA
ATOM     24  O   LIG d   1      -9.473  72.059 115.813  0.00  0.00    -0.241 OA
ENDBRANCH   3  22
TORSDOF 7
ENDMDL
MODEL 4
REMARK VINA RESULT:      -5.1      2.408      5.461
REMARK  7 active torsions:
REMARK  status: ('A' for Active; 'I' for Inactive)
REMARK    1  A    between atoms: C_2  and  C_3 
REMARK    2  A    between atoms: C_3  and  O_6 
REMARK    3  A    between atoms: C_3  and  C_4 
REMARK    4  A    between atoms: C_7  and  O_6 
REMARK    5  A    between atoms: C_9  and  C_10 
REMARK    6  A    between atoms: N_15  and  C_14 
REMARK    7  A    between atoms: N_20  and  C_19 
REMARK       I    between atoms: C_22  and  N_20 
ROOT
ATOM      1  C   LIG d   1      -6.267  75.875 117.465  0.00  0.00     0.161 C 
ATOM      2  C   LIG d   1      -7.314  76.806 117.573  0.00  0.00     0.016 C 
ATOM      3  C   LIG d   1      -7.124  78.204 117.487  0.00  0.00     0.038 C 
ATOM      4  C   LIG d   1      -5.887  78.764 117.134  0.00  0.00     0.028 C 
ATOM      5  C   LIG d   1      -4.696  77.890 117.514  0.00  0.00    -0.047 C 
ATOM      6  C   LIG d   1      -4.929  76.462 116.970  0.00  0.00     0.091 C 
ENDROOT
BRANCH   1   7
ATOM      7  O   LIG d   1      -6.674  74.777 116.626  0.00  0.00    -0.368 OA
BRANCH   7   8
ATOM      8  C   LIG d   1      -7.751  73.951 117.133  0.00  0.00     0.119 C 
BRANCH   8   9
ATOM      9  C   LIG d   1      -7.243  72.497 117.169  0.00  0.00     0.028 C 
ATOM     10  C   LIG d   1      -7.584  71.725 115.883  0.00  0.00     0.006 C 
ENDBRANCH   8   9
BRANCH   8  11
ATOM     11  C   LIG d   1      -8.945  73.941 116.174  0.00  0.00     0.028 C 
ATOM     12  C   LIG d   1     -10.252  74.393 116.844  0.00  0.00     0.006 C 
ENDBRANCH   8  11
ENDBRANCH   7   8
ENDBRANCH   1   7
BRANCH   6  13
ATOM     13  N   LIG d   1      -3.850  75.521 117.369  0.00  0.00    -0.311 N 
ATOM     14  C   LIG d   1      -2.784  75.264 116.613  0.00  0.00     0.210 C 
ATOM     15  C   LIG d   1      -1.802  74.248 117.204  0.00  0.00     0.109 C 
ATOM     16  O   LIG d   1      -2.542  75.805 115.524  0.00  0.00    -0.276 OA
ATOM     17  H   LIG d   1      -3.950  75.061 118.253  0.00  0.00     0.149 HD
ENDBRANCH   6  13
BRANCH   5  18
ATOM     18  N   LIG d   1      -3.484  78.527 116.966  0.00  0.00     0.381 N 
ATOM     19  H   LIG d   1      -3.297  79.378 117.458  0.00  0.00    -0.090 HD
ATOM     20  H   LIG d   1      -3.641  78.749 115.999  0.00  0.00    -0.090 HD
ATOM     21  H   LIG d   1      -2.706  77.909 117.050  0.00  0.00    -0.090 HD
ENDBRANCH   5  18
BRANCH   3  22
ATOM     22  C   LIG d   1      -8.171  79.060 117.794  0.00  0.00     0.382 C 
ATOM     23  O   LIG d   1      -8.155  80.244 117.380  0.00  0.00    -0.241 OA
ATOM     24  O   LIG d   1      -9.109  78.676 118.517  0.00  0.00    -0.241 OA
ENDBRANCH   3  22
TORSDOF 7
ENDMDL
MODEL 5
REMARK VINA RESULT:      -4.9      3.079      6.018
REMARK  7 active torsions:
REMARK  status: ('A' for Active; 'I' for Inactive)
REMARK    1  A    between atoms: C_2  and  C_3 
REMARK    2  A    between atoms: C_3  and  O_6 
REMARK    3  A    between atoms: C_3  and  C_4 
REMARK    4  A    between atoms: C_7  and  O_6 
REMARK    5  A    between atoms: C_9  and  C_10 
REMARK    6  A    between atoms: N_15  and  C_14 
REMARK    7  A    between atoms: N_20  and  C_19 
REMARK       I    between atoms: C_22  and  N_20 
ROOT
ATOM      1  C   LIG d   1      -4.272  76.248 116.401  0.00  0.00     0.161 C 
ATOM      2  C   LIG d   1      -5.114  77.295 116.811  0.00  0.00     0.016 C 
ATOM      3  C   LIG d   1      -4.811  78.661 116.611  0.00  0.00     0.038 C 
ATOM      4  C   LIG d   1      -3.709  79.072 115.846  0.00  0.00     0.028 C 
ATOM      5  C   LIG d   1      -2.564  78.065 115.845  0.00  0.00    -0.047 C 
ATOM      6  C   LIG d   1      -3.120  76.673 115.467  0.00  0.00     0.091 C 
ENDROOT
BRANCH   1   7
ATOM      7  O   LIG d   1      -5.054  75.203 115.788  0.00  0.00    -0.368 OA
BRANCH   7   8
ATOM      8  C   LIG d   1      -6.416  75.550 115.437  0.00  0.00     0.119 C 
BRANCH   8   9
ATOM      9  C   LIG d   1      -7.328  74.418 115.948  0.00  0.00     0.028 C 
ATOM     10  C   LIG d   1      -6.647  73.040 115.882  0.00  0.00     0.006 C 
ENDBRANCH   8   9
BRANCH   8  11
ATOM     11  C   LIG d   1      -6.610  75.572 113.918  0.00  0.00     0.028 C 
ATOM     12  C   LIG d   1      -5.292  75.408 113.145  0.00  0.00     0.006 C 
ENDBRANCH   8  11
ENDBRANCH   7   8
ENDBRANCH   1   7
BRANCH   6  13
ATOM     13  N   LIG d   1      -2.080  75.613 115.524  0.00  0.00    -0.311 N 
ATOM     14  C   LIG d   1      -1.408  75.186 114.455  0.00  0.00     0.210 C 
ATOM     15  C   LIG d   1      -0.394  74.072 114.732  0.00  0.00     0.109 C 
ATOM     16  O   LIG d   1      -1.533  75.647 113.311  0.00  0.00    -0.276 OA
ATOM     17  H   LIG d   1      -1.892  75.206 116.419  0.00  0.00     0.149 HD
ENDBRANCH   6  13
BRANCH   5  18
ATOM     18  N   LIG d   1      -1.541  78.555 114.901  0.00  0.00     0.381 N 
ATOM     19  H   LIG d   1      -1.607  79.550 114.817  0.00  0.00    -0.090 HD
ATOM     20  H   LIG d   1      -1.712  78.150 113.997  0.00  0.00    -0.090 HD
ATOM     21  H   LIG d   1      -0.632  78.301 115.221  0.00  0.00    -0.090 HD
ENDBRANCH   5  18
BRANCH   3  22
ATOM     22  C   LIG d   1      -5.594  79.634 117.213  0.00  0.00     0.382 C 
ATOM     23  O   LIG d   1      -5.058  80.526 117.914  0.00  0.00    -0.241 OA
ATOM     24  O   LIG d   1      -6.834  79.605 117.101  0.00  0.00    -0.241 OA
ENDBRANCH   3  22
TORSDOF 7
ENDMDL
MODEL 6
REMARK VINA RESULT:      -4.8      4.032      7.461
REMARK  7 active torsions:
REMARK  status: ('A' for Active; 'I' for Inactive)
REMARK    1  A    between atoms: C_2  and  C_3 
REMARK    2  A    between atoms: C_3  and  O_6 
REMARK    3  A    between atoms: C_3  and  C_4 
REMARK    4  A    between atoms: C_7  and  O_6 
REMARK    5  A    between atoms: C_9  and  C_10 
REMARK    6  A    between atoms: N_15  and  C_14 
REMARK    7  A    between atoms: N_20  and  C_19 
REMARK       I    between atoms: C_22  and  N_20 
ROOT
ATOM      1  C   LIG d   1      -3.281  78.115 115.632  0.00  0.00     0.161 C 
ATOM      2  C   LIG d   1      -3.759  79.424 115.808  0.00  0.00     0.016 C 
ATOM      3  C   LIG d   1      -2.975  80.577 115.576  0.00  0.00     0.038 C 
ATOM      4  C   LIG d   1      -1.697  80.501 115.002  0.00  0.00     0.028 C 
ATOM      5  C   LIG d   1      -0.985  79.181 115.281  0.00  0.00    -0.047 C 
ATOM      6  C   LIG d   1      -1.925  78.014 114.902  0.00  0.00     0.091 C 
ENDROOT
BRANCH   1   7
ATOM      7  O   LIG d   1      -4.274  77.318 114.958  0.00  0.00    -0.368 OA
BRANCH   7   8
ATOM      8  C   LIG d   1      -4.876  76.255 115.737  0.00  0.00     0.119 C 
BRANCH   8   9
ATOM      9  C   LIG d   1      -4.841  74.975 114.880  0.00  0.00     0.028 C 
ATOM     10  C   LIG d   1      -5.018  75.268 113.381  0.00  0.00     0.006 C 
ENDBRANCH   8   9
BRANCH   8  11
ATOM     11  C   LIG d   1      -6.361  76.528 115.998  0.00  0.00     0.028 C 
ATOM     12  C   LIG d   1      -6.593  77.473 117.187  0.00  0.00     0.006 C 
ENDBRANCH   8  11
ENDBRANCH   7   8
ENDBRANCH   1   7
BRANCH   6  13
ATOM     13  N   LIG d   1      -1.339  76.687 115.222  0.00  0.00    -0.311 N 
ATOM     14  C   LIG d   1      -1.274  75.684 114.347  0.00  0.00     0.210 C 
ATOM     15  C   LIG d   1      -0.649  74.394 114.888  0.00  0.00     0.109 C 
ATOM     16  O   LIG d   1      -1.645  75.751 113.166  0.00  0.00    -0.276 OA
ATOM     17  H   LIG d   1      -0.986  76.556 116.149  0.00  0.00     0.149 HD
ENDBRANCH   6  13
BRANCH   5  18
ATOM     18  N   LIG d   1       0.274  79.183 114.513  0.00  0.00     0.381 N 
ATOM     19  H   LIG d   1       0.602  80.121 114.403  0.00  0.00    -0.090 HD
ATOM     20  H   LIG d   1       0.098  78.801 113.600  0.00  0.00    -0.090 HD
ATOM     21  H   LIG d   1       0.961  78.636 114.983  0.00  0.00    -0.090 HD
ENDBRANCH   5  18
BRANCH   3  22
ATOM     22  C   LIG d   1      -3.453  81.822 115.955  0.00  0.00     0.382 C 
ATOM     23  O   LIG d   1      -4.671  81.972 116.217  0.00  0.00    -0.241 OA
ATOM     24  O   LIG d   1      -2.691  82.806 115.996  0.00  0.00    -0.241 OA
ENDBRANCH   3  22
TORSDOF 7
ENDMDL
MODEL 7
REMARK VINA RESULT:      -4.8     20.336     22.848
REMARK  7 active torsions:
REMARK  status: ('A' for Active; 'I' for Inactive)
REMARK    1  A    between atoms: C_2  and  C_3 
REMARK    2  A    between atoms: C_3  and  O_6 
REMARK    3  A    between atoms: C_3  and  C_4 
REMARK    4  A    between atoms: C_7  and  O_6 
REMARK    5  A    between atoms: C_9  and  C_10 
REMARK    6  A    between atoms: N_15  and  C_14 
REMARK    7  A    between atoms: N_20  and  C_19 
REMARK       I    between atoms: C_22  and  N_20 
ROOT
ATOM      1  C   LIG d   1     -25.422  85.745 113.948  0.00  0.00     0.161 C 
ATOM      2  C   LIG d   1     -24.457  86.742 114.165  0.00  0.00     0.016 C 
ATOM      3  C   LIG d   1     -23.088  86.465 114.388  0.00  0.00     0.038 C 
ATOM      4  C   LIG d   1     -22.564  85.170 114.259  0.00  0.00     0.028 C 
ATOM      5  C   LIG d   1     -23.584  84.072 114.540  0.00  0.00    -0.047 C 
ATOM      6  C   LIG d   1     -24.850  84.335 113.693  0.00  0.00     0.091 C 
ENDROOT
BRANCH   1   7
ATOM      7  O   LIG d   1     -26.293  86.135 112.868  0.00  0.00    -0.368 OA
BRANCH   7   8
ATOM      8  C   LIG d   1     -27.425  86.964 113.230  0.00  0.00     0.119 C 
BRANCH   8   9
ATOM      9  C   LIG d   1     -28.645  86.036 113.391  0.00  0.00     0.028 C 
ATOM     10  C   LIG d   1     -29.269  85.646 112.041  0.00  0.00     0.006 C 
ENDBRANCH   8   9
BRANCH   8  11
ATOM     11  C   LIG d   1     -27.795  87.927 112.098  0.00  0.00     0.028 C 
ATOM     12  C   LIG d   1     -26.796  89.085 111.950  0.00  0.00     0.006 C 
ENDBRANCH   8  11
ENDBRANCH   7   8
ENDBRANCH   1   7
BRANCH   6  13
ATOM     13  N   LIG d   1     -25.931  83.354 113.971  0.00  0.00    -0.311 N 
ATOM     14  C   LIG d   1     -26.692  82.813 113.020  0.00  0.00     0.210 C 
ATOM     15  C   LIG d   1     -27.762  81.839 113.525  0.00  0.00     0.109 C 
ATOM     16  O   LIG d   1     -26.561  83.022 111.805  0.00  0.00    -0.276 OA
ATOM     17  H   LIG d   1     -26.085  83.104 114.928  0.00  0.00     0.149 HD
ENDBRANCH   6  13
BRANCH   5  18
ATOM     18  N   LIG d   1     -22.942  82.779 114.235  0.00  0.00     0.381 N 
ATOM     19  H   LIG d   1     -23.476  82.291 113.543  0.00  0.00    -0.090 HD
ATOM     20  H   LIG d   1     -22.923  82.221 115.070  0.00  0.00    -0.090 HD
ATOM     21  H   LIG d   1     -22.014  82.928 113.905  0.00  0.00    -0.090 HD
ENDBRANCH   5  18
BRANCH   3  22
ATOM     22  C   LIG d   1     -22.236  87.484 114.785  0.00  0.00     0.382 C 
ATOM     23  O   LIG d   1     -22.631  88.349 115.604  0.00  0.00    -0.241 OA
ATOM     24  O   LIG d   1     -21.093  87.576 114.300  0.00  0.00    -0.241 OA
ENDBRANCH   3  22
TORSDOF 7
ENDMDL
MODEL 8
REMARK VINA RESULT:      -4.6     18.710     21.185
REMARK  7 active torsions:
REMARK  status: ('A' for Active; 'I' for Inactive)
REMARK    1  A    between atoms: C_2  and  C_3 
REMARK    2  A    between atoms: C_3  and  O_6 
REMARK    3  A    between atoms: C_3  and  C_4 
REMARK    4  A    between atoms: C_7  and  O_6 
REMARK    5  A    between atoms: C_9  and  C_10 
REMARK    6  A    between atoms: N_15  and  C_14 
REMARK    7  A    between atoms: N_20  and  C_19 
REMARK       I    between atoms: C_22  and  N_20 
ROOT
ATOM      1  C   LIG d   1     -23.699  83.859 114.103  0.00  0.00     0.161 C 
ATOM      2  C   LIG d   1     -22.767  84.878 114.365  0.00  0.00     0.016 C 
ATOM      3  C   LIG d   1     -23.090  86.254 114.337  0.00  0.00     0.038 C 
ATOM      4  C   LIG d   1     -24.411  86.703 114.193  0.00  0.00     0.028 C 
ATOM      5  C   LIG d   1     -25.300  85.731 113.423  0.00  0.00    -0.047 C 
ATOM      6  C   LIG d   1     -25.169  84.325 114.052  0.00  0.00     0.091 C 
ENDROOT
BRANCH   1   7
ATOM      7  O   LIG d   1     -23.543  82.795 115.062  0.00  0.00    -0.368 OA
BRANCH   7   8
ATOM      8  C   LIG d   1     -24.228  82.972 116.326  0.00  0.00     0.119 C 
BRANCH   8   9
ATOM      9  C   LIG d   1     -23.154  83.203 117.407  0.00  0.00     0.028 C 
ATOM     10  C   LIG d   1     -21.813  82.538 117.053  0.00  0.00     0.006 C 
ENDBRANCH   8   9
BRANCH   8  11
ATOM     11  C   LIG d   1     -24.959  81.694 116.748  0.00  0.00     0.028 C 
ATOM     12  C   LIG d   1     -25.047  80.657 115.616  0.00  0.00     0.006 C 
ENDBRANCH   8  11
ENDBRANCH   7   8
ENDBRANCH   1   7
BRANCH   6  13
ATOM     13  N   LIG d   1     -25.942  83.297 113.308  0.00  0.00    -0.311 N 
ATOM     14  C   LIG d   1     -27.167  82.907 113.655  0.00  0.00     0.210 C 
ATOM     15  C   LIG d   1     -27.776  81.820 112.763  0.00  0.00     0.109 C 
ATOM     16  O   LIG d   1     -27.820  83.380 114.597  0.00  0.00    -0.276 OA
ATOM     17  H   LIG d   1     -25.500  82.883 112.511  0.00  0.00     0.149 HD
ENDBRANCH   6  13
BRANCH   5  18
ATOM     18  N   LIG d   1     -26.678  86.258 113.466  0.00  0.00     0.381 N 
ATOM     19  H   LIG d   1     -27.293  85.566 113.845  0.00  0.00    -0.090 HD
ATOM     20  H   LIG d   1     -26.975  86.466 112.530  0.00  0.00    -0.090 HD
ATOM     21  H   LIG d   1     -26.710  87.083 114.024  0.00  0.00    -0.090 HD
ENDBRANCH   5  18
BRANCH   3  22
ATOM     22  C   LIG d   1     -22.078  87.199 114.416  0.00  0.00     0.382 C 
ATOM     23  O   LIG d   1     -21.033  87.055 113.738  0.00  0.00    -0.241 OA
ATOM     24  O   LIG d   1     -22.179  88.170 115.189  0.00  0.00    -0.241 OA
ENDBRANCH   3  22
TORSDOF 7
ENDMDL
MODEL 9
REMARK VINA RESULT:      -4.3     21.512     23.654
REMARK  7 active torsions:
REMARK  status: ('A' for Active; 'I' for Inactive)
REMARK    1  A    between atoms: C_2  and  C_3 
REMARK    2  A    between atoms: C_3  and  O_6 
REMARK    3  A    between atoms: C_3  and  C_4 
REMARK    4  A    between atoms: C_7  and  O_6 
REMARK    5  A    between atoms: C_9  and  C_10 
REMARK    6  A    between atoms: N_15  and  C_14 
REMARK    7  A    between atoms: N_20  and  C_19 
REMARK       I    between atoms: C_22  and  N_20 
ROOT
ATOM      1  C   LIG d   1     -25.370  87.765 114.829  0.00  0.00     0.161 C 
ATOM      2  C   LIG d   1     -24.365  87.168 114.050  0.00  0.00     0.016 C 
ATOM      3  C   LIG d   1     -23.336  86.363 114.590  0.00  0.00     0.038 C 
ATOM      4  C   LIG d   1     -23.331  85.973 115.938  0.00  0.00     0.028 C 
ATOM      5  C   LIG d   1     -24.040  86.961 116.857  0.00  0.00    -0.047 C 
ATOM      6  C   LIG d   1     -25.444  87.260 116.285  0.00  0.00     0.091 C 
ENDROOT
BRANCH   1   7
ATOM      7  O   LIG d   1     -26.648  87.611 114.180  0.00  0.00    -0.368 OA
BRANCH   7   8
ATOM      8  C   LIG d   1     -27.016  88.653 113.243  0.00  0.00     0.119 C 
BRANCH   8   9
ATOM      9  C   LIG d   1     -27.722  89.765 114.043  0.00  0.00     0.028 C 
ATOM     10  C   LIG d   1     -26.839  91.012 114.220  0.00  0.00     0.006 C 
ENDBRANCH   8   9
BRANCH   8  11
ATOM     11  C   LIG d   1     -28.057  88.155 112.236  0.00  0.00     0.028 C 
ATOM     12  C   LIG d   1     -29.205  89.154 112.022  0.00  0.00     0.006 C 
ENDBRANCH   8  11
ENDBRANCH   7   8
ENDBRANCH   1   7
BRANCH   6  13
ATOM     13  N   LIG d   1     -26.174  88.283 117.079  0.00  0.00    -0.311 N 
ATOM     14  C   LIG d   1     -27.401  88.097 117.563  0.00  0.00     0.210 C 
ATOM     15  C   LIG d   1     -27.978  89.287 118.336  0.00  0.00     0.109 C 
ATOM     16  O   LIG d   1     -28.054  87.049 117.452  0.00  0.00    -0.276 OA
ATOM     17  H   LIG d   1     -25.705  89.152 117.243  0.00  0.00     0.149 HD
ENDBRANCH   6  13
BRANCH   5  18
ATOM     18  N   LIG d   1     -24.079  86.365 118.206  0.00  0.00     0.381 N 
ATOM     19  H   LIG d   1     -24.953  86.578 118.645  0.00  0.00    -0.090 HD
ATOM     20  H   LIG d   1     -23.343  86.766 118.760  0.00  0.00    -0.090 HD
ATOM     21  H   LIG d   1     -23.960  85.378 118.146  0.00  0.00    -0.090 HD
ENDBRANCH   5  18
BRANCH   3  22
ATOM     22  C   LIG d   1     -22.276  85.971 113.787  0.00  0.00     0.382 C 
ATOM     23  O   LIG d   1     -21.301  86.741 113.617  0.00  0.00    -0.241 OA
ATOM     24  O   LIG d   1     -22.303  84.876 113.194  0.00  0.00    -0.241 OA
ENDBRANCH   3  22
TORSDOF 7
ENDMDL
