MODEL 1
REMARK VINA RESULT:      -4.4      0.000      0.000
REMARK  7 active torsions:
REMARK  status: ('A' for Active; 'I' for Inactive)
REMARK    1  A    between atoms: C_2  and  C_3 
REMARK    2  A    between atoms: C_3  and  O_6 
REMARK    3  A    between atoms: C_3  and  C_4 
REMARK    4  A    between atoms: C_7  and  O_6 
REMARK    5  A    between atoms: C_9  and  C_10 
REMARK    6  A    between atoms: N_15  and  C_14 
REMARK    7  A    between atoms: N_20  and  C_19 
REMARK       I    between atoms: C_22  and  N_20 
ROOT
ATOM      1  C   LIG d   1       1.480  86.712 115.216  0.00  0.00     0.161 C 
ATOM      2  C   LIG d   1       0.670  85.778 114.549  0.00  0.00     0.016 C 
ATOM      3  C   LIG d   1       0.906  85.350 113.223  0.00  0.00     0.038 C 
ATOM      4  C   LIG d   1       2.064  85.717 112.520  0.00  0.00     0.028 C 
ATOM      5  C   LIG d   1       2.647  87.053 112.969  0.00  0.00    -0.047 C 
ATOM      6  C   LIG d   1       2.810  87.038 114.506  0.00  0.00     0.091 C 
ENDROOT
BRANCH   1   7
ATOM      7  O   LIG d   1       1.728  86.268 116.565  0.00  0.00    -0.368 OA
BRANCH   7   8
ATOM      8  C   LIG d   1       1.067  87.017 117.614  0.00  0.00     0.119 C 
BRANCH   8   9
ATOM      9  C   LIG d   1      -0.053  86.125 118.184  0.00  0.00     0.028 C 
ATOM     10  C   LIG d   1       0.324  84.634 118.180  0.00  0.00     0.006 C 
ENDBRANCH   8   9
BRANCH   8  11
ATOM     11  C   LIG d   1       0.356  88.253 117.054  0.00  0.00     0.028 C 
ATOM     12  C   LIG d   1      -1.133  88.305 117.430  0.00  0.00     0.006 C 
ENDBRANCH   8  11
ENDBRANCH   7   8
ENDBRANCH   1   7
BRANCH   6  13
ATOM     13  N   LIG d   1       3.296  88.339 115.036  0.00  0.00    -0.311 N 
ATOM     14  C   LIG d   1       4.587  88.642 115.165  0.00  0.00     0.210 C 
ATOM     15  C   LIG d   1       4.870  90.028 115.752  0.00  0.00     0.109 C 
ATOM     16  O   LIG d   1       5.524  87.907 114.818  0.00  0.00    -0.276 OA
ATOM     17  H   LIG d   1       2.603  89.006 115.312  0.00  0.00     0.149 HD
ENDBRANCH   6  13
BRANCH   5  18
ATOM     18  N   LIG d   1       3.922  87.245 112.253  0.00  0.00     0.381 N 
ATOM     19  H   LIG d   1       3.744  87.417 111.284  0.00  0.00    -0.090 HD
ATOM     20  H   LIG d   1       4.468  86.404 112.329  0.00  0.00    -0.090 HD
ATOM     21  H   LIG d   1       4.423  88.011 112.648  0.00  0.00    -0.090 HD
ENDBRANCH   5  18
BRANCH   3  22
ATOM     22  C   LIG d   1      -0.043  84.578 112.570  0.00  0.00     0.382 C 
ATOM     23  O   LIG d   1      -1.033  85.126 112.029  0.00  0.00    -0.241 OA
ATOM     24  O   LIG d   1       0.055  83.336 112.554  0.00  0.00    -0.241 OA
ENDBRANCH   3  22
TORSDOF 7
ENDMDL
MODEL 2
REMARK VINA RESULT:      -4.3      2.939      4.022
REMARK  7 active torsions:
REMARK  status: ('A' for Active; 'I' for Inactive)
REMARK    1  A    between atoms: C_2  and  C_3 
REMARK    2  A    between atoms: C_3  and  O_6 
REMARK    3  A    between atoms: C_3  and  C_4 
REMARK    4  A    between atoms: C_7  and  O_6 
REMARK    5  A    between atoms: C_9  and  C_10 
REMARK    6  A    between atoms: N_15  and  C_14 
REMARK    7  A    between atoms: N_20  and  C_19 
REMARK       I    between atoms: C_22  and  N_20 
ROOT
ATOM      1  C   LIG d   1       3.636  86.951 115.752  0.00  0.00     0.161 C 
ATOM      2  C   LIG d   1       3.468  85.987 114.744  0.00  0.00     0.016 C 
ATOM      3  C   LIG d   1       3.650  86.259 113.368  0.00  0.00     0.038 C 
ATOM      4  C   LIG d   1       4.163  87.485 112.917  0.00  0.00     0.028 C 
ATOM      5  C   LIG d   1       3.865  88.649 113.856  0.00  0.00    -0.047 C 
ATOM      6  C   LIG d   1       4.303  88.263 115.287  0.00  0.00     0.091 C 
ENDROOT
BRANCH   1   7
ATOM      7  O   LIG d   1       4.367  86.382 116.856  0.00  0.00    -0.368 OA
BRANCH   7   8
ATOM      8  C   LIG d   1       5.748  86.032 116.594  0.00  0.00     0.119 C 
BRANCH   8   9
ATOM      9  C   LIG d   1       5.994  84.635 117.196  0.00  0.00     0.028 C 
ATOM     10  C   LIG d   1       4.699  83.975 117.697  0.00  0.00     0.006 C 
ENDBRANCH   8   9
BRANCH   8  11
ATOM     11  C   LIG d   1       6.709  86.968 117.332  0.00  0.00     0.028 C 
ATOM     12  C   LIG d   1       7.898  87.409 116.463  0.00  0.00     0.006 C 
ENDBRANCH   8  11
ENDBRANCH   7   8
ENDBRANCH   1   7
BRANCH   6  13
ATOM     13  N   LIG d   1       3.970  89.314 116.284  0.00  0.00    -0.311 N 
ATOM     14  C   LIG d   1       4.830  90.255 116.672  0.00  0.00     0.210 C 
ATOM     15  C   LIG d   1       4.291  91.229 117.724  0.00  0.00     0.109 C 
ATOM     16  O   LIG d   1       5.976  90.395 116.220  0.00  0.00    -0.276 OA
ATOM     17  H   LIG d   1       3.050  89.294 116.679  0.00  0.00     0.149 HD
ENDBRANCH   6  13
BRANCH   5  18
ATOM     18  N   LIG d   1       4.573  89.834 113.335  0.00  0.00     0.381 N 
ATOM     19  H   LIG d   1       5.334  90.067 113.940  0.00  0.00    -0.090 HD
ATOM     20  H   LIG d   1       3.936  90.610 113.315  0.00  0.00    -0.090 HD
ATOM     21  H   LIG d   1       4.914  89.651 112.416  0.00  0.00    -0.090 HD
ENDBRANCH   5  18
BRANCH   3  22
ATOM     22  C   LIG d   1       3.279  85.313 112.426  0.00  0.00     0.382 C 
ATOM     23  O   LIG d   1       2.111  85.306 111.969  0.00  0.00    -0.241 OA
ATOM     24  O   LIG d   1       4.086  84.437 112.059  0.00  0.00    -0.241 OA
ENDBRANCH   3  22
TORSDOF 7
ENDMDL
MODEL 3
REMARK VINA RESULT:      -4.2      2.315      5.423
REMARK  7 active torsions:
REMARK  status: ('A' for Active; 'I' for Inactive)
REMARK    1  A    between atoms: C_2  and  C_3 
REMARK    2  A    between atoms: C_3  and  O_6 
REMARK    3  A    between atoms: C_3  and  C_4 
REMARK    4  A    between atoms: C_7  and  O_6 
REMARK    5  A    between atoms: C_9  and  C_10 
REMARK    6  A    between atoms: N_15  and  C_14 
REMARK    7  A    between atoms: N_20  and  C_19 
REMARK       I    between atoms: C_22  and  N_20 
ROOT
ATOM      1  C   LIG d   1       1.641  87.126 114.980  0.00  0.00     0.161 C 
ATOM      2  C   LIG d   1       2.624  87.632 114.112  0.00  0.00     0.016 C 
ATOM      3  C   LIG d   1       3.793  88.289 114.560  0.00  0.00     0.038 C 
ATOM      4  C   LIG d   1       4.134  88.353 115.919  0.00  0.00     0.028 C 
ATOM      5  C   LIG d   1       2.926  88.303 116.849  0.00  0.00    -0.047 C 
ATOM      6  C   LIG d   1       2.049  87.088 116.467  0.00  0.00     0.091 C 
ENDROOT
BRANCH   1   7
ATOM      7  O   LIG d   1       1.227  85.818 114.540  0.00  0.00    -0.368 OA
BRANCH   7   8
ATOM      8  C   LIG d   1       1.384  85.541 113.127  0.00  0.00     0.119 C 
BRANCH   8   9
ATOM      9  C   LIG d   1       0.091  84.858 112.642  0.00  0.00     0.028 C 
ATOM     10  C   LIG d   1      -0.795  85.801 111.811  0.00  0.00     0.006 C 
ENDBRANCH   8   9
BRANCH   8  11
ATOM     11  C   LIG d   1       2.499  84.520 112.879  0.00  0.00     0.028 C 
ATOM     12  C   LIG d   1       3.546  85.014 111.869  0.00  0.00     0.006 C 
ENDBRANCH   8  11
ENDBRANCH   7   8
ENDBRANCH   1   7
BRANCH   6  13
ATOM     13  N   LIG d   1       0.803  87.013 117.274  0.00  0.00    -0.311 N 
ATOM     14  C   LIG d   1      -0.092  87.997 117.333  0.00  0.00     0.210 C 
ATOM     15  C   LIG d   1      -1.296  87.722 118.240  0.00  0.00     0.109 C 
ATOM     16  O   LIG d   1      -0.020  89.058 116.696  0.00  0.00    -0.276 OA
ATOM     17  H   LIG d   1       0.649  86.174 117.798  0.00  0.00     0.149 HD
ENDBRANCH   6  13
BRANCH   5  18
ATOM     18  N   LIG d   1       3.433  88.238 118.233  0.00  0.00     0.381 N 
ATOM     19  H   LIG d   1       4.426  88.359 118.236  0.00  0.00    -0.090 HD
ATOM     20  H   LIG d   1       3.224  87.332 118.614  0.00  0.00    -0.090 HD
ATOM     21  H   LIG d   1       3.003  88.946 118.787  0.00  0.00    -0.090 HD
ENDBRANCH   5  18
BRANCH   3  22
ATOM     22  C   LIG d   1       4.615  88.927 113.644  0.00  0.00     0.382 C 
ATOM     23  O   LIG d   1       4.586  90.177 113.538  0.00  0.00    -0.241 OA
ATOM     24  O   LIG d   1       5.354  88.266 112.890  0.00  0.00    -0.241 OA
ENDBRANCH   3  22
TORSDOF 7
ENDMDL
MODEL 4
REMARK VINA RESULT:      -4.0      1.754      2.322
REMARK  7 active torsions:
REMARK  status: ('A' for Active; 'I' for Inactive)
REMARK    1  A    between atoms: C_2  and  C_3 
REMARK    2  A    between atoms: C_3  and  O_6 
REMARK    3  A    between atoms: C_3  and  C_4 
REMARK    4  A    between atoms: C_7  and  O_6 
REMARK    5  A    between atoms: C_9  and  C_10 
REMARK    6  A    between atoms: N_15  and  C_14 
REMARK    7  A    between atoms: N_20  and  C_19 
REMARK       I    between atoms: C_22  and  N_20 
ROOT
ATOM      1  C   LIG d   1       1.728  86.298 114.862  0.00  0.00     0.161 C 
ATOM      2  C   LIG d   1       0.675  85.615 114.231  0.00  0.00     0.016 C 
ATOM      3  C   LIG d   1       0.740  85.145 112.899  0.00  0.00     0.038 C 
ATOM      4  C   LIG d   1       1.927  85.192 112.153  0.00  0.00     0.028 C 
ATOM      5  C   LIG d   1       2.860  86.324 112.571  0.00  0.00    -0.047 C 
ATOM      6  C   LIG d   1       3.070  86.261 114.102  0.00  0.00     0.091 C 
ENDROOT
BRANCH   1   7
ATOM      7  O   LIG d   1       1.898  85.800 116.204  0.00  0.00    -0.368 OA
BRANCH   7   8
ATOM      8  C   LIG d   1       1.635  84.388 116.398  0.00  0.00     0.119 C 
BRANCH   8   9
ATOM      9  C   LIG d   1       0.954  84.229 117.771  0.00  0.00     0.028 C 
ATOM     10  C   LIG d   1       0.607  82.764 118.087  0.00  0.00     0.006 C 
ENDBRANCH   8   9
BRANCH   8  11
ATOM     11  C   LIG d   1       2.937  83.587 116.495  0.00  0.00     0.028 C 
ATOM     12  C   LIG d   1       4.076  84.380 117.156  0.00  0.00     0.006 C 
ENDBRANCH   8  11
ENDBRANCH   7   8
ENDBRANCH   1   7
BRANCH   6  13
ATOM     13  N   LIG d   1       3.903  87.384 114.606  0.00  0.00    -0.311 N 
ATOM     14  C   LIG d   1       3.879  88.608 114.082  0.00  0.00     0.210 C 
ATOM     15  C   LIG d   1       4.831  89.612 114.739  0.00  0.00     0.109 C 
ATOM     16  O   LIG d   1       3.136  88.966 113.156  0.00  0.00    -0.276 OA
ATOM     17  H   LIG d   1       4.513  87.189 115.376  0.00  0.00     0.149 HD
ENDBRANCH   6  13
BRANCH   5  18
ATOM     18  N   LIG d   1       4.114  86.172 111.809  0.00  0.00     0.381 N 
ATOM     19  H   LIG d   1       4.197  85.232 111.477  0.00  0.00    -0.090 HD
ATOM     20  H   LIG d   1       4.890  86.361 112.419  0.00  0.00    -0.090 HD
ATOM     21  H   LIG d   1       4.124  86.806 111.040  0.00  0.00    -0.090 HD
ENDBRANCH   5  18
BRANCH   3  22
ATOM     22  C   LIG d   1      -0.404  84.655 112.287  0.00  0.00     0.382 C 
ATOM     23  O   LIG d   1      -1.348  85.432 112.009  0.00  0.00    -0.241 OA
ATOM     24  O   LIG d   1      -0.521  83.438 112.049  0.00  0.00    -0.241 OA
ENDBRANCH   3  22
TORSDOF 7
ENDMDL
MODEL 5
REMARK VINA RESULT:      -4.0     25.401     27.556
REMARK  7 active torsions:
REMARK  status: ('A' for Active; 'I' for Inactive)
REMARK    1  A    between atoms: C_2  and  C_3 
REMARK    2  A    between atoms: C_3  and  O_6 
REMARK    3  A    between atoms: C_3  and  C_4 
REMARK    4  A    between atoms: C_7  and  O_6 
REMARK    5  A    between atoms: C_9  and  C_10 
REMARK    6  A    between atoms: N_15  and  C_14 
REMARK    7  A    between atoms: N_20  and  C_19 
REMARK       I    between atoms: C_22  and  N_20 
ROOT
ATOM      1  C   LIG d   1     -25.177  85.712 113.191  0.00  0.00     0.161 C 
ATOM      2  C   LIG d   1     -25.909  84.531 112.985  0.00  0.00     0.016 C 
ATOM      3  C   LIG d   1     -26.191  83.601 114.012  0.00  0.00     0.038 C 
ATOM      4  C   LIG d   1     -25.887  83.866 115.356  0.00  0.00     0.028 C 
ATOM      5  C   LIG d   1     -24.703  84.810 115.534  0.00  0.00    -0.047 C 
ATOM      6  C   LIG d   1     -24.933  86.072 114.672  0.00  0.00     0.091 C 
ENDROOT
BRANCH   1   7
ATOM      7  O   LIG d   1     -25.816  86.809 112.508  0.00  0.00    -0.368 OA
BRANCH   7   8
ATOM      8  C   LIG d   1     -26.902  87.455 113.216  0.00  0.00     0.119 C 
BRANCH   8   9
ATOM      9  C   LIG d   1     -28.203  87.146 112.450  0.00  0.00     0.028 C 
ATOM     10  C   LIG d   1     -29.250  86.444 113.331  0.00  0.00     0.006 C 
ENDBRANCH   8   9
BRANCH   8  11
ATOM     11  C   LIG d   1     -26.762  88.980 113.180  0.00  0.00     0.028 C 
ATOM     12  C   LIG d   1     -27.114  89.578 111.808  0.00  0.00     0.006 C 
ENDBRANCH   8  11
ENDBRANCH   7   8
ENDBRANCH   1   7
BRANCH   6  13
ATOM     13  N   LIG d   1     -23.782  87.011 114.722  0.00  0.00    -0.311 N 
ATOM     14  C   LIG d   1     -22.529  86.650 114.451  0.00  0.00     0.210 C 
ATOM     15  C   LIG d   1     -21.491  87.769 114.582  0.00  0.00     0.109 C 
ATOM     16  O   LIG d   1     -22.183  85.517 114.083  0.00  0.00    -0.276 OA
ATOM     17  H   LIG d   1     -23.977  87.958 114.982  0.00  0.00     0.149 HD
ENDBRANCH   6  13
BRANCH   5  18
ATOM     18  N   LIG d   1     -24.583  85.108 116.974  0.00  0.00     0.381 N 
ATOM     19  H   LIG d   1     -25.295  85.756 117.246  0.00  0.00    -0.090 HD
ATOM     20  H   LIG d   1     -23.688  85.531 117.145  0.00  0.00    -0.090 HD
ATOM     21  H   LIG d   1     -24.668  84.268 117.504  0.00  0.00    -0.090 HD
ENDBRANCH   5  18
BRANCH   3  22
ATOM     22  C   LIG d   1     -26.749  82.373 113.692  0.00  0.00     0.382 C 
ATOM     23  O   LIG d   1     -26.719  81.435 114.525  0.00  0.00    -0.241 OA
ATOM     24  O   LIG d   1     -27.242  82.177 112.565  0.00  0.00    -0.241 OA
ENDBRANCH   3  22
TORSDOF 7
ENDMDL
MODEL 6
REMARK VINA RESULT:      -4.0     26.736     29.280
REMARK  7 active torsions:
REMARK  status: ('A' for Active; 'I' for Inactive)
REMARK    1  A    between atoms: C_2  and  C_3 
REMARK    2  A    between atoms: C_3  and  O_6 
REMARK    3  A    between atoms: C_3  and  C_4 
REMARK    4  A    between atoms: C_7  and  O_6 
REMARK    5  A    between atoms: C_9  and  C_10 
REMARK    6  A    between atoms: N_15  and  C_14 
REMARK    7  A    between atoms: N_20  and  C_19 
REMARK       I    between atoms: C_22  and  N_20 
ROOT
ATOM      1  C   LIG d   1     -16.219  65.029 115.500  0.00  0.00     0.161 C 
ATOM      2  C   LIG d   1     -15.210  65.768 116.140  0.00  0.00     0.016 C 
ATOM      3  C   LIG d   1     -15.464  66.700 117.173  0.00  0.00     0.038 C 
ATOM      4  C   LIG d   1     -16.738  66.846 117.743  0.00  0.00     0.028 C 
ATOM      5  C   LIG d   1     -17.873  66.489 116.790  0.00  0.00    -0.047 C 
ATOM      6  C   LIG d   1     -17.600  65.092 116.185  0.00  0.00     0.091 C 
ENDROOT
BRANCH   1   7
ATOM      7  O   LIG d   1     -15.798  63.659 115.348  0.00  0.00    -0.368 OA
BRANCH   7   8
ATOM      8  C   LIG d   1     -16.197  62.748 116.402  0.00  0.00     0.119 C 
BRANCH   8   9
ATOM      9  C   LIG d   1     -14.926  62.358 117.182  0.00  0.00     0.028 C 
ATOM     10  C   LIG d   1     -15.184  61.233 118.199  0.00  0.00     0.006 C 
ENDBRANCH   8   9
BRANCH   8  11
ATOM     11  C   LIG d   1     -16.740  61.436 115.829  0.00  0.00     0.028 C 
ATOM     12  C   LIG d   1     -16.900  61.474 114.301  0.00  0.00     0.006 C 
ENDBRANCH   8  11
ENDBRANCH   7   8
ENDBRANCH   1   7
BRANCH   6  13
ATOM     13  N   LIG d   1     -18.620  64.702 115.177  0.00  0.00    -0.311 N 
ATOM     14  C   LIG d   1     -19.663  63.921 115.453  0.00  0.00     0.210 C 
ATOM     15  C   LIG d   1     -20.583  63.626 114.264  0.00  0.00     0.109 C 
ATOM     16  O   LIG d   1     -19.931  63.471 116.577  0.00  0.00    -0.276 OA
ATOM     17  H   LIG d   1     -18.497  65.049 114.246  0.00  0.00     0.149 HD
ENDBRANCH   6  13
BRANCH   5  18
ATOM     18  N   LIG d   1     -19.133  66.552 117.553  0.00  0.00     0.381 N 
ATOM     19  H   LIG d   1     -18.970  66.272 118.500  0.00  0.00    -0.090 HD
ATOM     20  H   LIG d   1     -19.793  65.914 117.145  0.00  0.00    -0.090 HD
ATOM     21  H   LIG d   1     -19.499  67.478 117.532  0.00  0.00    -0.090 HD
ENDBRANCH   5  18
BRANCH   3  22
ATOM     22  C   LIG d   1     -14.445  67.527 117.618  0.00  0.00     0.382 C 
ATOM     23  O   LIG d   1     -14.672  68.377 118.513  0.00  0.00    -0.241 OA
ATOM     24  O   LIG d   1     -13.311  67.465 117.106  0.00  0.00    -0.241 OA
ENDBRANCH   3  22
TORSDOF 7
ENDMDL
MODEL 7
REMARK VINA RESULT:      -3.9     26.581     29.243
REMARK  7 active torsions:
REMARK  status: ('A' for Active; 'I' for Inactive)
REMARK    1  A    between atoms: C_2  and  C_3 
REMARK    2  A    between atoms: C_3  and  O_6 
REMARK    3  A    between atoms: C_3  and  C_4 
REMARK    4  A    between atoms: C_7  and  O_6 
REMARK    5  A    between atoms: C_9  and  C_10 
REMARK    6  A    between atoms: N_15  and  C_14 
REMARK    7  A    between atoms: N_20  and  C_19 
REMARK       I    between atoms: C_22  and  N_20 
ROOT
ATOM      1  C   LIG d   1     -16.603  65.203 115.635  0.00  0.00     0.161 C 
ATOM      2  C   LIG d   1     -15.433  65.804 116.127  0.00  0.00     0.016 C 
ATOM      3  C   LIG d   1     -15.418  66.694 117.226  0.00  0.00     0.038 C 
ATOM      4  C   LIG d   1     -16.560  66.926 118.008  0.00  0.00     0.028 C 
ATOM      5  C   LIG d   1     -17.866  66.734 117.244  0.00  0.00    -0.047 C 
ATOM      6  C   LIG d   1     -17.841  65.357 116.544  0.00  0.00     0.091 C 
ENDROOT
BRANCH   1   7
ATOM      7  O   LIG d   1     -16.357  63.810 115.357  0.00  0.00    -0.368 OA
BRANCH   7   8
ATOM      8  C   LIG d   1     -16.308  63.439 113.957  0.00  0.00     0.119 C 
BRANCH   8   9
ATOM      9  C   LIG d   1     -16.744  64.669 113.137  0.00  0.00     0.028 C 
ATOM     10  C   LIG d   1     -18.041  64.418 112.348  0.00  0.00     0.006 C 
ENDBRANCH   8   9
BRANCH   8  11
ATOM     11  C   LIG d   1     -17.335  62.350 113.633  0.00  0.00     0.028 C 
ATOM     12  C   LIG d   1     -16.955  60.980 114.218  0.00  0.00     0.006 C 
ENDBRANCH   8  11
ENDBRANCH   7   8
ENDBRANCH   1   7
BRANCH   6  13
ATOM     13  N   LIG d   1     -19.046  65.125 115.706  0.00  0.00    -0.311 N 
ATOM     14  C   LIG d   1     -19.763  64.003 115.748  0.00  0.00     0.210 C 
ATOM     15  C   LIG d   1     -20.956  63.962 114.787  0.00  0.00     0.109 C 
ATOM     16  O   LIG d   1     -19.545  63.052 116.513  0.00  0.00    -0.276 OA
ATOM     17  H   LIG d   1     -19.313  65.858 115.079  0.00  0.00     0.149 HD
ENDBRANCH   6  13
BRANCH   5  18
ATOM     18  N   LIG d   1     -18.971  66.872 118.211  0.00  0.00     0.381 N 
ATOM     19  H   LIG d   1     -19.752  66.322 117.913  0.00  0.00    -0.090 HD
ATOM     20  H   LIG d   1     -19.257  67.835 118.243  0.00  0.00    -0.090 HD
ATOM     21  H   LIG d   1     -18.673  66.576 119.114  0.00  0.00    -0.090 HD
ENDBRANCH   5  18
BRANCH   3  22
ATOM     22  C   LIG d   1     -14.260  67.393 117.529  0.00  0.00     0.382 C 
ATOM     23  O   LIG d   1     -14.240  68.181 118.505  0.00  0.00    -0.241 OA
ATOM     24  O   LIG d   1     -13.248  67.280 116.811  0.00  0.00    -0.241 OA
ENDBRANCH   3  22
TORSDOF 7
ENDMDL
MODEL 8
REMARK VINA RESULT:      -3.9     28.785     31.308
REMARK  7 active torsions:
REMARK  status: ('A' for Active; 'I' for Inactive)
REMARK    1  A    between atoms: C_2  and  C_3 
REMARK    2  A    between atoms: C_3  and  O_6 
REMARK    3  A    between atoms: C_3  and  C_4 
REMARK    4  A    between atoms: C_7  and  O_6 
REMARK    5  A    between atoms: C_9  and  C_10 
REMARK    6  A    between atoms: N_15  and  C_14 
REMARK    7  A    between atoms: N_20  and  C_19 
REMARK       I    between atoms: C_22  and  N_20 
ROOT
ATOM      1  C   LIG d   1     -17.371  61.959 115.295  0.00  0.00     0.161 C 
ATOM      2  C   LIG d   1     -16.471  61.535 116.286  0.00  0.00     0.016 C 
ATOM      3  C   LIG d   1     -15.537  62.396 116.908  0.00  0.00     0.038 C 
ATOM      4  C   LIG d   1     -15.543  63.781 116.686  0.00  0.00     0.028 C 
ATOM      5  C   LIG d   1     -16.097  64.173 115.321  0.00  0.00    -0.047 C 
ATOM      6  C   LIG d   1     -17.468  63.489 115.120  0.00  0.00     0.091 C 
ENDROOT
BRANCH   1   7
ATOM      7  O   LIG d   1     -18.675  61.400 115.549  0.00  0.00    -0.368 OA
BRANCH   7   8
ATOM      8  C   LIG d   1     -19.137  60.404 114.603  0.00  0.00     0.119 C 
BRANCH   8   9
ATOM      9  C   LIG d   1     -19.320  59.083 115.375  0.00  0.00     0.028 C 
ATOM     10  C   LIG d   1     -19.725  59.311 116.841  0.00  0.00     0.006 C 
ENDBRANCH   8   9
BRANCH   8  11
ATOM     11  C   LIG d   1     -18.074  60.109 113.541  0.00  0.00     0.028 C 
ATOM     12  C   LIG d   1     -17.769  58.609 113.404  0.00  0.00     0.006 C 
ENDBRANCH   8  11
ENDBRANCH   7   8
ENDBRANCH   1   7
BRANCH   6  13
ATOM     13  N   LIG d   1     -18.042  63.753 113.775  0.00  0.00    -0.311 N 
ATOM     14  C   LIG d   1     -18.943  64.703 113.536  0.00  0.00     0.210 C 
ATOM     15  C   LIG d   1     -19.418  64.793 112.082  0.00  0.00     0.109 C 
ATOM     16  O   LIG d   1     -19.371  65.502 114.383  0.00  0.00    -0.276 OA
ATOM     17  H   LIG d   1     -17.727  63.171 113.023  0.00  0.00     0.149 HD
ENDBRANCH   6  13
BRANCH   5  18
ATOM     18  N   LIG d   1     -16.174  65.646 115.278  0.00  0.00     0.381 N 
ATOM     19  H   LIG d   1     -17.044  65.928 114.874  0.00  0.00    -0.090 HD
ATOM     20  H   LIG d   1     -15.430  65.993 114.698  0.00  0.00    -0.090 HD
ATOM     21  H   LIG d   1     -16.090  66.019 116.198  0.00  0.00    -0.090 HD
ENDBRANCH   5  18
BRANCH   3  22
ATOM     22  C   LIG d   1     -14.556  61.865 117.733  0.00  0.00     0.382 C 
ATOM     23  O   LIG d   1     -13.410  62.375 117.752  0.00  0.00    -0.241 OA
ATOM     24  O   LIG d   1     -14.791  60.855 118.424  0.00  0.00    -0.241 OA
ENDBRANCH   3  22
TORSDOF 7
ENDMDL
MODEL 9
REMARK VINA RESULT:      -3.8      2.349      3.174
REMARK  7 active torsions:
REMARK  status: ('A' for Active; 'I' for Inactive)
REMARK    1  A    between atoms: C_2  and  C_3 
REMARK    2  A    between atoms: C_3  and  O_6 
REMARK    3  A    between atoms: C_3  and  C_4 
REMARK    4  A    between atoms: C_7  and  O_6 
REMARK    5  A    between atoms: C_9  and  C_10 
REMARK    6  A    between atoms: N_15  and  C_14 
REMARK    7  A    between atoms: N_20  and  C_19 
REMARK       I    between atoms: C_22  and  N_20 
ROOT
ATOM      1  C   LIG d   1       2.842  87.109 115.585  0.00  0.00     0.161 C 
ATOM      2  C   LIG d   1       2.870  86.090 114.619  0.00  0.00     0.016 C 
ATOM      3  C   LIG d   1       3.412  86.260 113.324  0.00  0.00     0.038 C 
ATOM      4  C   LIG d   1       4.102  87.424 112.957  0.00  0.00     0.028 C 
ATOM      5  C   LIG d   1       3.655  88.662 113.727  0.00  0.00    -0.047 C 
ATOM      6  C   LIG d   1       3.690  88.351 115.240  0.00  0.00     0.091 C 
ENDROOT
BRANCH   1   7
ATOM      7  O   LIG d   1       3.229  86.578 116.868  0.00  0.00    -0.368 OA
BRANCH   7   8
ATOM      8  C   LIG d   1       2.942  85.176 117.090  0.00  0.00     0.119 C 
BRANCH   8   9
ATOM      9  C   LIG d   1       1.897  85.091 118.220  0.00  0.00     0.028 C 
ATOM     10  C   LIG d   1       0.600  84.398 117.768  0.00  0.00     0.006 C 
ENDBRANCH   8   9
BRANCH   8  11
ATOM     11  C   LIG d   1       4.172  84.432 117.620  0.00  0.00     0.028 C 
ATOM     12  C   LIG d   1       4.012  82.904 117.569  0.00  0.00     0.006 C 
ENDBRANCH   8  11
ENDBRANCH   7   8
ENDBRANCH   1   7
BRANCH   6  13
ATOM     13  N   LIG d   1       3.187  89.482 116.063  0.00  0.00    -0.311 N 
ATOM     14  C   LIG d   1       3.969  90.225 116.844  0.00  0.00     0.210 C 
ATOM     15  C   LIG d   1       3.244  91.328 117.622  0.00  0.00     0.109 C 
ATOM     16  O   LIG d   1       5.198  90.097 116.941  0.00  0.00    -0.276 OA
ATOM     17  H   LIG d   1       2.205  89.676 116.020  0.00  0.00     0.149 HD
ENDBRANCH   6  13
BRANCH   5  18
ATOM     18  N   LIG d   1       4.549  89.772 113.344  0.00  0.00     0.381 N 
ATOM     19  H   LIG d   1       4.743  90.341 114.143  0.00  0.00    -0.090 HD
ATOM     20  H   LIG d   1       4.086  90.340 112.656  0.00  0.00    -0.090 HD
ATOM     21  H   LIG d   1       5.399  89.411 112.969  0.00  0.00    -0.090 HD
ENDBRANCH   5  18
BRANCH   3  22
ATOM     22  C   LIG d   1       3.230  85.272 112.368  0.00  0.00     0.382 C 
ATOM     23  O   LIG d   1       2.116  85.141 111.807  0.00  0.00    -0.241 OA
ATOM     24  O   LIG d   1       4.152  84.482 112.092  0.00  0.00    -0.241 OA
ENDBRANCH   3  22
TORSDOF 7
ENDMDL
