MODEL 1
REMARK VINA RESULT:      -5.6      0.000      0.000
REMARK  7 active torsions:
REMARK  status: ('A' for Active; 'I' for Inactive)
REMARK    1  A    between atoms: C_2  and  C_3 
REMARK    2  A    between atoms: C_3  and  O_6 
REMARK    3  A    between atoms: C_3  and  C_4 
REMARK    4  A    between atoms: C_7  and  O_6 
REMARK    5  A    between atoms: C_9  and  C_10 
REMARK    6  A    between atoms: N_15  and  C_14 
REMARK    7  A    between atoms: N_20  and  C_19 
REMARK       I    between atoms: C_22  and  N_20 
ROOT
ATOM      1  C   LIG d   1      -6.246  75.519 114.940  0.00  0.00     0.161 C 
ATOM      2  C   LIG d   1      -4.910  75.600 114.513  0.00  0.00     0.016 C 
ATOM      3  C   LIG d   1      -3.863  76.096 115.322  0.00  0.00     0.038 C 
ATOM      4  C   LIG d   1      -4.057  76.407 116.677  0.00  0.00     0.028 C 
ATOM      5  C   LIG d   1      -5.488  76.819 117.005  0.00  0.00    -0.047 C 
ATOM      6  C   LIG d   1      -6.457  75.750 116.451  0.00  0.00     0.091 C 
ENDROOT
BRANCH   1   7
ATOM      7  O   LIG d   1      -6.810  74.254 114.542  0.00  0.00    -0.368 OA
BRANCH   7   8
ATOM      8  C   LIG d   1      -6.822  73.216 115.553  0.00  0.00     0.119 C 
BRANCH   8   9
ATOM      9  C   LIG d   1      -6.107  71.986 114.961  0.00  0.00     0.028 C 
ATOM     10  C   LIG d   1      -5.278  72.333 113.713  0.00  0.00     0.006 C 
ENDBRANCH   8   9
BRANCH   8  11
ATOM     11  C   LIG d   1      -8.249  72.748 115.854  0.00  0.00     0.028 C 
ATOM     12  C   LIG d   1      -8.347  71.229 116.065  0.00  0.00     0.006 C 
ENDBRANCH   8  11
ENDBRANCH   7   8
ENDBRANCH   1   7
BRANCH   6  13
ATOM     13  N   LIG d   1      -7.883  76.116 116.655  0.00  0.00    -0.311 N 
ATOM     14  C   LIG d   1      -8.624  75.648 117.658  0.00  0.00     0.210 C 
ATOM     15  C   LIG d   1     -10.075  76.137 117.672  0.00  0.00     0.109 C 
ATOM     16  O   LIG d   1      -8.208  74.899 118.555  0.00  0.00    -0.276 OA
ATOM     17  H   LIG d   1      -8.292  76.744 115.991  0.00  0.00     0.149 HD
ENDBRANCH   6  13
BRANCH   5  18
ATOM     18  N   LIG d   1      -5.580  76.980 118.468  0.00  0.00     0.381 N 
ATOM     19  H   LIG d   1      -6.385  76.495 118.812  0.00  0.00    -0.090 HD
ATOM     20  H   LIG d   1      -5.686  77.956 118.682  0.00  0.00    -0.090 HD
ATOM     21  H   LIG d   1      -4.758  76.624 118.903  0.00  0.00    -0.090 HD
ENDBRANCH   5  18
BRANCH   3  22
ATOM     22  C   LIG d   1      -2.613  76.324 114.767  0.00  0.00     0.382 C 
ATOM     23  O   LIG d   1      -1.871  75.355 114.474  0.00  0.00    -0.241 OA
ATOM     24  O   LIG d   1      -2.200  77.487 114.595  0.00  0.00    -0.241 OA
ENDBRANCH   3  22
TORSDOF 7
ENDMDL
MODEL 2
REMARK VINA RESULT:      -4.9     11.636     14.665
REMARK  7 active torsions:
REMARK  status: ('A' for Active; 'I' for Inactive)
REMARK    1  A    between atoms: C_2  and  C_3 
REMARK    2  A    between atoms: C_3  and  O_6 
REMARK    3  A    between atoms: C_3  and  C_4 
REMARK    4  A    between atoms: C_7  and  O_6 
REMARK    5  A    between atoms: C_9  and  C_10 
REMARK    6  A    between atoms: N_15  and  C_14 
REMARK    7  A    between atoms: N_20  and  C_19 
REMARK       I    between atoms: C_22  and  N_20 
ROOT
ATOM      1  C   LIG d   1       2.408  86.706 115.032  0.00  0.00     0.161 C 
ATOM      2  C   LIG d   1       3.064  87.869 114.594  0.00  0.00     0.016 C 
ATOM      3  C   LIG d   1       3.690  87.981 113.332  0.00  0.00     0.038 C 
ATOM      4  C   LIG d   1       3.571  86.982 112.354  0.00  0.00     0.028 C 
ATOM      5  C   LIG d   1       3.348  85.589 112.935  0.00  0.00    -0.047 C 
ATOM      6  C   LIG d   1       2.172  85.646 113.936  0.00  0.00     0.091 C 
ENDROOT
BRANCH   1   7
ATOM      7  O   LIG d   1       1.162  87.057 115.665  0.00  0.00    -0.368 OA
BRANCH   7   8
ATOM      8  C   LIG d   1       1.045  86.725 117.071  0.00  0.00     0.119 C 
BRANCH   8   9
ATOM      9  C   LIG d   1      -0.052  85.651 117.203  0.00  0.00     0.028 C 
ATOM     10  C   LIG d   1      -1.284  85.961 116.337  0.00  0.00     0.006 C 
ENDBRANCH   8   9
BRANCH   8  11
ATOM     11  C   LIG d   1       0.543  87.920 117.886  0.00  0.00     0.028 C 
ATOM     12  C   LIG d   1       0.361  89.187 117.036  0.00  0.00     0.006 C 
ENDBRANCH   8  11
ENDBRANCH   7   8
ENDBRANCH   1   7
BRANCH   6  13
ATOM     13  N   LIG d   1       1.941  84.343 114.613  0.00  0.00    -0.311 N 
ATOM     14  C   LIG d   1       1.096  83.420 114.157  0.00  0.00     0.210 C 
ATOM     15  C   LIG d   1       0.993  82.157 115.018  0.00  0.00     0.109 C 
ATOM     16  O   LIG d   1       0.446  83.513 113.105  0.00  0.00    -0.276 OA
ATOM     17  H   LIG d   1       2.451  84.171 115.457  0.00  0.00     0.149 HD
ENDBRANCH   6  13
BRANCH   5  18
ATOM     18  N   LIG d   1       3.104  84.670 111.807  0.00  0.00     0.381 N 
ATOM     19  H   LIG d   1       2.243  84.181 111.949  0.00  0.00    -0.090 HD
ATOM     20  H   LIG d   1       3.848  83.995 111.771  0.00  0.00    -0.090 HD
ATOM     21  H   LIG d   1       3.068  85.181 110.952  0.00  0.00    -0.090 HD
ENDBRANCH   5  18
BRANCH   3  22
ATOM     22  C   LIG d   1       4.479  89.086 113.051  0.00  0.00     0.382 C 
ATOM     23  O   LIG d   1       5.668  88.930 112.683  0.00  0.00    -0.241 OA
ATOM     24  O   LIG d   1       4.031  90.238 113.205  0.00  0.00    -0.241 OA
ENDBRANCH   3  22
TORSDOF 7
ENDMDL
MODEL 3
REMARK VINA RESULT:      -4.9      1.273      2.049
REMARK  7 active torsions:
REMARK  status: ('A' for Active; 'I' for Inactive)
REMARK    1  A    between atoms: C_2  and  C_3 
REMARK    2  A    between atoms: C_3  and  O_6 
REMARK    3  A    between atoms: C_3  and  C_4 
REMARK    4  A    between atoms: C_7  and  O_6 
REMARK    5  A    between atoms: C_9  and  C_10 
REMARK    6  A    between atoms: N_15  and  C_14 
REMARK    7  A    between atoms: N_20  and  C_19 
REMARK       I    between atoms: C_22  and  N_20 
ROOT
ATOM      1  C   LIG d   1      -6.504  75.014 116.297  0.00  0.00     0.161 C 
ATOM      2  C   LIG d   1      -5.494  75.112 115.326  0.00  0.00     0.016 C 
ATOM      3  C   LIG d   1      -4.427  76.037 115.403  0.00  0.00     0.038 C 
ATOM      4  C   LIG d   1      -4.213  76.829 116.542  0.00  0.00     0.028 C 
ATOM      5  C   LIG d   1      -5.490  77.123 117.323  0.00  0.00    -0.047 C 
ATOM      6  C   LIG d   1      -6.226  75.793 117.600  0.00  0.00     0.091 C 
ENDROOT
BRANCH   1   7
ATOM      7  O   LIG d   1      -6.768  73.627 116.589  0.00  0.00    -0.368 OA
BRANCH   7   8
ATOM      8  C   LIG d   1      -7.350  72.850 115.513  0.00  0.00     0.119 C 
BRANCH   8   9
ATOM      9  C   LIG d   1      -8.678  72.264 116.031  0.00  0.00     0.028 C 
ATOM     10  C   LIG d   1      -9.662  73.355 116.487  0.00  0.00     0.006 C 
ENDBRANCH   8   9
BRANCH   8  11
ATOM     11  C   LIG d   1      -6.479  71.638 115.169  0.00  0.00     0.028 C 
ATOM     12  C   LIG d   1      -5.511  71.911 114.007  0.00  0.00     0.006 C 
ENDBRANCH   8  11
ENDBRANCH   7   8
ENDBRANCH   1   7
BRANCH   6  13
ATOM     13  N   LIG d   1      -7.528  75.998 118.287  0.00  0.00    -0.311 N 
ATOM     14  C   LIG d   1      -8.647  76.342 117.651  0.00  0.00     0.210 C 
ATOM     15  C   LIG d   1      -9.873  76.523 118.551  0.00  0.00     0.109 C 
ATOM     16  O   LIG d   1      -8.747  76.484 116.423  0.00  0.00    -0.276 OA
ATOM     17  H   LIG d   1      -7.544  75.873 119.280  0.00  0.00     0.149 HD
ENDBRANCH   6  13
BRANCH   5  18
ATOM     18  N   LIG d   1      -5.103  77.837 118.554  0.00  0.00     0.381 N 
ATOM     19  H   LIG d   1      -5.901  78.302 118.940  0.00  0.00    -0.090 HD
ATOM     20  H   LIG d   1      -4.414  78.531 118.325  0.00  0.00    -0.090 HD
ATOM     21  H   LIG d   1      -4.730  77.195 119.218  0.00  0.00    -0.090 HD
ENDBRANCH   5  18
BRANCH   3  22
ATOM     22  C   LIG d   1      -3.583  76.205 114.316  0.00  0.00     0.382 C 
ATOM     23  O   LIG d   1      -2.364  75.927 114.421  0.00  0.00    -0.241 OA
ATOM     24  O   LIG d   1      -4.016  76.673 113.246  0.00  0.00    -0.241 OA
ENDBRANCH   3  22
TORSDOF 7
ENDMDL
MODEL 4
REMARK VINA RESULT:      -4.8     11.028     14.433
REMARK  7 active torsions:
REMARK  status: ('A' for Active; 'I' for Inactive)
REMARK    1  A    between atoms: C_2  and  C_3 
REMARK    2  A    between atoms: C_3  and  O_6 
REMARK    3  A    between atoms: C_3  and  C_4 
REMARK    4  A    between atoms: C_7  and  O_6 
REMARK    5  A    between atoms: C_9  and  C_10 
REMARK    6  A    between atoms: N_15  and  C_14 
REMARK    7  A    between atoms: N_20  and  C_19 
REMARK       I    between atoms: C_22  and  N_20 
ROOT
ATOM      1  C   LIG d   1       1.786  85.825 114.432  0.00  0.00     0.161 C 
ATOM      2  C   LIG d   1       1.273  84.918 113.490  0.00  0.00     0.016 C 
ATOM      3  C   LIG d   1      -0.064  84.457 113.503  0.00  0.00     0.038 C 
ATOM      4  C   LIG d   1      -1.024  84.991 114.375  0.00  0.00     0.028 C 
ATOM      5  C   LIG d   1      -0.431  85.536 115.669  0.00  0.00    -0.047 C 
ATOM      6  C   LIG d   1       0.725  86.503 115.323  0.00  0.00     0.091 C 
ENDROOT
BRANCH   1   7
ATOM      7  O   LIG d   1       2.590  86.819 113.765  0.00  0.00    -0.368 OA
BRANCH   7   8
ATOM      8  C   LIG d   1       3.993  86.497 113.600  0.00  0.00     0.119 C 
BRANCH   8   9
ATOM      9  C   LIG d   1       4.733  86.996 114.857  0.00  0.00     0.028 C 
ATOM     10  C   LIG d   1       5.225  85.842 115.745  0.00  0.00     0.006 C 
ENDBRANCH   8   9
BRANCH   8  11
ATOM     11  C   LIG d   1       4.609  87.273 112.432  0.00  0.00     0.028 C 
ATOM     12  C   LIG d   1       5.595  88.359 112.892  0.00  0.00     0.006 C 
ENDBRANCH   8  11
ENDBRANCH   7   8
ENDBRANCH   1   7
BRANCH   6  13
ATOM     13  N   LIG d   1       1.416  87.017 116.534  0.00  0.00    -0.311 N 
ATOM     14  C   LIG d   1       1.627  88.312 116.763  0.00  0.00     0.210 C 
ATOM     15  C   LIG d   1       2.376  88.625 118.062  0.00  0.00     0.109 C 
ATOM     16  O   LIG d   1       1.238  89.233 116.029  0.00  0.00    -0.276 OA
ATOM     17  H   LIG d   1       1.738  86.340 117.197  0.00  0.00     0.149 HD
ENDBRANCH   6  13
BRANCH   5  18
ATOM     18  N   LIG d   1      -1.521  86.185 116.421  0.00  0.00     0.381 N 
ATOM     19  H   LIG d   1      -1.360  87.171 116.469  0.00  0.00    -0.090 HD
ATOM     20  H   LIG d   1      -1.531  85.821 117.358  0.00  0.00    -0.090 HD
ATOM     21  H   LIG d   1      -2.395  86.005 115.977  0.00  0.00    -0.090 HD
ENDBRANCH   5  18
BRANCH   3  22
ATOM     22  C   LIG d   1      -0.441  83.421 112.662  0.00  0.00     0.382 C 
ATOM     23  O   LIG d   1       0.433  82.702 112.121  0.00  0.00    -0.241 OA
ATOM     24  O   LIG d   1      -1.643  83.223 112.403  0.00  0.00    -0.241 OA
ENDBRANCH   3  22
TORSDOF 7
ENDMDL
MODEL 5
REMARK VINA RESULT:      -4.7     19.169     20.997
REMARK  7 active torsions:
REMARK  status: ('A' for Active; 'I' for Inactive)
REMARK    1  A    between atoms: C_2  and  C_3 
REMARK    2  A    between atoms: C_3  and  O_6 
REMARK    3  A    between atoms: C_3  and  C_4 
REMARK    4  A    between atoms: C_7  and  O_6 
REMARK    5  A    between atoms: C_9  and  C_10 
REMARK    6  A    between atoms: N_15  and  C_14 
REMARK    7  A    between atoms: N_20  and  C_19 
REMARK       I    between atoms: C_22  and  N_20 
ROOT
ATOM      1  C   LIG d   1     -23.970  83.679 113.350  0.00  0.00     0.161 C 
ATOM      2  C   LIG d   1     -23.009  84.659 113.651  0.00  0.00     0.016 C 
ATOM      3  C   LIG d   1     -23.332  86.006 113.931  0.00  0.00     0.038 C 
ATOM      4  C   LIG d   1     -24.660  86.435 114.079  0.00  0.00     0.028 C 
ATOM      5  C   LIG d   1     -25.659  85.596 113.290  0.00  0.00    -0.047 C 
ATOM      6  C   LIG d   1     -25.430  84.103 113.617  0.00  0.00     0.091 C 
ENDROOT
BRANCH   1   7
ATOM      7  O   LIG d   1     -23.665  82.461 114.058  0.00  0.00    -0.368 OA
BRANCH   7   8
ATOM      8  C   LIG d   1     -24.145  82.380 115.423  0.00  0.00     0.119 C 
BRANCH   8   9
ATOM      9  C   LIG d   1     -22.916  82.210 116.337  0.00  0.00     0.028 C 
ATOM     10  C   LIG d   1     -22.534  83.516 117.054  0.00  0.00     0.006 C 
ENDBRANCH   8   9
BRANCH   8  11
ATOM     11  C   LIG d   1     -24.990  81.121 115.641  0.00  0.00     0.028 C 
ATOM     12  C   LIG d   1     -25.358  80.899 117.117  0.00  0.00     0.006 C 
ENDBRANCH   8  11
ENDBRANCH   7   8
ENDBRANCH   1   7
BRANCH   6  13
ATOM     13  N   LIG d   1     -26.310  83.207 112.822  0.00  0.00    -0.311 N 
ATOM     14  C   LIG d   1     -27.461  82.716 113.279  0.00  0.00     0.210 C 
ATOM     15  C   LIG d   1     -28.204  81.797 112.305  0.00  0.00     0.109 C 
ATOM     16  O   LIG d   1     -27.953  82.981 114.386  0.00  0.00    -0.276 OA
ATOM     17  H   LIG d   1     -26.003  82.965 111.901  0.00  0.00     0.149 HD
ENDBRANCH   6  13
BRANCH   5  18
ATOM     18  N   LIG d   1     -27.012  86.065 113.643  0.00  0.00     0.381 N 
ATOM     19  H   LIG d   1     -27.665  85.312 113.555  0.00  0.00    -0.090 HD
ATOM     20  H   LIG d   1     -27.281  86.792 113.005  0.00  0.00    -0.090 HD
ATOM     21  H   LIG d   1     -27.019  86.412 114.577  0.00  0.00    -0.090 HD
ENDBRANCH   5  18
BRANCH   3  22
ATOM     22  C   LIG d   1     -22.321  86.950 114.027  0.00  0.00     0.382 C 
ATOM     23  O   LIG d   1     -21.251  86.789 113.392  0.00  0.00    -0.241 OA
ATOM     24  O   LIG d   1     -22.448  87.938 114.774  0.00  0.00    -0.241 OA
ENDBRANCH   3  22
TORSDOF 7
ENDMDL
MODEL 6
REMARK VINA RESULT:      -4.4     14.770     17.126
REMARK  7 active torsions:
REMARK  status: ('A' for Active; 'I' for Inactive)
REMARK    1  A    between atoms: C_2  and  C_3 
REMARK    2  A    between atoms: C_3  and  O_6 
REMARK    3  A    between atoms: C_3  and  C_4 
REMARK    4  A    between atoms: C_7  and  O_6 
REMARK    5  A    between atoms: C_9  and  C_10 
REMARK    6  A    between atoms: N_15  and  C_14 
REMARK    7  A    between atoms: N_20  and  C_19 
REMARK       I    between atoms: C_22  and  N_20 
ROOT
ATOM      1  C   LIG d   1     -19.755  64.380 116.509  0.00  0.00     0.161 C 
ATOM      2  C   LIG d   1     -20.933  65.078 116.193  0.00  0.00     0.016 C 
ATOM      3  C   LIG d   1     -20.996  66.486 116.082  0.00  0.00     0.038 C 
ATOM      4  C   LIG d   1     -19.845  67.287 116.130  0.00  0.00     0.028 C 
ATOM      5  C   LIG d   1     -18.714  66.672 116.948  0.00  0.00    -0.047 C 
ATOM      6  C   LIG d   1     -18.467  65.228 116.455  0.00  0.00     0.091 C 
ENDROOT
BRANCH   1   7
ATOM      7  O   LIG d   1     -19.629  63.224 115.657  0.00  0.00    -0.368 OA
BRANCH   7   8
ATOM      8  C   LIG d   1     -18.757  63.369 114.510  0.00  0.00     0.119 C 
BRANCH   8   9
ATOM      9  C   LIG d   1     -19.652  63.540 113.267  0.00  0.00     0.028 C 
ATOM     10  C   LIG d   1     -19.639  64.981 112.729  0.00  0.00     0.006 C 
ENDBRANCH   8   9
BRANCH   8  11
ATOM     11  C   LIG d   1     -17.952  62.091 114.257  0.00  0.00     0.028 C 
ATOM     12  C   LIG d   1     -17.649  61.313 115.547  0.00  0.00     0.006 C 
ENDBRANCH   8  11
ENDBRANCH   7   8
ENDBRANCH   1   7
BRANCH   6  13
ATOM     13  N   LIG d   1     -17.432  64.525 117.258  0.00  0.00    -0.311 N 
ATOM     14  C   LIG d   1     -16.158  64.422 116.883  0.00  0.00     0.210 C 
ATOM     15  C   LIG d   1     -15.262  63.638 117.848  0.00  0.00     0.109 C 
ATOM     16  O   LIG d   1     -15.679  64.932 115.860  0.00  0.00    -0.276 OA
ATOM     17  H   LIG d   1     -17.728  64.108 118.119  0.00  0.00     0.149 HD
ENDBRANCH   6  13
BRANCH   5  18
ATOM     18  N   LIG d   1     -17.533  67.544 116.800  0.00  0.00     0.381 N 
ATOM     19  H   LIG d   1     -17.092  67.369 115.919  0.00  0.00    -0.090 HD
ATOM     20  H   LIG d   1     -16.877  67.328 117.530  0.00  0.00    -0.090 HD
ATOM     21  H   LIG d   1     -17.805  68.500 116.860  0.00  0.00    -0.090 HD
ENDBRANCH   5  18
BRANCH   3  22
ATOM     22  C   LIG d   1     -22.228  67.111 115.960  0.00  0.00     0.382 C 
ATOM     23  O   LIG d   1     -22.536  67.686 114.888  0.00  0.00    -0.241 OA
ATOM     24  O   LIG d   1     -23.018  67.145 116.923  0.00  0.00    -0.241 OA
ENDBRANCH   3  22
TORSDOF 7
ENDMDL
MODEL 7
REMARK VINA RESULT:      -4.3     14.061     16.427
REMARK  7 active torsions:
REMARK  status: ('A' for Active; 'I' for Inactive)
REMARK    1  A    between atoms: C_2  and  C_3 
REMARK    2  A    between atoms: C_3  and  O_6 
REMARK    3  A    between atoms: C_3  and  C_4 
REMARK    4  A    between atoms: C_7  and  O_6 
REMARK    5  A    between atoms: C_9  and  C_10 
REMARK    6  A    between atoms: N_15  and  C_14 
REMARK    7  A    between atoms: N_20  and  C_19 
REMARK       I    between atoms: C_22  and  N_20 
ROOT
ATOM      1  C   LIG d   1     -17.682  64.627 115.022  0.00  0.00     0.161 C 
ATOM      2  C   LIG d   1     -16.604  64.510 115.915  0.00  0.00     0.016 C 
ATOM      3  C   LIG d   1     -16.514  65.236 117.126  0.00  0.00     0.038 C 
ATOM      4  C   LIG d   1     -17.576  66.020 117.600  0.00  0.00     0.028 C 
ATOM      5  C   LIG d   1     -18.472  66.562 116.492  0.00  0.00    -0.047 C 
ATOM      6  C   LIG d   1     -18.901  65.393 115.576  0.00  0.00     0.091 C 
ENDROOT
BRANCH   1   7
ATOM      7  O   LIG d   1     -18.079  63.320 114.561  0.00  0.00    -0.368 OA
BRANCH   7   8
ATOM      8  C   LIG d   1     -18.966  62.579 115.434  0.00  0.00     0.119 C 
BRANCH   8   9
ATOM      9  C   LIG d   1     -18.213  61.317 115.898  0.00  0.00     0.028 C 
ATOM     10  C   LIG d   1     -17.354  60.702 114.780  0.00  0.00     0.006 C 
ENDBRANCH   8   9
BRANCH   8  11
ATOM     11  C   LIG d   1     -20.192  62.063 114.674  0.00  0.00     0.028 C 
ATOM     12  C   LIG d   1     -20.172  62.441 113.185  0.00  0.00     0.006 C 
ENDBRANCH   8  11
ENDBRANCH   7   8
ENDBRANCH   1   7
BRANCH   6  13
ATOM     13  N   LIG d   1     -19.711  65.849 114.417  0.00  0.00    -0.311 N 
ATOM     14  C   LIG d   1     -21.042  65.805 114.389  0.00  0.00     0.210 C 
ATOM     15  C   LIG d   1     -21.679  66.306 113.089  0.00  0.00     0.109 C 
ATOM     16  O   LIG d   1     -21.757  65.430 115.330  0.00  0.00    -0.276 OA
ATOM     17  H   LIG d   1     -19.213  66.199 113.621  0.00  0.00     0.149 HD
ENDBRANCH   6  13
BRANCH   5  18
ATOM     18  N   LIG d   1     -19.612  67.244 117.133  0.00  0.00     0.381 N 
ATOM     19  H   LIG d   1     -20.173  66.576 117.623  0.00  0.00    -0.090 HD
ATOM     20  H   LIG d   1     -20.178  67.670 116.421  0.00  0.00    -0.090 HD
ATOM     21  H   LIG d   1     -19.282  67.939 117.766  0.00  0.00    -0.090 HD
ENDBRANCH   5  18
BRANCH   3  22
ATOM     22  C   LIG d   1     -15.336  65.212 117.855  0.00  0.00     0.382 C 
ATOM     23  O   LIG d   1     -14.690  64.142 117.969  0.00  0.00    -0.241 OA
ATOM     24  O   LIG d   1     -14.933  66.236 118.438  0.00  0.00    -0.241 OA
ENDBRANCH   3  22
TORSDOF 7
ENDMDL
MODEL 8
REMARK VINA RESULT:      -4.2     12.399     14.499
REMARK  7 active torsions:
REMARK  status: ('A' for Active; 'I' for Inactive)
REMARK    1  A    between atoms: C_2  and  C_3 
REMARK    2  A    between atoms: C_3  and  O_6 
REMARK    3  A    between atoms: C_3  and  C_4 
REMARK    4  A    between atoms: C_7  and  O_6 
REMARK    5  A    between atoms: C_9  and  C_10 
REMARK    6  A    between atoms: N_15  and  C_14 
REMARK    7  A    between atoms: N_20  and  C_19 
REMARK       I    between atoms: C_22  and  N_20 
ROOT
ATOM      1  C   LIG d   1       1.512  85.981 114.892  0.00  0.00     0.161 C 
ATOM      2  C   LIG d   1       0.362  85.603 114.180  0.00  0.00     0.016 C 
ATOM      3  C   LIG d   1       0.372  85.270 112.806  0.00  0.00     0.038 C 
ATOM      4  C   LIG d   1       1.568  85.145 112.082  0.00  0.00     0.028 C 
ATOM      5  C   LIG d   1       2.700  86.006 112.630  0.00  0.00    -0.047 C 
ATOM      6  C   LIG d   1       2.842  85.743 114.147  0.00  0.00     0.091 C 
ENDROOT
BRANCH   1   7
ATOM      7  O   LIG d   1       1.532  85.322 116.174  0.00  0.00    -0.368 OA
BRANCH   7   8
ATOM      8  C   LIG d   1       1.505  86.188 117.336  0.00  0.00     0.119 C 
BRANCH   8   9
ATOM      9  C   LIG d   1       0.326  85.739 118.220  0.00  0.00     0.028 C 
ATOM     10  C   LIG d   1      -1.038  86.039 117.576  0.00  0.00     0.006 C 
ENDBRANCH   8   9
BRANCH   8  11
ATOM     11  C   LIG d   1       1.192  87.635 116.946  0.00  0.00     0.028 C 
ATOM     12  C   LIG d   1       2.286  88.621 117.385  0.00  0.00     0.006 C 
ENDBRANCH   8  11
ENDBRANCH   7   8
ENDBRANCH   1   7
BRANCH   6  13
ATOM     13  N   LIG d   1       3.873  86.608 114.778  0.00  0.00    -0.311 N 
ATOM     14  C   LIG d   1       4.942  86.131 115.413  0.00  0.00     0.210 C 
ATOM     15  C   LIG d   1       5.869  87.195 116.009  0.00  0.00     0.109 C 
ATOM     16  O   LIG d   1       5.228  84.928 115.510  0.00  0.00    -0.276 OA
ATOM     17  H   LIG d   1       3.736  87.598 114.719  0.00  0.00     0.149 HD
ENDBRANCH   6  13
BRANCH   5  18
ATOM     18  N   LIG d   1       3.920  85.676 111.869  0.00  0.00     0.381 N 
ATOM     19  H   LIG d   1       4.629  86.358 112.052  0.00  0.00    -0.090 HD
ATOM     20  H   LIG d   1       3.707  85.698 110.888  0.00  0.00    -0.090 HD
ATOM     21  H   LIG d   1       4.247  84.770 112.126  0.00  0.00    -0.090 HD
ENDBRANCH   5  18
BRANCH   3  22
ATOM     22  C   LIG d   1      -0.827  85.096 112.132  0.00  0.00     0.382 C 
ATOM     23  O   LIG d   1      -1.202  83.944 111.806  0.00  0.00    -0.241 OA
ATOM     24  O   LIG d   1      -1.517  86.080 111.806  0.00  0.00    -0.241 OA
ENDBRANCH   3  22
TORSDOF 7
ENDMDL
MODEL 9
REMARK VINA RESULT:      -4.1     13.301     16.552
REMARK  7 active torsions:
REMARK  status: ('A' for Active; 'I' for Inactive)
REMARK    1  A    between atoms: C_2  and  C_3 
REMARK    2  A    between atoms: C_3  and  O_6 
REMARK    3  A    between atoms: C_3  and  C_4 
REMARK    4  A    between atoms: C_7  and  O_6 
REMARK    5  A    between atoms: C_9  and  C_10 
REMARK    6  A    between atoms: N_15  and  C_14 
REMARK    7  A    between atoms: N_20  and  C_19 
REMARK       I    between atoms: C_22  and  N_20 
ROOT
ATOM      1  C   LIG d   1       5.042  87.196 115.881  0.00  0.00     0.161 C 
ATOM      2  C   LIG d   1       6.333  87.750 115.880  0.00  0.00     0.016 C 
ATOM      3  C   LIG d   1       7.469  87.075 116.382  0.00  0.00     0.038 C 
ATOM      4  C   LIG d   1       7.417  85.732 116.783  0.00  0.00     0.028 C 
ATOM      5  C   LIG d   1       6.040  85.299 117.272  0.00  0.00    -0.047 C 
ATOM      6  C   LIG d   1       4.985  85.690 116.212  0.00  0.00     0.091 C 
ENDROOT
BRANCH   1   7
ATOM      7  O   LIG d   1       4.398  87.456 114.618  0.00  0.00    -0.368 OA
BRANCH   7   8
ATOM      8  C   LIG d   1       5.250  87.411 113.447  0.00  0.00     0.119 C 
BRANCH   8   9
ATOM      9  C   LIG d   1       5.467  88.862 112.977  0.00  0.00     0.028 C 
ATOM     10  C   LIG d   1       4.322  89.795 113.403  0.00  0.00     0.006 C 
ENDBRANCH   8   9
BRANCH   8  11
ATOM     11  C   LIG d   1       4.554  86.706 112.279  0.00  0.00     0.028 C 
ATOM     12  C   LIG d   1       4.033  85.309 112.650  0.00  0.00     0.006 C 
ENDBRANCH   8  11
ENDBRANCH   7   8
ENDBRANCH   1   7
BRANCH   6  13
ATOM     13  N   LIG d   1       3.599  85.378 116.649  0.00  0.00    -0.311 N 
ATOM     14  C   LIG d   1       2.971  84.245 116.340  0.00  0.00     0.210 C 
ATOM     15  C   LIG d   1       1.539  84.133 116.874  0.00  0.00     0.109 C 
ATOM     16  O   LIG d   1       3.474  83.308 115.701  0.00  0.00    -0.276 OA
ATOM     17  H   LIG d   1       3.127  86.069 117.198  0.00  0.00     0.149 HD
ENDBRANCH   6  13
BRANCH   5  18
ATOM     18  N   LIG d   1       6.093  83.847 117.527  0.00  0.00     0.381 N 
ATOM     19  H   LIG d   1       5.995  83.348 116.665  0.00  0.00    -0.090 HD
ATOM     20  H   LIG d   1       5.328  83.594 118.127  0.00  0.00    -0.090 HD
ATOM     21  H   LIG d   1       6.958  83.609 117.960  0.00  0.00    -0.090 HD
ENDBRANCH   5  18
BRANCH   3  22
ATOM     22  C   LIG d   1       8.667  87.759 116.523  0.00  0.00     0.382 C 
ATOM     23  O   LIG d   1       8.705  88.830 117.177  0.00  0.00    -0.241 OA
ATOM     24  O   LIG d   1       9.702  87.342 115.969  0.00  0.00    -0.241 OA
ENDBRANCH   3  22
TORSDOF 7
ENDMDL
