MODEL 1
REMARK VINA RESULT:      -5.1      0.000      0.000
REMARK  7 active torsions:
REMARK  status: ('A' for Active; 'I' for Inactive)
REMARK    1  A    between atoms: C_2  and  C_3 
REMARK    2  A    between atoms: C_3  and  O_6 
REMARK    3  A    between atoms: C_3  and  C_4 
REMARK    4  A    between atoms: C_7  and  O_6 
REMARK    5  A    between atoms: C_9  and  C_10 
REMARK    6  A    between atoms: N_15  and  C_14 
REMARK    7  A    between atoms: N_20  and  C_19 
REMARK       I    between atoms: C_22  and  N_20 
ROOT
ATOM      1  C   LIG d   1      -5.556  78.768 116.813  0.00  0.00     0.161 C 
ATOM      2  C   LIG d   1      -6.805  78.143 116.968  0.00  0.00     0.016 C 
ATOM      3  C   LIG d   1      -7.933  78.788 117.526  0.00  0.00     0.038 C 
ATOM      4  C   LIG d   1      -7.930  80.157 117.829  0.00  0.00     0.028 C 
ATOM      5  C   LIG d   1      -6.545  80.702 118.159  0.00  0.00    -0.047 C 
ATOM      6  C   LIG d   1      -5.565  80.295 117.035  0.00  0.00     0.091 C 
ENDROOT
BRANCH   1   7
ATOM      7  O   LIG d   1      -5.011  78.453 115.516  0.00  0.00    -0.368 OA
BRANCH   7   8
ATOM      8  C   LIG d   1      -3.992  77.423 115.486  0.00  0.00     0.119 C 
BRANCH   8   9
ATOM      9  C   LIG d   1      -2.638  78.118 115.242  0.00  0.00     0.028 C 
ATOM     10  C   LIG d   1      -2.662  79.033 114.007  0.00  0.00     0.006 C 
ENDBRANCH   8   9
BRANCH   8  11
ATOM     11  C   LIG d   1      -4.186  76.483 114.293  0.00  0.00     0.028 C 
ATOM     12  C   LIG d   1      -5.629  75.966 114.170  0.00  0.00     0.006 C 
ENDBRANCH   8  11
ENDBRANCH   7   8
ENDBRANCH   1   7
BRANCH   6  13
ATOM     13  N   LIG d   1      -4.168  80.716 117.320  0.00  0.00    -0.311 N 
ATOM     14  C   LIG d   1      -3.485  81.561 116.550  0.00  0.00     0.210 C 
ATOM     15  C   LIG d   1      -2.053  81.845 117.014  0.00  0.00     0.109 C 
ATOM     16  O   LIG d   1      -3.940  82.126 115.544  0.00  0.00    -0.276 OA
ATOM     17  H   LIG d   1      -3.733  80.329 118.135  0.00  0.00     0.149 HD
ENDBRANCH   6  13
BRANCH   5  18
ATOM     18  N   LIG d   1      -6.667  82.163 118.319  0.00  0.00     0.381 N 
ATOM     19  H   LIG d   1      -5.873  82.616 117.912  0.00  0.00    -0.090 HD
ATOM     20  H   LIG d   1      -6.686  82.382 119.299  0.00  0.00    -0.090 HD
ATOM     21  H   LIG d   1      -7.502  82.486 117.882  0.00  0.00    -0.090 HD
ENDBRANCH   5  18
BRANCH   3  22
ATOM     22  C   LIG d   1      -9.069  78.050 117.823  0.00  0.00     0.382 C 
ATOM     23  O   LIG d   1      -9.080  76.810 117.628  0.00  0.00    -0.241 OA
ATOM     24  O   LIG d   1     -10.097  78.614 118.242  0.00  0.00    -0.241 OA
ENDBRANCH   3  22
TORSDOF 7
ENDMDL
MODEL 2
REMARK VINA RESULT:      -5.1      4.001      5.031
REMARK  7 active torsions:
REMARK  status: ('A' for Active; 'I' for Inactive)
REMARK    1  A    between atoms: C_2  and  C_3 
REMARK    2  A    between atoms: C_3  and  O_6 
REMARK    3  A    between atoms: C_3  and  C_4 
REMARK    4  A    between atoms: C_7  and  O_6 
REMARK    5  A    between atoms: C_9  and  C_10 
REMARK    6  A    between atoms: N_15  and  C_14 
REMARK    7  A    between atoms: N_20  and  C_19 
REMARK       I    between atoms: C_22  and  N_20 
ROOT
ATOM      1  C   LIG d   1      -4.237  76.153 116.866  0.00  0.00     0.161 C 
ATOM      2  C   LIG d   1      -5.098  75.169 117.379  0.00  0.00     0.016 C 
ATOM      3  C   LIG d   1      -6.070  74.501 116.598  0.00  0.00     0.038 C 
ATOM      4  C   LIG d   1      -6.144  74.666 115.207  0.00  0.00     0.028 C 
ATOM      5  C   LIG d   1      -5.632  76.021 114.730  0.00  0.00    -0.047 C 
ATOM      6  C   LIG d   1      -4.228  76.266 115.327  0.00  0.00     0.091 C 
ENDROOT
BRANCH   1   7
ATOM      7  O   LIG d   1      -2.900  75.938 117.360  0.00  0.00    -0.368 OA
BRANCH   7   8
ATOM      8  C   LIG d   1      -2.221  74.757 116.868  0.00  0.00     0.119 C 
BRANCH   8   9
ATOM      9  C   LIG d   1      -1.699  73.979 118.092  0.00  0.00     0.028 C 
ATOM     10  C   LIG d   1      -0.317  74.472 118.555  0.00  0.00     0.006 C 
ENDBRANCH   8   9
BRANCH   8  11
ATOM     11  C   LIG d   1      -0.973  75.127 116.061  0.00  0.00     0.028 C 
ATOM     12  C   LIG d   1      -0.786  74.246 114.816  0.00  0.00     0.006 C 
ENDBRANCH   8  11
ENDBRANCH   7   8
ENDBRANCH   1   7
BRANCH   6  13
ATOM     13  N   LIG d   1      -3.689  77.606 114.978  0.00  0.00    -0.311 N 
ATOM     14  C   LIG d   1      -2.972  77.845 113.881  0.00  0.00     0.210 C 
ATOM     15  C   LIG d   1      -2.497  79.293 113.722  0.00  0.00     0.109 C 
ATOM     16  O   LIG d   1      -2.712  77.003 113.009  0.00  0.00    -0.276 OA
ATOM     17  H   LIG d   1      -3.880  78.355 115.615  0.00  0.00     0.149 HD
ENDBRANCH   6  13
BRANCH   5  18
ATOM     18  N   LIG d   1      -5.638  76.005 113.255  0.00  0.00     0.381 N 
ATOM     19  H   LIG d   1      -4.712  75.841 112.914  0.00  0.00    -0.090 HD
ATOM     20  H   LIG d   1      -5.943  76.902 112.921  0.00  0.00    -0.090 HD
ATOM     21  H   LIG d   1      -6.252  75.293 112.924  0.00  0.00    -0.090 HD
ENDBRANCH   5  18
BRANCH   3  22
ATOM     22  C   LIG d   1      -7.007  73.687 117.216  0.00  0.00     0.382 C 
ATOM     23  O   LIG d   1      -7.416  72.651 116.638  0.00  0.00    -0.241 OA
ATOM     24  O   LIG d   1      -7.482  73.999 118.325  0.00  0.00    -0.241 OA
ENDBRANCH   3  22
TORSDOF 7
ENDMDL
MODEL 3
REMARK VINA RESULT:      -5.0      3.321      6.150
REMARK  7 active torsions:
REMARK  status: ('A' for Active; 'I' for Inactive)
REMARK    1  A    between atoms: C_2  and  C_3 
REMARK    2  A    between atoms: C_3  and  O_6 
REMARK    3  A    between atoms: C_3  and  C_4 
REMARK    4  A    between atoms: C_7  and  O_6 
REMARK    5  A    between atoms: C_9  and  C_10 
REMARK    6  A    between atoms: N_15  and  C_14 
REMARK    7  A    between atoms: N_20  and  C_19 
REMARK       I    between atoms: C_22  and  N_20 
ROOT
ATOM      1  C   LIG d   1      -3.545  76.083 114.282  0.00  0.00     0.161 C 
ATOM      2  C   LIG d   1      -2.869  77.270 113.956  0.00  0.00     0.016 C 
ATOM      3  C   LIG d   1      -3.154  78.518 114.558  0.00  0.00     0.038 C 
ATOM      4  C   LIG d   1      -4.036  78.634 115.642  0.00  0.00     0.028 C 
ATOM      5  C   LIG d   1      -5.111  77.553 115.667  0.00  0.00    -0.047 C 
ATOM      6  C   LIG d   1      -4.434  76.169 115.541  0.00  0.00     0.091 C 
ENDROOT
BRANCH   1   7
ATOM      7  O   LIG d   1      -2.601  75.002 114.409  0.00  0.00    -0.368 OA
BRANCH   7   8
ATOM      8  C   LIG d   1      -1.388  75.298 115.144  0.00  0.00     0.119 C 
BRANCH   8   9
ATOM      9  C   LIG d   1      -0.197  74.862 114.268  0.00  0.00     0.028 C 
ATOM     10  C   LIG d   1      -0.175  73.344 114.022  0.00  0.00     0.006 C 
ENDBRANCH   8   9
BRANCH   8  11
ATOM     11  C   LIG d   1      -1.287  74.451 116.416  0.00  0.00     0.028 C 
ATOM     12  C   LIG d   1      -1.519  75.269 117.697  0.00  0.00     0.006 C 
ENDBRANCH   8  11
ENDBRANCH   7   8
ENDBRANCH   1   7
BRANCH   6  13
ATOM     13  N   LIG d   1      -5.420  75.059 115.472  0.00  0.00    -0.311 N 
ATOM     14  C   LIG d   1      -5.877  74.417 116.546  0.00  0.00     0.210 C 
ATOM     15  C   LIG d   1      -6.873  73.291 116.251  0.00  0.00     0.109 C 
ATOM     16  O   LIG d   1      -5.576  74.694 117.717  0.00  0.00    -0.276 OA
ATOM     17  H   LIG d   1      -5.741  74.790 114.563  0.00  0.00     0.149 HD
ENDBRANCH   6  13
BRANCH   5  18
ATOM     18  N   LIG d   1      -5.874  77.711 116.919  0.00  0.00     0.381 N 
ATOM     19  H   LIG d   1      -5.318  78.195 117.595  0.00  0.00    -0.090 HD
ATOM     20  H   LIG d   1      -6.093  76.801 117.284  0.00  0.00    -0.090 HD
ATOM     21  H   LIG d   1      -6.714  78.218 116.745  0.00  0.00    -0.090 HD
ENDBRANCH   5  18
BRANCH   3  22
ATOM     22  C   LIG d   1      -2.581  79.673 114.048  0.00  0.00     0.382 C 
ATOM     23  O   LIG d   1      -1.356  79.699 113.778  0.00  0.00    -0.241 OA
ATOM     24  O   LIG d   1      -3.265  80.703 113.895  0.00  0.00    -0.241 OA
ENDBRANCH   3  22
TORSDOF 7
ENDMDL
MODEL 4
REMARK VINA RESULT:      -4.8     10.561     14.448
REMARK  7 active torsions:
REMARK  status: ('A' for Active; 'I' for Inactive)
REMARK    1  A    between atoms: C_2  and  C_3 
REMARK    2  A    between atoms: C_3  and  O_6 
REMARK    3  A    between atoms: C_3  and  C_4 
REMARK    4  A    between atoms: C_7  and  O_6 
REMARK    5  A    between atoms: C_9  and  C_10 
REMARK    6  A    between atoms: N_15  and  C_14 
REMARK    7  A    between atoms: N_20  and  C_19 
REMARK       I    between atoms: C_22  and  N_20 
ROOT
ATOM      1  C   LIG d   1       3.834  89.255 115.972  0.00  0.00     0.161 C 
ATOM      2  C   LIG d   1       4.402  90.389 116.574  0.00  0.00     0.016 C 
ATOM      3  C   LIG d   1       3.642  91.387 117.227  0.00  0.00     0.038 C 
ATOM      4  C   LIG d   1       2.265  91.241 117.453  0.00  0.00     0.028 C 
ATOM      5  C   LIG d   1       1.572  90.356 116.423  0.00  0.00    -0.047 C 
ATOM      6  C   LIG d   1       2.345  89.022 116.305  0.00  0.00     0.091 C 
ENDROOT
BRANCH   1   7
ATOM      7  O   LIG d   1       4.610  88.086 116.301  0.00  0.00    -0.368 OA
BRANCH   7   8
ATOM      8  C   LIG d   1       5.420  87.536 115.233  0.00  0.00     0.119 C 
BRANCH   8   9
ATOM      9  C   LIG d   1       6.878  87.960 115.493  0.00  0.00     0.028 C 
ATOM     10  C   LIG d   1       7.754  86.787 115.967  0.00  0.00     0.006 C 
ENDBRANCH   8   9
BRANCH   8  11
ATOM     11  C   LIG d   1       5.053  88.155 113.881  0.00  0.00     0.028 C 
ATOM     12  C   LIG d   1       6.270  88.725 113.137  0.00  0.00     0.006 C 
ENDBRANCH   8  11
ENDBRANCH   7   8
ENDBRANCH   1   7
BRANCH   6  13
ATOM     13  N   LIG d   1       1.783  88.131 115.257  0.00  0.00    -0.311 N 
ATOM     14  C   LIG d   1       1.546  86.834 115.447  0.00  0.00     0.210 C 
ATOM     15  C   LIG d   1       0.984  86.095 114.229  0.00  0.00     0.109 C 
ATOM     16  O   LIG d   1       1.718  86.233 116.518  0.00  0.00    -0.276 OA
ATOM     17  H   LIG d   1       1.585  88.544 114.367  0.00  0.00     0.149 HD
ENDBRANCH   6  13
BRANCH   5  18
ATOM     18  N   LIG d   1       0.174  90.177 116.856  0.00  0.00     0.381 N 
ATOM     19  H   LIG d   1      -0.134  89.251 116.636  0.00  0.00    -0.090 HD
ATOM     20  H   LIG d   1      -0.407  90.829 116.359  0.00  0.00    -0.090 HD
ATOM     21  H   LIG d   1       0.098  90.335 117.837  0.00  0.00    -0.090 HD
ENDBRANCH   5  18
BRANCH   3  22
ATOM     22  C   LIG d   1       4.253  92.566 117.625  0.00  0.00     0.382 C 
ATOM     23  O   LIG d   1       4.003  93.637 117.021  0.00  0.00    -0.241 OA
ATOM     24  O   LIG d   1       5.085  92.565 118.552  0.00  0.00    -0.241 OA
ENDBRANCH   3  22
TORSDOF 7
ENDMDL
MODEL 5
REMARK VINA RESULT:      -4.8      3.602      6.091
REMARK  7 active torsions:
REMARK  status: ('A' for Active; 'I' for Inactive)
REMARK    1  A    between atoms: C_2  and  C_3 
REMARK    2  A    between atoms: C_3  and  O_6 
REMARK    3  A    between atoms: C_3  and  C_4 
REMARK    4  A    between atoms: C_7  and  O_6 
REMARK    5  A    between atoms: C_9  and  C_10 
REMARK    6  A    between atoms: N_15  and  C_14 
REMARK    7  A    between atoms: N_20  and  C_19 
REMARK       I    between atoms: C_22  and  N_20 
ROOT
ATOM      1  C   LIG d   1      -4.196  75.595 116.035  0.00  0.00     0.161 C 
ATOM      2  C   LIG d   1      -3.671  76.890 115.891  0.00  0.00     0.016 C 
ATOM      3  C   LIG d   1      -4.461  78.061 115.944  0.00  0.00     0.038 C 
ATOM      4  C   LIG d   1      -5.818  78.024 116.298  0.00  0.00     0.028 C 
ATOM      5  C   LIG d   1      -6.498  76.702 115.956  0.00  0.00    -0.047 C 
ATOM      6  C   LIG d   1      -5.656  75.541 116.532  0.00  0.00     0.091 C 
ENDROOT
BRANCH   1   7
ATOM      7  O   LIG d   1      -3.344  74.815 116.897  0.00  0.00    -0.368 OA
BRANCH   7   8
ATOM      8  C   LIG d   1      -1.959  75.233 116.972  0.00  0.00     0.119 C 
BRANCH   8   9
ATOM      9  C   LIG d   1      -1.134  74.258 116.110  0.00  0.00     0.028 C 
ATOM     10  C   LIG d   1      -0.630  74.907 114.810  0.00  0.00     0.006 C 
ENDBRANCH   8   9
BRANCH   8  11
ATOM     11  C   LIG d   1      -1.408  75.083 118.393  0.00  0.00     0.028 C 
ATOM     12  C   LIG d   1      -0.005  75.689 118.555  0.00  0.00     0.006 C 
ENDBRANCH   8  11
ENDBRANCH   7   8
ENDBRANCH   1   7
BRANCH   6  13
ATOM     13  N   LIG d   1      -6.205  74.208 116.170  0.00  0.00    -0.311 N 
ATOM     14  C   LIG d   1      -7.069  73.540 116.933  0.00  0.00     0.210 C 
ATOM     15  C   LIG d   1      -7.494  72.174 116.383  0.00  0.00     0.109 C 
ATOM     16  O   LIG d   1      -7.548  73.962 117.996  0.00  0.00    -0.276 OA
ATOM     17  H   LIG d   1      -5.894  73.805 115.308  0.00  0.00     0.149 HD
ENDBRANCH   6  13
BRANCH   5  18
ATOM     18  N   LIG d   1      -7.867  76.750 116.502  0.00  0.00     0.381 N 
ATOM     19  H   LIG d   1      -8.483  76.217 115.921  0.00  0.00    -0.090 HD
ATOM     20  H   LIG d   1      -8.183  77.704 116.504  0.00  0.00    -0.090 HD
ATOM     21  H   LIG d   1      -7.877  76.387 117.430  0.00  0.00    -0.090 HD
ENDBRANCH   5  18
BRANCH   3  22
ATOM     22  C   LIG d   1      -3.903  79.283 115.602  0.00  0.00     0.382 C 
ATOM     23  O   LIG d   1      -3.799  80.188 116.465  0.00  0.00    -0.241 OA
ATOM     24  O   LIG d   1      -3.542  79.507 114.431  0.00  0.00    -0.241 OA
ENDBRANCH   3  22
TORSDOF 7
ENDMDL
MODEL 6
REMARK VINA RESULT:      -4.7     10.489     12.997
REMARK  7 active torsions:
REMARK  status: ('A' for Active; 'I' for Inactive)
REMARK    1  A    between atoms: C_2  and  C_3 
REMARK    2  A    between atoms: C_3  and  O_6 
REMARK    3  A    between atoms: C_3  and  C_4 
REMARK    4  A    between atoms: C_7  and  O_6 
REMARK    5  A    between atoms: C_9  and  C_10 
REMARK    6  A    between atoms: N_15  and  C_14 
REMARK    7  A    between atoms: N_20  and  C_19 
REMARK       I    between atoms: C_22  and  N_20 
ROOT
ATOM      1  C   LIG d   1       2.316  88.722 116.087  0.00  0.00     0.161 C 
ATOM      2  C   LIG d   1       1.042  89.080 116.560  0.00  0.00     0.016 C 
ATOM      3  C   LIG d   1       0.781  90.281 117.258  0.00  0.00     0.038 C 
ATOM      4  C   LIG d   1       1.752  91.283 117.399  0.00  0.00     0.028 C 
ATOM      5  C   LIG d   1       3.180  90.749 117.381  0.00  0.00    -0.047 C 
ATOM      6  C   LIG d   1       3.364  89.853 116.135  0.00  0.00     0.091 C 
ENDROOT
BRANCH   1   7
ATOM      7  O   LIG d   1       2.210  88.192 114.751  0.00  0.00    -0.368 OA
BRANCH   7   8
ATOM      8  C   LIG d   1       2.468  86.774 114.605  0.00  0.00     0.119 C 
BRANCH   8   9
ATOM      9  C   LIG d   1       3.654  86.618 113.633  0.00  0.00     0.028 C 
ATOM     10  C   LIG d   1       3.360  87.215 112.247  0.00  0.00     0.006 C 
ENDBRANCH   8   9
BRANCH   8  11
ATOM     11  C   LIG d   1       1.294  86.060 113.929  0.00  0.00     0.028 C 
ATOM     12  C   LIG d   1       0.103  85.844 114.876  0.00  0.00     0.006 C 
ENDBRANCH   8  11
ENDBRANCH   7   8
ENDBRANCH   1   7
BRANCH   6  13
ATOM     13  N   LIG d   1       4.709  89.221 116.084  0.00  0.00    -0.311 N 
ATOM     14  C   LIG d   1       5.522  89.310 115.032  0.00  0.00     0.210 C 
ATOM     15  C   LIG d   1       6.854  88.569 115.180  0.00  0.00     0.109 C 
ATOM     16  O   LIG d   1       5.279  89.959 114.004  0.00  0.00    -0.276 OA
ATOM     17  H   LIG d   1       4.999  88.701 116.889  0.00  0.00     0.149 HD
ENDBRANCH   6  13
BRANCH   5  18
ATOM     18  N   LIG d   1       4.091  91.909 117.397  0.00  0.00     0.381 N 
ATOM     19  H   LIG d   1       3.655  92.675 117.871  0.00  0.00    -0.090 HD
ATOM     20  H   LIG d   1       4.278  92.189 116.451  0.00  0.00    -0.090 HD
ATOM     21  H   LIG d   1       4.942  91.668 117.855  0.00  0.00    -0.090 HD
ENDBRANCH   5  18
BRANCH   3  22
ATOM     22  C   LIG d   1      -0.455  90.472 117.858  0.00  0.00     0.382 C 
ATOM     23  O   LIG d   1      -1.245  89.506 117.988  0.00  0.00    -0.241 OA
ATOM     24  O   LIG d   1      -0.807  91.607 118.232  0.00  0.00    -0.241 OA
ENDBRANCH   3  22
TORSDOF 7
ENDMDL
MODEL 7
REMARK VINA RESULT:      -4.5      3.092      5.798
REMARK  7 active torsions:
REMARK  status: ('A' for Active; 'I' for Inactive)
REMARK    1  A    between atoms: C_2  and  C_3 
REMARK    2  A    between atoms: C_3  and  O_6 
REMARK    3  A    between atoms: C_3  and  C_4 
REMARK    4  A    between atoms: C_7  and  O_6 
REMARK    5  A    between atoms: C_9  and  C_10 
REMARK    6  A    between atoms: N_15  and  C_14 
REMARK    7  A    between atoms: N_20  and  C_19 
REMARK       I    between atoms: C_22  and  N_20 
ROOT
ATOM      1  C   LIG d   1      -3.017  77.274 114.123  0.00  0.00     0.161 C 
ATOM      2  C   LIG d   1      -2.578  78.406 113.416  0.00  0.00     0.016 C 
ATOM      3  C   LIG d   1      -2.757  79.730 113.879  0.00  0.00     0.038 C 
ATOM      4  C   LIG d   1      -3.255  80.007 115.160  0.00  0.00     0.028 C 
ATOM      5  C   LIG d   1      -4.175  78.917 115.701  0.00  0.00    -0.047 C 
ATOM      6  C   LIG d   1      -3.463  77.551 115.574  0.00  0.00     0.091 C 
ENDROOT
BRANCH   1   7
ATOM      7  O   LIG d   1      -1.996  76.257 114.098  0.00  0.00    -0.368 OA
BRANCH   7   8
ATOM      8  C   LIG d   1      -1.324  75.997 115.355  0.00  0.00     0.119 C 
BRANCH   8   9
ATOM      9  C   LIG d   1       0.060  76.670 115.288  0.00  0.00     0.028 C 
ATOM     10  C   LIG d   1       0.162  77.896 116.211  0.00  0.00     0.006 C 
ENDBRANCH   8   9
BRANCH   8  11
ATOM     11  C   LIG d   1      -1.041  74.503 115.536  0.00  0.00     0.028 C 
ATOM     12  C   LIG d   1      -0.396  73.864 114.296  0.00  0.00     0.006 C 
ENDBRANCH   8  11
ENDBRANCH   7   8
ENDBRANCH   1   7
BRANCH   6  13
ATOM     13  N   LIG d   1      -4.326  76.420 116.003  0.00  0.00    -0.311 N 
ATOM     14  C   LIG d   1      -5.533  76.184 115.492  0.00  0.00     0.210 C 
ATOM     15  C   LIG d   1      -6.264  74.977 116.089  0.00  0.00     0.109 C 
ATOM     16  O   LIG d   1      -6.055  76.840 114.578  0.00  0.00    -0.276 OA
ATOM     17  H   LIG d   1      -3.968  75.818 116.718  0.00  0.00     0.149 HD
ENDBRANCH   6  13
BRANCH   5  18
ATOM     18  N   LIG d   1      -4.510  79.267 117.094  0.00  0.00     0.381 N 
ATOM     19  H   LIG d   1      -4.446  78.453 117.673  0.00  0.00    -0.090 HD
ATOM     20  H   LIG d   1      -5.457  79.603 117.126  0.00  0.00    -0.090 HD
ATOM     21  H   LIG d   1      -3.889  79.971 117.428  0.00  0.00    -0.090 HD
ENDBRANCH   5  18
BRANCH   3  22
ATOM     22  C   LIG d   1      -2.472  80.796 113.039  0.00  0.00     0.382 C 
ATOM     23  O   LIG d   1      -1.333  81.321 113.057  0.00  0.00    -0.241 OA
ATOM     24  O   LIG d   1      -3.353  81.267 112.295  0.00  0.00    -0.241 OA
ENDBRANCH   3  22
TORSDOF 7
ENDMDL
MODEL 8
REMARK VINA RESULT:      -4.4     11.882     13.831
REMARK  7 active torsions:
REMARK  status: ('A' for Active; 'I' for Inactive)
REMARK    1  A    between atoms: C_2  and  C_3 
REMARK    2  A    between atoms: C_3  and  O_6 
REMARK    3  A    between atoms: C_3  and  C_4 
REMARK    4  A    between atoms: C_7  and  O_6 
REMARK    5  A    between atoms: C_9  and  C_10 
REMARK    6  A    between atoms: N_15  and  C_14 
REMARK    7  A    between atoms: N_20  and  C_19 
REMARK       I    between atoms: C_22  and  N_20 
ROOT
ATOM      1  C   LIG d   1       4.100  88.395 115.652  0.00  0.00     0.161 C 
ATOM      2  C   LIG d   1       3.776  89.587 116.320  0.00  0.00     0.016 C 
ATOM      3  C   LIG d   1       2.466  89.910 116.745  0.00  0.00     0.038 C 
ATOM      4  C   LIG d   1       1.412  88.989 116.663  0.00  0.00     0.028 C 
ATOM      5  C   LIG d   1       1.582  87.971 115.540  0.00  0.00    -0.047 C 
ATOM      6  C   LIG d   1       2.984  87.329 115.654  0.00  0.00     0.091 C 
ENDROOT
BRANCH   1   7
ATOM      7  O   LIG d   1       5.317  87.846 116.195  0.00  0.00    -0.368 OA
BRANCH   7   8
ATOM      8  C   LIG d   1       6.413  87.680 115.261  0.00  0.00     0.119 C 
BRANCH   8   9
ATOM      9  C   LIG d   1       7.720  87.687 116.076  0.00  0.00     0.028 C 
ATOM     10  C   LIG d   1       7.509  87.230 117.529  0.00  0.00     0.006 C 
ENDBRANCH   8   9
BRANCH   8  11
ATOM     11  C   LIG d   1       6.521  88.875 114.310  0.00  0.00     0.028 C 
ATOM     12  C   LIG d   1       6.389  88.475 112.832  0.00  0.00     0.006 C 
ENDBRANCH   8  11
ENDBRANCH   7   8
ENDBRANCH   1   7
BRANCH   6  13
ATOM     13  N   LIG d   1       3.265  86.382 114.543  0.00  0.00    -0.311 N 
ATOM     14  C   LIG d   1       3.178  86.715 113.256  0.00  0.00     0.210 C 
ATOM     15  C   LIG d   1       3.490  85.583 112.273  0.00  0.00     0.109 C 
ATOM     16  O   LIG d   1       2.903  87.849 112.836  0.00  0.00    -0.276 OA
ATOM     17  H   LIG d   1       3.526  85.449 114.794  0.00  0.00     0.149 HD
ENDBRANCH   6  13
BRANCH   5  18
ATOM     18  N   LIG d   1       0.486  86.991 115.657  0.00  0.00     0.381 N 
ATOM     19  H   LIG d   1       0.582  86.290 114.950  0.00  0.00    -0.090 HD
ATOM     20  H   LIG d   1      -0.389  87.464 115.516  0.00  0.00    -0.090 HD
ATOM     21  H   LIG d   1       0.502  86.567 116.559  0.00  0.00    -0.090 HD
ENDBRANCH   5  18
BRANCH   3  22
ATOM     22  C   LIG d   1       2.193  91.183 117.222  0.00  0.00     0.382 C 
ATOM     23  O   LIG d   1       2.950  92.139 116.927  0.00  0.00    -0.241 OA
ATOM     24  O   LIG d   1       1.223  91.380 117.979  0.00  0.00    -0.241 OA
ENDBRANCH   3  22
TORSDOF 7
ENDMDL
MODEL 9
REMARK VINA RESULT:      -4.4      2.093      2.610
REMARK  7 active torsions:
REMARK  status: ('A' for Active; 'I' for Inactive)
REMARK    1  A    between atoms: C_2  and  C_3 
REMARK    2  A    between atoms: C_3  and  O_6 
REMARK    3  A    between atoms: C_3  and  C_4 
REMARK    4  A    between atoms: C_7  and  O_6 
REMARK    5  A    between atoms: C_9  and  C_10 
REMARK    6  A    between atoms: N_15  and  C_14 
REMARK    7  A    between atoms: N_20  and  C_19 
REMARK       I    between atoms: C_22  and  N_20 
ROOT
ATOM      1  C   LIG d   1      -4.702  77.125 117.294  0.00  0.00     0.161 C 
ATOM      2  C   LIG d   1      -5.508  75.974 117.279  0.00  0.00     0.016 C 
ATOM      3  C   LIG d   1      -6.921  76.014 117.290  0.00  0.00     0.038 C 
ATOM      4  C   LIG d   1      -7.630  77.217 117.164  0.00  0.00     0.028 C 
ATOM      5  C   LIG d   1      -6.865  78.429 117.685  0.00  0.00    -0.047 C 
ATOM      6  C   LIG d   1      -5.458  78.447 117.045  0.00  0.00     0.091 C 
ENDROOT
BRANCH   1   7
ATOM      7  O   LIG d   1      -3.623  76.979 116.350  0.00  0.00    -0.368 OA
BRANCH   7   8
ATOM      8  C   LIG d   1      -3.774  75.923 115.369  0.00  0.00     0.119 C 
BRANCH   8   9
ATOM      9  C   LIG d   1      -2.386  75.290 115.153  0.00  0.00     0.028 C 
ATOM     10  C   LIG d   1      -1.749  74.809 116.468  0.00  0.00     0.006 C 
ENDBRANCH   8   9
BRANCH   8  11
ATOM     11  C   LIG d   1      -4.180  76.485 114.003  0.00  0.00     0.028 C 
ATOM     12  C   LIG d   1      -5.547  75.968 113.529  0.00  0.00     0.006 C 
ENDBRANCH   8  11
ENDBRANCH   7   8
ENDBRANCH   1   7
BRANCH   6  13
ATOM     13  N   LIG d   1      -4.612  79.553 117.564  0.00  0.00    -0.311 N 
ATOM     14  C   LIG d   1      -3.903  80.364 116.781  0.00  0.00     0.210 C 
ATOM     15  C   LIG d   1      -3.084  81.426 117.522  0.00  0.00     0.109 C 
ATOM     16  O   LIG d   1      -3.899  80.325 115.541  0.00  0.00    -0.276 OA
ATOM     17  H   LIG d   1      -4.582  79.676 118.557  0.00  0.00     0.149 HD
ENDBRANCH   6  13
BRANCH   5  18
ATOM     18  N   LIG d   1      -7.660  79.630 117.367  0.00  0.00     0.381 N 
ATOM     19  H   LIG d   1      -7.239  80.435 117.784  0.00  0.00    -0.090 HD
ATOM     20  H   LIG d   1      -8.582  79.520 117.752  0.00  0.00    -0.090 HD
ATOM     21  H   LIG d   1      -7.717  79.749 116.380  0.00  0.00    -0.090 HD
ENDBRANCH   5  18
BRANCH   3  22
ATOM     22  C   LIG d   1      -7.640  74.841 117.469  0.00  0.00     0.382 C 
ATOM     23  O   LIG d   1      -7.039  73.771 117.731  0.00  0.00    -0.241 OA
ATOM     24  O   LIG d   1      -8.877  74.831 117.328  0.00  0.00    -0.241 OA
ENDBRANCH   3  22
TORSDOF 7
ENDMDL
