MODEL 1
REMARK VINA RESULT:      -5.0      0.000      0.000
REMARK  7 active torsions:
REMARK  status: ('A' for Active; 'I' for Inactive)
REMARK    1  A    between atoms: C_2  and  C_3 
REMARK    2  A    between atoms: C_3  and  O_6 
REMARK    3  A    between atoms: C_3  and  C_4 
REMARK    4  A    between atoms: C_7  and  O_6 
REMARK    5  A    between atoms: C_9  and  C_10 
REMARK    6  A    between atoms: N_15  and  C_14 
REMARK    7  A    between atoms: N_20  and  C_19 
REMARK       I    between atoms: C_22  and  N_20 
ROOT
ATOM      1  C   LIG d   1      -6.941  75.921 118.555  0.00  0.00     0.161 C 
ATOM      2  C   LIG d   1      -8.075  76.751 118.555  0.00  0.00     0.016 C 
ATOM      3  C   LIG d   1      -8.141  77.978 117.857  0.00  0.00     0.038 C 
ATOM      4  C   LIG d   1      -7.124  78.389 116.982  0.00  0.00     0.028 C 
ATOM      5  C   LIG d   1      -5.752  77.831 117.343  0.00  0.00    -0.047 C 
ATOM      6  C   LIG d   1      -5.863  76.299 117.517  0.00  0.00     0.091 C 
ENDROOT
BRANCH   1   7
ATOM      7  O   LIG d   1      -7.341  74.547 118.384  0.00  0.00    -0.368 OA
BRANCH   7   8
ATOM      8  C   LIG d   1      -7.793  74.175 117.059  0.00  0.00     0.119 C 
BRANCH   8   9
ATOM      9  C   LIG d   1      -9.243  73.669 117.188  0.00  0.00     0.028 C 
ATOM     10  C   LIG d   1     -10.258  74.627 116.544  0.00  0.00     0.006 C 
ENDBRANCH   8   9
BRANCH   8  11
ATOM     11  C   LIG d   1      -6.996  72.986 116.512  0.00  0.00     0.028 C 
ATOM     12  C   LIG d   1      -7.748  71.652 116.648  0.00  0.00     0.006 C 
ENDBRANCH   8  11
ENDBRANCH   7   8
ENDBRANCH   1   7
BRANCH   6  13
ATOM     13  N   LIG d   1      -4.583  75.683 117.954  0.00  0.00    -0.311 N 
ATOM     14  C   LIG d   1      -3.669  75.214 117.107  0.00  0.00     0.210 C 
ATOM     15  C   LIG d   1      -2.430  74.601 117.767  0.00  0.00     0.109 C 
ATOM     16  O   LIG d   1      -3.751  75.277 115.871  0.00  0.00    -0.276 OA
ATOM     17  H   LIG d   1      -4.420  75.620 118.940  0.00  0.00     0.149 HD
ENDBRANCH   6  13
BRANCH   5  18
ATOM     18  N   LIG d   1      -4.814  78.224 116.274  0.00  0.00     0.381 N 
ATOM     19  H   LIG d   1      -3.959  78.551 116.677  0.00  0.00    -0.090 HD
ATOM     20  H   LIG d   1      -5.221  78.976 115.746  0.00  0.00    -0.090 HD
ATOM     21  H   LIG d   1      -4.634  77.448 115.676  0.00  0.00    -0.090 HD
ENDBRANCH   5  18
BRANCH   3  22
ATOM     22  C   LIG d   1      -9.217  78.828 118.061  0.00  0.00     0.382 C 
ATOM     23  O   LIG d   1     -10.361  78.354 118.263  0.00  0.00    -0.241 OA
ATOM     24  O   LIG d   1      -9.066  80.064 118.003  0.00  0.00    -0.241 OA
ENDBRANCH   3  22
TORSDOF 7
ENDMDL
MODEL 2
REMARK VINA RESULT:      -5.0      1.729      2.516
REMARK  7 active torsions:
REMARK  status: ('A' for Active; 'I' for Inactive)
REMARK    1  A    between atoms: C_2  and  C_3 
REMARK    2  A    between atoms: C_3  and  O_6 
REMARK    3  A    between atoms: C_3  and  C_4 
REMARK    4  A    between atoms: C_7  and  O_6 
REMARK    5  A    between atoms: C_9  and  C_10 
REMARK    6  A    between atoms: N_15  and  C_14 
REMARK    7  A    between atoms: N_20  and  C_19 
REMARK       I    between atoms: C_22  and  N_20 
ROOT
ATOM      1  C   LIG d   1      -7.225  77.466 117.453  0.00  0.00     0.161 C 
ATOM      2  C   LIG d   1      -8.397  78.173 117.766  0.00  0.00     0.016 C 
ATOM      3  C   LIG d   1      -8.475  79.585 117.777  0.00  0.00     0.038 C 
ATOM      4  C   LIG d   1      -7.419  80.389 117.325  0.00  0.00     0.028 C 
ATOM      5  C   LIG d   1      -6.050  79.735 117.480  0.00  0.00    -0.047 C 
ATOM      6  C   LIG d   1      -6.094  78.325 116.849  0.00  0.00     0.091 C 
ENDROOT
BRANCH   1   7
ATOM      7  O   LIG d   1      -7.538  76.364 116.578  0.00  0.00    -0.368 OA
BRANCH   7   8
ATOM      8  C   LIG d   1      -7.343  75.038 117.129  0.00  0.00     0.119 C 
BRANCH   8   9
ATOM      9  C   LIG d   1      -6.254  74.343 116.289  0.00  0.00     0.028 C 
ATOM     10  C   LIG d   1      -6.124  74.948 114.881  0.00  0.00     0.006 C 
ENDBRANCH   8   9
BRANCH   8  11
ATOM     11  C   LIG d   1      -8.597  74.175 116.962  0.00  0.00     0.028 C 
ATOM     12  C   LIG d   1      -9.845  75.000 116.607  0.00  0.00     0.006 C 
ENDBRANCH   8  11
ENDBRANCH   7   8
ENDBRANCH   1   7
BRANCH   6  13
ATOM     13  N   LIG d   1      -4.819  77.583 117.032  0.00  0.00    -0.311 N 
ATOM     14  C   LIG d   1      -3.854  77.546 116.115  0.00  0.00     0.210 C 
ATOM     15  C   LIG d   1      -2.631  76.706 116.496  0.00  0.00     0.109 C 
ATOM     16  O   LIG d   1      -3.881  78.156 115.035  0.00  0.00    -0.276 OA
ATOM     17  H   LIG d   1      -4.701  77.085 117.892  0.00  0.00     0.149 HD
ENDBRANCH   6  13
BRANCH   5  18
ATOM     18  N   LIG d   1      -5.058  80.622 116.845  0.00  0.00     0.381 N 
ATOM     19  H   LIG d   1      -5.481  81.113 116.083  0.00  0.00    -0.090 HD
ATOM     20  H   LIG d   1      -4.307  80.063 116.481  0.00  0.00    -0.090 HD
ATOM     21  H   LIG d   1      -4.704  81.272 117.513  0.00  0.00    -0.090 HD
ENDBRANCH   5  18
BRANCH   3  22
ATOM     22  C   LIG d   1      -9.607  80.207 118.282  0.00  0.00     0.382 C 
ATOM     23  O   LIG d   1      -9.581  81.431 118.555  0.00  0.00    -0.241 OA
ATOM     24  O   LIG d   1     -10.640  79.549 118.511  0.00  0.00    -0.241 OA
ENDBRANCH   3  22
TORSDOF 7
ENDMDL
MODEL 3
REMARK VINA RESULT:      -5.0     14.651     18.439
REMARK  7 active torsions:
REMARK  status: ('A' for Active; 'I' for Inactive)
REMARK    1  A    between atoms: C_2  and  C_3 
REMARK    2  A    between atoms: C_3  and  O_6 
REMARK    3  A    between atoms: C_3  and  C_4 
REMARK    4  A    between atoms: C_7  and  O_6 
REMARK    5  A    between atoms: C_9  and  C_10 
REMARK    6  A    between atoms: N_15  and  C_14 
REMARK    7  A    between atoms: N_20  and  C_19 
REMARK       I    between atoms: C_22  and  N_20 
ROOT
ATOM      1  C   LIG d   1      10.243  78.730 114.474  0.00  0.00     0.161 C 
ATOM      2  C   LIG d   1       8.910  78.941 114.864  0.00  0.00     0.016 C 
ATOM      3  C   LIG d   1       8.097  77.934 115.432  0.00  0.00     0.038 C 
ATOM      4  C   LIG d   1       8.613  76.679 115.791  0.00  0.00     0.028 C 
ATOM      5  C   LIG d   1       9.816  76.257 114.955  0.00  0.00    -0.047 C 
ATOM      6  C   LIG d   1      10.856  77.400 114.960  0.00  0.00     0.091 C 
ENDROOT
BRANCH   1   7
ATOM      7  O   LIG d   1      11.057  79.842 114.898  0.00  0.00    -0.368 OA
BRANCH   7   8
ATOM      8  C   LIG d   1      11.728  80.578 113.845  0.00  0.00     0.119 C 
BRANCH   8   9
ATOM      9  C   LIG d   1      12.972  81.243 114.466  0.00  0.00     0.028 C 
ATOM     10  C   LIG d   1      14.276  80.805 113.778  0.00  0.00     0.006 C 
ENDBRANCH   8   9
BRANCH   8  11
ATOM     11  C   LIG d   1      10.863  81.734 113.335  0.00  0.00     0.028 C 
ATOM     12  C   LIG d   1      10.713  81.735 111.805  0.00  0.00     0.006 C 
ENDBRANCH   8  11
ENDBRANCH   7   8
ENDBRANCH   1   7
BRANCH   6  13
ATOM     13  N   LIG d   1      12.029  77.104 114.097  0.00  0.00    -0.311 N 
ATOM     14  C   LIG d   1      13.291  77.242 114.500  0.00  0.00     0.210 C 
ATOM     15  C   LIG d   1      14.348  76.902 113.445  0.00  0.00     0.109 C 
ATOM     16  O   LIG d   1      13.635  77.583 115.642  0.00  0.00    -0.276 OA
ATOM     17  H   LIG d   1      11.841  76.791 113.164  0.00  0.00     0.149 HD
ENDBRANCH   6  13
BRANCH   5  18
ATOM     18  N   LIG d   1      10.336  75.000 115.524  0.00  0.00     0.381 N 
ATOM     19  H   LIG d   1      11.077  75.199 116.166  0.00  0.00    -0.090 HD
ATOM     20  H   LIG d   1      10.706  74.435 114.781  0.00  0.00    -0.090 HD
ATOM     21  H   LIG d   1       9.605  74.509 115.992  0.00  0.00    -0.090 HD
ENDBRANCH   5  18
BRANCH   3  22
ATOM     22  C   LIG d   1       6.741  78.164 115.611  0.00  0.00     0.382 C 
ATOM     23  O   LIG d   1       5.941  77.956 114.667  0.00  0.00    -0.241 OA
ATOM     24  O   LIG d   1       6.314  78.619 116.689  0.00  0.00    -0.241 OA
ENDBRANCH   3  22
TORSDOF 7
ENDMDL
MODEL 4
REMARK VINA RESULT:      -4.8      2.302      4.424
REMARK  7 active torsions:
REMARK  status: ('A' for Active; 'I' for Inactive)
REMARK    1  A    between atoms: C_2  and  C_3 
REMARK    2  A    between atoms: C_3  and  O_6 
REMARK    3  A    between atoms: C_3  and  C_4 
REMARK    4  A    between atoms: C_7  and  O_6 
REMARK    5  A    between atoms: C_9  and  C_10 
REMARK    6  A    between atoms: N_15  and  C_14 
REMARK    7  A    between atoms: N_20  and  C_19 
REMARK       I    between atoms: C_22  and  N_20 
ROOT
ATOM      1  C   LIG d   1      -7.000  75.890 117.022  0.00  0.00     0.161 C 
ATOM      2  C   LIG d   1      -6.955  77.285 117.186  0.00  0.00     0.016 C 
ATOM      3  C   LIG d   1      -8.072  78.059 117.577  0.00  0.00     0.038 C 
ATOM      4  C   LIG d   1      -9.279  77.468 117.979  0.00  0.00     0.028 C 
ATOM      5  C   LIG d   1      -9.526  76.103 117.346  0.00  0.00    -0.047 C 
ATOM      6  C   LIG d   1      -8.278  75.216 117.563  0.00  0.00     0.091 C 
ENDROOT
BRANCH   1   7
ATOM      7  O   LIG d   1      -5.830  75.291 117.612  0.00  0.00    -0.368 OA
BRANCH   7   8
ATOM      8  C   LIG d   1      -4.910  74.651 116.693  0.00  0.00     0.119 C 
BRANCH   8   9
ATOM      9  C   LIG d   1      -3.554  75.373 116.817  0.00  0.00     0.028 C 
ATOM     10  C   LIG d   1      -3.181  75.674 118.278  0.00  0.00     0.006 C 
ENDBRANCH   8   9
BRANCH   8  11
ATOM     11  C   LIG d   1      -5.345  74.851 115.238  0.00  0.00     0.028 C 
ATOM     12  C   LIG d   1      -4.499  75.902 114.503  0.00  0.00     0.006 C 
ENDBRANCH   8  11
ENDBRANCH   7   8
ENDBRANCH   1   7
BRANCH   6  13
ATOM     13  N   LIG d   1      -8.403  73.891 116.902  0.00  0.00    -0.311 N 
ATOM     14  C   LIG d   1      -9.019  72.849 117.457  0.00  0.00     0.210 C 
ATOM     15  C   LIG d   1      -9.016  71.571 116.613  0.00  0.00     0.109 C 
ATOM     16  O   LIG d   1      -9.596  72.872 118.555  0.00  0.00    -0.276 OA
ATOM     17  H   LIG d   1      -7.990  73.794 115.995  0.00  0.00     0.149 HD
ENDBRANCH   6  13
BRANCH   5  18
ATOM     18  N   LIG d   1     -10.747  75.543 117.956  0.00  0.00     0.381 N 
ATOM     19  H   LIG d   1     -11.384  76.281 118.178  0.00  0.00    -0.090 HD
ATOM     20  H   LIG d   1     -10.498  75.073 118.808  0.00  0.00    -0.090 HD
ATOM     21  H   LIG d   1     -11.178  74.901 117.328  0.00  0.00    -0.090 HD
ENDBRANCH   5  18
BRANCH   3  22
ATOM     22  C   LIG d   1      -7.999  79.443 117.530  0.00  0.00     0.382 C 
ATOM     23  O   LIG d   1      -8.954  80.135 117.956  0.00  0.00    -0.241 OA
ATOM     24  O   LIG d   1      -7.010  80.006 117.026  0.00  0.00    -0.241 OA
ENDBRANCH   3  22
TORSDOF 7
ENDMDL
MODEL 5
REMARK VINA RESULT:      -4.8      2.849      4.602
REMARK  7 active torsions:
REMARK  status: ('A' for Active; 'I' for Inactive)
REMARK    1  A    between atoms: C_2  and  C_3 
REMARK    2  A    between atoms: C_3  and  O_6 
REMARK    3  A    between atoms: C_3  and  C_4 
REMARK    4  A    between atoms: C_7  and  O_6 
REMARK    5  A    between atoms: C_9  and  C_10 
REMARK    6  A    between atoms: N_15  and  C_14 
REMARK    7  A    between atoms: N_20  and  C_19 
REMARK       I    between atoms: C_22  and  N_20 
ROOT
ATOM      1  C   LIG d   1      -6.028  78.238 117.050  0.00  0.00     0.161 C 
ATOM      2  C   LIG d   1      -7.300  77.671 117.237  0.00  0.00     0.016 C 
ATOM      3  C   LIG d   1      -8.421  78.407 117.685  0.00  0.00     0.038 C 
ATOM      4  C   LIG d   1      -8.383  79.801 117.833  0.00  0.00     0.028 C 
ATOM      5  C   LIG d   1      -6.989  80.339 118.142  0.00  0.00    -0.047 C 
ATOM      6  C   LIG d   1      -5.993  79.780 117.100  0.00  0.00     0.091 C 
ENDROOT
BRANCH   1   7
ATOM      7  O   LIG d   1      -5.458  77.764 115.814  0.00  0.00    -0.368 OA
BRANCH   7   8
ATOM      8  C   LIG d   1      -4.537  76.651 115.922  0.00  0.00     0.119 C 
BRANCH   8   9
ATOM      9  C   LIG d   1      -3.111  77.232 115.955  0.00  0.00     0.028 C 
ATOM     10  C   LIG d   1      -2.857  78.230 114.812  0.00  0.00     0.006 C 
ENDBRANCH   8   9
BRANCH   8  11
ATOM     11  C   LIG d   1      -4.586  75.764 114.674  0.00  0.00     0.028 C 
ATOM     12  C   LIG d   1      -6.019  75.387 114.267  0.00  0.00     0.006 C 
ENDBRANCH   8  11
ENDBRANCH   7   8
ENDBRANCH   1   7
BRANCH   6  13
ATOM     13  N   LIG d   1      -4.592  80.189 117.379  0.00  0.00    -0.311 N 
ATOM     14  C   LIG d   1      -3.999  81.224 116.786  0.00  0.00     0.210 C 
ATOM     15  C   LIG d   1      -2.544  81.461 117.203  0.00  0.00     0.109 C 
ATOM     16  O   LIG d   1      -4.549  81.987 115.978  0.00  0.00    -0.276 OA
ATOM     17  H   LIG d   1      -4.081  79.643 118.045  0.00  0.00     0.149 HD
ENDBRANCH   6  13
BRANCH   5  18
ATOM     18  N   LIG d   1      -7.068  81.812 118.134  0.00  0.00     0.381 N 
ATOM     19  H   LIG d   1      -7.904  82.104 117.669  0.00  0.00    -0.090 HD
ATOM     20  H   LIG d   1      -6.281  82.177 117.627  0.00  0.00    -0.090 HD
ATOM     21  H   LIG d   1      -7.061  82.159 119.068  0.00  0.00    -0.090 HD
ENDBRANCH   5  18
BRANCH   3  22
ATOM     22  C   LIG d   1      -9.588  77.740 118.028  0.00  0.00     0.382 C 
ATOM     23  O   LIG d   1     -10.588  78.388 118.419  0.00  0.00    -0.241 OA
ATOM     24  O   LIG d   1      -9.638  76.496 117.993  0.00  0.00    -0.241 OA
ENDBRANCH   3  22
TORSDOF 7
ENDMDL
MODEL 6
REMARK VINA RESULT:      -4.6     15.002     17.289
REMARK  7 active torsions:
REMARK  status: ('A' for Active; 'I' for Inactive)
REMARK    1  A    between atoms: C_2  and  C_3 
REMARK    2  A    between atoms: C_3  and  O_6 
REMARK    3  A    between atoms: C_3  and  C_4 
REMARK    4  A    between atoms: C_7  and  O_6 
REMARK    5  A    between atoms: C_9  and  C_10 
REMARK    6  A    between atoms: N_15  and  C_14 
REMARK    7  A    between atoms: N_20  and  C_19 
REMARK       I    between atoms: C_22  and  N_20 
ROOT
ATOM      1  C   LIG d   1       3.721  88.540 115.770  0.00  0.00     0.161 C 
ATOM      2  C   LIG d   1       4.508  89.369 116.587  0.00  0.00     0.016 C 
ATOM      3  C   LIG d   1       5.785  89.846 116.212  0.00  0.00     0.038 C 
ATOM      4  C   LIG d   1       6.301  89.647 114.923  0.00  0.00     0.028 C 
ATOM      5  C   LIG d   1       5.764  88.393 114.242  0.00  0.00    -0.047 C 
ATOM      6  C   LIG d   1       4.220  88.404 114.316  0.00  0.00     0.091 C 
ENDROOT
BRANCH   1   7
ATOM      7  O   LIG d   1       2.352  88.990 115.790  0.00  0.00    -0.368 OA
BRANCH   7   8
ATOM      8  C   LIG d   1       1.565  88.585 116.937  0.00  0.00     0.119 C 
BRANCH   8   9
ATOM      9  C   LIG d   1       0.623  87.456 116.476  0.00  0.00     0.028 C 
ATOM     10  C   LIG d   1       1.238  86.060 116.678  0.00  0.00     0.006 C 
ENDBRANCH   8   9
BRANCH   8  11
ATOM     11  C   LIG d   1       0.643  89.715 117.407  0.00  0.00     0.028 C 
ATOM     12  C   LIG d   1       1.097  91.098 116.914  0.00  0.00     0.006 C 
ENDBRANCH   8  11
ENDBRANCH   7   8
ENDBRANCH   1   7
BRANCH   6  13
ATOM     13  N   LIG d   1       3.616  87.171 113.747  0.00  0.00    -0.311 N 
ATOM     14  C   LIG d   1       2.684  87.183 112.796  0.00  0.00     0.210 C 
ATOM     15  C   LIG d   1       2.182  85.801 112.365  0.00  0.00     0.109 C 
ATOM     16  O   LIG d   1       2.248  88.205 112.245  0.00  0.00    -0.276 OA
ATOM     17  H   LIG d   1       3.935  86.296 114.114  0.00  0.00     0.149 HD
ENDBRANCH   6  13
BRANCH   5  18
ATOM     18  N   LIG d   1       6.276  88.383 112.859  0.00  0.00     0.381 N 
ATOM     19  H   LIG d   1       7.269  88.258 112.866  0.00  0.00    -0.090 HD
ATOM     20  H   LIG d   1       6.074  89.270 112.431  0.00  0.00    -0.090 HD
ATOM     21  H   LIG d   1       5.845  87.650 112.341  0.00  0.00    -0.090 HD
ENDBRANCH   5  18
BRANCH   3  22
ATOM     22  C   LIG d   1       6.577  90.496 117.146  0.00  0.00     0.382 C 
ATOM     23  O   LIG d   1       7.826  90.478 117.031  0.00  0.00    -0.241 OA
ATOM     24  O   LIG d   1       6.060  91.063 118.128  0.00  0.00    -0.241 OA
ENDBRANCH   3  22
TORSDOF 7
ENDMDL
MODEL 7
REMARK VINA RESULT:      -4.5     17.542     20.020
REMARK  7 active torsions:
REMARK  status: ('A' for Active; 'I' for Inactive)
REMARK    1  A    between atoms: C_2  and  C_3 
REMARK    2  A    between atoms: C_3  and  O_6 
REMARK    3  A    between atoms: C_3  and  C_4 
REMARK    4  A    between atoms: C_7  and  O_6 
REMARK    5  A    between atoms: C_9  and  C_10 
REMARK    6  A    between atoms: N_15  and  C_14 
REMARK    7  A    between atoms: N_20  and  C_19 
REMARK       I    between atoms: C_22  and  N_20 
ROOT
ATOM      1  C   LIG d   1     -23.721  83.843 113.995  0.00  0.00     0.161 C 
ATOM      2  C   LIG d   1     -22.763  84.851 114.194  0.00  0.00     0.016 C 
ATOM      3  C   LIG d   1     -23.055  86.231 114.107  0.00  0.00     0.038 C 
ATOM      4  C   LIG d   1     -24.369  86.703 113.963  0.00  0.00     0.028 C 
ATOM      5  C   LIG d   1     -25.293  85.718 113.256  0.00  0.00    -0.047 C 
ATOM      6  C   LIG d   1     -25.182  84.340 113.948  0.00  0.00     0.091 C 
ENDROOT
BRANCH   1   7
ATOM      7  O   LIG d   1     -23.572  82.822 115.001  0.00  0.00    -0.368 OA
BRANCH   7   8
ATOM      8  C   LIG d   1     -24.390  82.971 116.188  0.00  0.00     0.119 C 
BRANCH   8   9
ATOM      9  C   LIG d   1     -23.442  83.251 117.370  0.00  0.00     0.028 C 
ATOM     10  C   LIG d   1     -22.053  82.621 117.171  0.00  0.00     0.006 C 
ENDBRANCH   8   9
BRANCH   8  11
ATOM     11  C   LIG d   1     -25.104  81.664 116.541  0.00  0.00     0.028 C 
ATOM     12  C   LIG d   1     -24.814  80.536 115.538  0.00  0.00     0.006 C 
ENDBRANCH   8  11
ENDBRANCH   7   8
ENDBRANCH   1   7
BRANCH   6  13
ATOM     13  N   LIG d   1     -25.990  83.296 113.265  0.00  0.00    -0.311 N 
ATOM     14  C   LIG d   1     -27.210  82.938 113.662  0.00  0.00     0.210 C 
ATOM     15  C   LIG d   1     -27.860  81.828 112.830  0.00  0.00     0.109 C 
ATOM     16  O   LIG d   1     -27.829  83.457 114.603  0.00  0.00    -0.276 OA
ATOM     17  H   LIG d   1     -25.577  82.845 112.473  0.00  0.00     0.149 HD
ENDBRANCH   6  13
BRANCH   5  18
ATOM     18  N   LIG d   1     -26.657  86.277 113.297  0.00  0.00     0.381 N 
ATOM     19  H   LIG d   1     -27.323  85.538 113.396  0.00  0.00    -0.090 HD
ATOM     20  H   LIG d   1     -26.839  86.753 112.431  0.00  0.00    -0.090 HD
ATOM     21  H   LIG d   1     -26.741  86.914 114.059  0.00  0.00    -0.090 HD
ENDBRANCH   5  18
BRANCH   3  22
ATOM     22  C   LIG d   1     -22.022  87.155 114.124  0.00  0.00     0.382 C 
ATOM     23  O   LIG d   1     -20.915  86.867 113.608  0.00  0.00    -0.241 OA
ATOM     24  O   LIG d   1     -22.168  88.257 114.687  0.00  0.00    -0.241 OA
ENDBRANCH   3  22
TORSDOF 7
ENDMDL
MODEL 8
REMARK VINA RESULT:      -4.5      1.841      2.405
REMARK  7 active torsions:
REMARK  status: ('A' for Active; 'I' for Inactive)
REMARK    1  A    between atoms: C_2  and  C_3 
REMARK    2  A    between atoms: C_3  and  O_6 
REMARK    3  A    between atoms: C_3  and  C_4 
REMARK    4  A    between atoms: C_7  and  O_6 
REMARK    5  A    between atoms: C_9  and  C_10 
REMARK    6  A    between atoms: N_15  and  C_14 
REMARK    7  A    between atoms: N_20  and  C_19 
REMARK       I    between atoms: C_22  and  N_20 
ROOT
ATOM      1  C   LIG d   1      -5.763  77.069 118.050  0.00  0.00     0.161 C 
ATOM      2  C   LIG d   1      -6.526  78.243 117.942  0.00  0.00     0.016 C 
ATOM      3  C   LIG d   1      -6.033  79.443 117.380  0.00  0.00     0.038 C 
ATOM      4  C   LIG d   1      -4.783  79.506 116.746  0.00  0.00     0.028 C 
ATOM      5  C   LIG d   1      -3.782  78.486 117.278  0.00  0.00    -0.047 C 
ATOM      6  C   LIG d   1      -4.436  77.085 117.263  0.00  0.00     0.091 C 
ENDROOT
BRANCH   1   7
ATOM      7  O   LIG d   1      -6.560  75.931 117.664  0.00  0.00    -0.368 OA
BRANCH   7   8
ATOM      8  C   LIG d   1      -6.931  75.858 116.266  0.00  0.00     0.119 C 
BRANCH   8   9
ATOM      9  C   LIG d   1      -8.464  75.710 116.201  0.00  0.00     0.028 C 
ATOM     10  C   LIG d   1      -8.973  74.514 117.023  0.00  0.00     0.006 C 
ENDBRANCH   8   9
BRANCH   8  11
ATOM     11  C   LIG d   1      -6.373  74.593 115.607  0.00  0.00     0.028 C 
ATOM     12  C   LIG d   1      -5.627  74.884 114.295  0.00  0.00     0.006 C 
ENDBRANCH   8  11
ENDBRANCH   7   8
ENDBRANCH   1   7
BRANCH   6  13
ATOM     13  N   LIG d   1      -3.554  76.042 117.847  0.00  0.00    -0.311 N 
ATOM     14  C   LIG d   1      -2.721  75.296 117.122  0.00  0.00     0.210 C 
ATOM     15  C   LIG d   1      -1.917  74.265 117.919  0.00  0.00     0.109 C 
ATOM     16  O   LIG d   1      -2.549  75.413 115.900  0.00  0.00    -0.276 OA
ATOM     17  H   LIG d   1      -3.606  75.901 118.837  0.00  0.00     0.149 HD
ENDBRANCH   6  13
BRANCH   5  18
ATOM     18  N   LIG d   1      -2.572  78.569 116.438  0.00  0.00     0.381 N 
ATOM     19  H   LIG d   1      -2.588  79.414 115.904  0.00  0.00    -0.090 HD
ATOM     20  H   LIG d   1      -2.566  77.792 115.800  0.00  0.00    -0.090 HD
ATOM     21  H   LIG d   1      -1.757  78.544 117.011  0.00  0.00    -0.090 HD
ENDBRANCH   5  18
BRANCH   3  22
ATOM     22  C   LIG d   1      -6.778  80.608 117.485  0.00  0.00     0.382 C 
ATOM     23  O   LIG d   1      -6.348  81.567 118.170  0.00  0.00    -0.241 OA
ATOM     24  O   LIG d   1      -7.894  80.696 116.940  0.00  0.00    -0.241 OA
ENDBRANCH   3  22
TORSDOF 7
ENDMDL
MODEL 9
REMARK VINA RESULT:      -4.4     12.672     14.791
REMARK  7 active torsions:
REMARK  status: ('A' for Active; 'I' for Inactive)
REMARK    1  A    between atoms: C_2  and  C_3 
REMARK    2  A    between atoms: C_3  and  O_6 
REMARK    3  A    between atoms: C_3  and  C_4 
REMARK    4  A    between atoms: C_7  and  O_6 
REMARK    5  A    between atoms: C_9  and  C_10 
REMARK    6  A    between atoms: N_15  and  C_14 
REMARK    7  A    between atoms: N_20  and  C_19 
REMARK       I    between atoms: C_22  and  N_20 
ROOT
ATOM      1  C   LIG d   1       2.314  86.924 115.143  0.00  0.00     0.161 C 
ATOM      2  C   LIG d   1       2.859  88.032 114.473  0.00  0.00     0.016 C 
ATOM      3  C   LIG d   1       4.220  88.125 114.103  0.00  0.00     0.038 C 
ATOM      4  C   LIG d   1       5.103  87.044 114.244  0.00  0.00     0.028 C 
ATOM      5  C   LIG d   1       4.720  86.093 115.372  0.00  0.00    -0.047 C 
ATOM      6  C   LIG d   1       3.237  85.689 115.206  0.00  0.00     0.091 C 
ENDROOT
BRANCH   1   7
ATOM      7  O   LIG d   1       1.046  86.572 114.556  0.00  0.00    -0.368 OA
BRANCH   7   8
ATOM      8  C   LIG d   1       1.072  85.510 113.570  0.00  0.00     0.119 C 
BRANCH   8   9
ATOM      9  C   LIG d   1       0.976  86.167 112.179  0.00  0.00     0.028 C 
ATOM     10  C   LIG d   1      -0.469  86.539 111.805  0.00  0.00     0.006 C 
ENDBRANCH   8   9
BRANCH   8  11
ATOM     11  C   LIG d   1      -0.165  84.615 113.683  0.00  0.00     0.028 C 
ATOM     12  C   LIG d   1      -0.703  84.520 115.119  0.00  0.00     0.006 C 
ENDBRANCH   8  11
ENDBRANCH   7   8
ENDBRANCH   1   7
BRANCH   6  13
ATOM     13  N   LIG d   1       2.757  84.825 116.317  0.00  0.00    -0.311 N 
ATOM     14  C   LIG d   1       2.734  83.495 116.253  0.00  0.00     0.210 C 
ATOM     15  C   LIG d   1       2.183  82.798 117.501  0.00  0.00     0.109 C 
ATOM     16  O   LIG d   1       3.149  82.825 115.295  0.00  0.00    -0.276 OA
ATOM     17  H   LIG d   1       2.432  85.285 117.144  0.00  0.00     0.149 HD
ENDBRANCH   6  13
BRANCH   5  18
ATOM     18  N   LIG d   1       5.642  84.943 115.318  0.00  0.00     0.381 N 
ATOM     19  H   LIG d   1       6.412  85.154 114.715  0.00  0.00    -0.090 HD
ATOM     20  H   LIG d   1       5.152  84.151 114.939  0.00  0.00    -0.090 HD
ATOM     21  H   LIG d   1       5.975  84.729 116.232  0.00  0.00    -0.090 HD
ENDBRANCH   5  18
BRANCH   3  22
ATOM     22  C   LIG d   1       4.720  89.325 113.620  0.00  0.00     0.382 C 
ATOM     23  O   LIG d   1       5.958  89.480 113.487  0.00  0.00    -0.241 OA
ATOM     24  O   LIG d   1       3.952  90.271 113.360  0.00  0.00    -0.241 OA
ENDBRANCH   3  22
TORSDOF 7
ENDMDL
