MODEL 1
REMARK VINA RESULT:      -5.7      0.000      0.000
REMARK  7 active torsions:
REMARK  status: ('A' for Active; 'I' for Inactive)
REMARK    1  A    between atoms: C_2  and  C_3 
REMARK    2  A    between atoms: C_3  and  O_6 
REMARK    3  A    between atoms: C_3  and  C_4 
REMARK    4  A    between atoms: C_7  and  O_6 
REMARK    5  A    between atoms: C_9  and  C_10 
REMARK    6  A    between atoms: N_15  and  C_14 
REMARK    7  A    between atoms: N_20  and  C_19 
REMARK       I    between atoms: C_22  and  N_20 
ROOT
ATOM      1  C   LIG d   1      -5.944  74.746 116.185  0.00  0.00     0.161 C 
ATOM      2  C   LIG d   1      -6.646  73.534 116.074  0.00  0.00     0.016 C 
ATOM      3  C   LIG d   1      -7.874  73.283 116.727  0.00  0.00     0.038 C 
ATOM      4  C   LIG d   1      -8.564  74.289 117.420  0.00  0.00     0.028 C 
ATOM      5  C   LIG d   1      -7.652  75.375 117.979  0.00  0.00    -0.047 C 
ATOM      6  C   LIG d   1      -6.736  75.893 116.846  0.00  0.00     0.091 C 
ENDROOT
BRANCH   1   7
ATOM      7  O   LIG d   1      -5.462  75.152 114.888  0.00  0.00    -0.368 OA
BRANCH   7   8
ATOM      8  C   LIG d   1      -4.023  75.199 114.730  0.00  0.00     0.119 C 
BRANCH   8   9
ATOM      9  C   LIG d   1      -3.397  74.573 115.991  0.00  0.00     0.028 C 
ATOM     10  C   LIG d   1      -1.864  74.487 115.905  0.00  0.00     0.006 C 
ENDBRANCH   8   9
BRANCH   8  11
ATOM     11  C   LIG d   1      -3.513  76.643 114.698  0.00  0.00     0.028 C 
ATOM     12  C   LIG d   1      -3.067  77.086 113.296  0.00  0.00     0.006 C 
ENDBRANCH   8  11
ENDBRANCH   7   8
ENDBRANCH   1   7
BRANCH   6  13
ATOM     13  N   LIG d   1      -5.754  76.900 117.326  0.00  0.00    -0.311 N 
ATOM     14  C   LIG d   1      -5.911  78.212 117.167  0.00  0.00     0.210 C 
ATOM     15  C   LIG d   1      -4.770  79.072 117.718  0.00  0.00     0.109 C 
ATOM     16  O   LIG d   1      -6.903  78.748 116.649  0.00  0.00    -0.276 OA
ATOM     17  H   LIG d   1      -4.934  76.554 117.785  0.00  0.00     0.149 HD
ENDBRANCH   6  13
BRANCH   5  18
ATOM     18  N   LIG d   1      -8.511  76.427 118.554  0.00  0.00     0.381 N 
ATOM     19  H   LIG d   1      -9.457  76.105 118.599  0.00  0.00    -0.090 HD
ATOM     20  H   LIG d   1      -8.481  77.234 117.957  0.00  0.00    -0.090 HD
ATOM     21  H   LIG d   1      -8.190  76.668 119.466  0.00  0.00    -0.090 HD
ENDBRANCH   5  18
BRANCH   3  22
ATOM     22  C   LIG d   1      -8.405  72.002 116.725  0.00  0.00     0.382 C 
ATOM     23  O   LIG d   1      -9.620  71.826 116.986  0.00  0.00    -0.241 OA
ATOM     24  O   LIG d   1      -7.675  71.016 116.508  0.00  0.00    -0.241 OA
ENDBRANCH   3  22
TORSDOF 7
ENDMDL
MODEL 2
REMARK VINA RESULT:      -5.5      3.708      7.338
REMARK  7 active torsions:
REMARK  status: ('A' for Active; 'I' for Inactive)
REMARK    1  A    between atoms: C_2  and  C_3 
REMARK    2  A    between atoms: C_3  and  O_6 
REMARK    3  A    between atoms: C_3  and  C_4 
REMARK    4  A    between atoms: C_7  and  O_6 
REMARK    5  A    between atoms: C_9  and  C_10 
REMARK    6  A    between atoms: N_15  and  C_14 
REMARK    7  A    between atoms: N_20  and  C_19 
REMARK       I    between atoms: C_22  and  N_20 
ROOT
ATOM      1  C   LIG d   1      -2.629  77.574 115.787  0.00  0.00     0.161 C 
ATOM      2  C   LIG d   1      -2.861  78.686 114.960  0.00  0.00     0.016 C 
ATOM      3  C   LIG d   1      -2.116  78.954 113.789  0.00  0.00     0.038 C 
ATOM      4  C   LIG d   1      -1.182  78.039 113.279  0.00  0.00     0.028 C 
ATOM      5  C   LIG d   1      -0.560  77.149 114.350  0.00  0.00    -0.047 C 
ATOM      6  C   LIG d   1      -1.689  76.507 115.187  0.00  0.00     0.091 C 
ENDROOT
BRANCH   1   7
ATOM      7  O   LIG d   1      -3.885  76.978 116.167  0.00  0.00    -0.368 OA
BRANCH   7   8
ATOM      8  C   LIG d   1      -4.571  76.224 115.138  0.00  0.00     0.119 C 
BRANCH   8   9
ATOM      9  C   LIG d   1      -6.061  76.615 115.193  0.00  0.00     0.028 C 
ATOM     10  C   LIG d   1      -6.389  77.509 116.400  0.00  0.00     0.006 C 
ENDBRANCH   8   9
BRANCH   8  11
ATOM     11  C   LIG d   1      -4.535  74.721 115.430  0.00  0.00     0.028 C 
ATOM     12  C   LIG d   1      -5.921  74.063 115.341  0.00  0.00     0.006 C 
ENDBRANCH   8  11
ENDBRANCH   7   8
ENDBRANCH   1   7
BRANCH   6  13
ATOM     13  N   LIG d   1      -1.166  75.687 116.310  0.00  0.00    -0.311 N 
ATOM     14  C   LIG d   1      -0.931  74.379 116.215  0.00  0.00     0.210 C 
ATOM     15  C   LIG d   1      -0.412  73.721 117.498  0.00  0.00     0.109 C 
ATOM     16  O   LIG d   1      -1.073  73.708 115.182  0.00  0.00    -0.276 OA
ATOM     17  H   LIG d   1      -0.993  76.157 117.177  0.00  0.00     0.149 HD
ENDBRANCH   6  13
BRANCH   5  18
ATOM     18  N   LIG d   1       0.288  76.155 113.665  0.00  0.00     0.381 N 
ATOM     19  H   LIG d   1       0.748  76.582 112.885  0.00  0.00    -0.090 HD
ATOM     20  H   LIG d   1      -0.295  75.413 113.320  0.00  0.00    -0.090 HD
ATOM     21  H   LIG d   1       0.964  75.789 114.299  0.00  0.00    -0.090 HD
ENDBRANCH   5  18
BRANCH   3  22
ATOM     22  C   LIG d   1      -2.274  80.167 113.136  0.00  0.00     0.382 C 
ATOM     23  O   LIG d   1      -1.269  80.864 112.856  0.00  0.00    -0.241 OA
ATOM     24  O   LIG d   1      -3.412  80.593 112.862  0.00  0.00    -0.241 OA
ENDBRANCH   3  22
TORSDOF 7
ENDMDL
MODEL 3
REMARK VINA RESULT:      -4.9      3.503      6.048
REMARK  7 active torsions:
REMARK  status: ('A' for Active; 'I' for Inactive)
REMARK    1  A    between atoms: C_2  and  C_3 
REMARK    2  A    between atoms: C_3  and  O_6 
REMARK    3  A    between atoms: C_3  and  C_4 
REMARK    4  A    between atoms: C_7  and  O_6 
REMARK    5  A    between atoms: C_9  and  C_10 
REMARK    6  A    between atoms: N_15  and  C_14 
REMARK    7  A    between atoms: N_20  and  C_19 
REMARK       I    between atoms: C_22  and  N_20 
ROOT
ATOM      1  C   LIG d   1      -2.855  75.432 115.458  0.00  0.00     0.161 C 
ATOM      2  C   LIG d   1      -2.532  74.632 116.567  0.00  0.00     0.016 C 
ATOM      3  C   LIG d   1      -1.251  74.613 117.165  0.00  0.00     0.038 C 
ATOM      4  C   LIG d   1      -0.242  75.510 116.786  0.00  0.00     0.028 C 
ATOM      5  C   LIG d   1      -0.362  75.983 115.341  0.00  0.00    -0.047 C 
ATOM      6  C   LIG d   1      -1.799  76.499 115.101  0.00  0.00     0.091 C 
ENDROOT
BRANCH   1   7
ATOM      7  O   LIG d   1      -4.142  76.048 115.659  0.00  0.00    -0.368 OA
BRANCH   7   8
ATOM      8  C   LIG d   1      -5.187  75.657 114.734  0.00  0.00     0.119 C 
BRANCH   8   9
ATOM      9  C   LIG d   1      -6.491  76.338 115.193  0.00  0.00     0.028 C 
ATOM     10  C   LIG d   1      -6.254  77.359 116.319  0.00  0.00     0.006 C 
ENDBRANCH   8   9
BRANCH   8  11
ATOM     11  C   LIG d   1      -5.466  74.153 114.813  0.00  0.00     0.028 C 
ATOM     12  C   LIG d   1      -6.505  73.795 115.887  0.00  0.00     0.006 C 
ENDBRANCH   8  11
ENDBRANCH   7   8
ENDBRANCH   1   7
BRANCH   6  13
ATOM     13  N   LIG d   1      -2.028  76.902 113.689  0.00  0.00    -0.311 N 
ATOM     14  C   LIG d   1      -2.684  78.007 113.339  0.00  0.00     0.210 C 
ATOM     15  C   LIG d   1      -2.825  78.225 111.829  0.00  0.00     0.109 C 
ATOM     16  O   LIG d   1      -3.135  78.844 114.135  0.00  0.00    -0.276 OA
ATOM     17  H   LIG d   1      -1.668  76.297 112.977  0.00  0.00     0.149 HD
ENDBRANCH   6  13
BRANCH   5  18
ATOM     18  N   LIG d   1       0.668  77.016 115.123  0.00  0.00     0.381 N 
ATOM     19  H   LIG d   1       0.826  77.521 115.971  0.00  0.00    -0.090 HD
ATOM     20  H   LIG d   1       0.337  77.662 114.428  0.00  0.00    -0.090 HD
ATOM     21  H   LIG d   1       1.516  76.592 114.816  0.00  0.00    -0.090 HD
ENDBRANCH   5  18
BRANCH   3  22
ATOM     22  C   LIG d   1      -0.957  73.660 118.129  0.00  0.00     0.382 C 
ATOM     23  O   LIG d   1       0.219  73.535 118.548  0.00  0.00    -0.241 OA
ATOM     24  O   LIG d   1      -1.844  72.894 118.551  0.00  0.00    -0.241 OA
ENDBRANCH   3  22
TORSDOF 7
ENDMDL
MODEL 4
REMARK VINA RESULT:      -4.8     13.283     15.341
REMARK  7 active torsions:
REMARK  status: ('A' for Active; 'I' for Inactive)
REMARK    1  A    between atoms: C_2  and  C_3 
REMARK    2  A    between atoms: C_3  and  O_6 
REMARK    3  A    between atoms: C_3  and  C_4 
REMARK    4  A    between atoms: C_7  and  O_6 
REMARK    5  A    between atoms: C_9  and  C_10 
REMARK    6  A    between atoms: N_15  and  C_14 
REMARK    7  A    between atoms: N_20  and  C_19 
REMARK       I    between atoms: C_22  and  N_20 
ROOT
ATOM      1  C   LIG d   1       2.490  87.028 115.084  0.00  0.00     0.161 C 
ATOM      2  C   LIG d   1       1.441  86.601 115.916  0.00  0.00     0.016 C 
ATOM      3  C   LIG d   1       0.942  87.366 116.995  0.00  0.00     0.038 C 
ATOM      4  C   LIG d   1       1.361  88.685 117.224  0.00  0.00     0.028 C 
ATOM      5  C   LIG d   1       2.773  88.969 116.723  0.00  0.00    -0.047 C 
ATOM      6  C   LIG d   1       2.883  88.511 115.250  0.00  0.00     0.091 C 
ENDROOT
BRANCH   1   7
ATOM      7  O   LIG d   1       2.168  86.746 113.708  0.00  0.00    -0.368 OA
BRANCH   7   8
ATOM      8  C   LIG d   1       2.385  85.383 113.269  0.00  0.00     0.119 C 
BRANCH   8   9
ATOM      9  C   LIG d   1       3.858  85.266 112.831  0.00  0.00     0.028 C 
ATOM     10  C   LIG d   1       4.252  86.343 111.806  0.00  0.00     0.006 C 
ENDBRANCH   8   9
BRANCH   8  11
ATOM     11  C   LIG d   1       1.563  85.063 112.017  0.00  0.00     0.028 C 
ATOM     12  C   LIG d   1       0.048  85.101 112.273  0.00  0.00     0.006 C 
ENDBRANCH   8  11
ENDBRANCH   7   8
ENDBRANCH   1   7
BRANCH   6  13
ATOM     13  N   LIG d   1       4.257  88.675 114.707  0.00  0.00    -0.311 N 
ATOM     14  C   LIG d   1       4.549  89.472 113.681  0.00  0.00     0.210 C 
ATOM     15  C   LIG d   1       6.024  89.480 113.268  0.00  0.00     0.109 C 
ATOM     16  O   LIG d   1       3.732  90.199 113.095  0.00  0.00    -0.276 OA
ATOM     17  H   LIG d   1       4.986  88.147 115.144  0.00  0.00     0.149 HD
ENDBRANCH   6  13
BRANCH   5  18
ATOM     18  N   LIG d   1       3.028  90.411 116.901  0.00  0.00     0.381 N 
ATOM     19  H   LIG d   1       3.565  90.560 117.731  0.00  0.00    -0.090 HD
ATOM     20  H   LIG d   1       2.148  90.886 117.005  0.00  0.00    -0.090 HD
ATOM     21  H   LIG d   1       3.516  90.770 116.111  0.00  0.00    -0.090 HD
ENDBRANCH   5  18
BRANCH   3  22
ATOM     22  C   LIG d   1       0.043  86.796 117.883  0.00  0.00     0.382 C 
ATOM     23  O   LIG d   1       0.215  85.619 118.281  0.00  0.00    -0.241 OA
ATOM     24  O   LIG d   1      -0.963  87.429 118.257  0.00  0.00    -0.241 OA
ENDBRANCH   3  22
TORSDOF 7
ENDMDL
MODEL 5
REMARK VINA RESULT:      -4.8     15.176     17.502
REMARK  7 active torsions:
REMARK  status: ('A' for Active; 'I' for Inactive)
REMARK    1  A    between atoms: C_2  and  C_3 
REMARK    2  A    between atoms: C_3  and  O_6 
REMARK    3  A    between atoms: C_3  and  C_4 
REMARK    4  A    between atoms: C_7  and  O_6 
REMARK    5  A    between atoms: C_9  and  C_10 
REMARK    6  A    between atoms: N_15  and  C_14 
REMARK    7  A    between atoms: N_20  and  C_19 
REMARK       I    between atoms: C_22  and  N_20 
ROOT
ATOM      1  C   LIG d   1       4.382  88.210 115.889  0.00  0.00     0.161 C 
ATOM      2  C   LIG d   1       3.461  88.074 114.837  0.00  0.00     0.016 C 
ATOM      3  C   LIG d   1       3.752  88.421 113.497  0.00  0.00     0.038 C 
ATOM      4  C   LIG d   1       5.044  88.787 113.091  0.00  0.00     0.028 C 
ATOM      5  C   LIG d   1       5.872  89.422 114.203  0.00  0.00    -0.047 C 
ATOM      6  C   LIG d   1       5.831  88.503 115.446  0.00  0.00     0.091 C 
ENDROOT
BRANCH   1   7
ATOM      7  O   LIG d   1       4.342  87.038 116.727  0.00  0.00    -0.368 OA
BRANCH   7   8
ATOM      8  C   LIG d   1       5.194  85.938 116.326  0.00  0.00     0.119 C 
BRANCH   8   9
ATOM      9  C   LIG d   1       4.281  84.739 116.004  0.00  0.00     0.028 C 
ATOM     10  C   LIG d   1       4.218  84.438 114.497  0.00  0.00     0.006 C 
ENDBRANCH   8   9
BRANCH   8  11
ATOM     11  C   LIG d   1       6.083  85.471 117.482  0.00  0.00     0.028 C 
ATOM     12  C   LIG d   1       7.314  84.683 117.007  0.00  0.00     0.006 C 
ENDBRANCH   8  11
ENDBRANCH   7   8
ENDBRANCH   1   7
BRANCH   6  13
ATOM     13  N   LIG d   1       6.546  89.090 116.608  0.00  0.00    -0.311 N 
ATOM     14  C   LIG d   1       7.788  88.752 116.952  0.00  0.00     0.210 C 
ATOM     15  C   LIG d   1       8.331  89.462 118.196  0.00  0.00     0.109 C 
ATOM     16  O   LIG d   1       8.503  87.955 116.325  0.00  0.00    -0.276 OA
ATOM     17  H   LIG d   1       6.051  89.768 117.154  0.00  0.00     0.149 HD
ENDBRANCH   6  13
BRANCH   5  18
ATOM     18  N   LIG d   1       7.236  89.628 113.681  0.00  0.00     0.381 N 
ATOM     19  H   LIG d   1       7.849  88.929 114.050  0.00  0.00    -0.090 HD
ATOM     20  H   LIG d   1       7.566  90.528 113.982  0.00  0.00    -0.090 HD
ATOM     21  H   LIG d   1       7.230  89.583 112.686  0.00  0.00    -0.090 HD
ENDBRANCH   5  18
BRANCH   3  22
ATOM     22  C   LIG d   1       2.734  88.440 112.556  0.00  0.00     0.382 C 
ATOM     23  O   LIG d   1       1.964  89.428 112.485  0.00  0.00    -0.241 OA
ATOM     24  O   LIG d   1       2.549  87.464 111.805  0.00  0.00    -0.241 OA
ENDBRANCH   3  22
TORSDOF 7
ENDMDL
MODEL 6
REMARK VINA RESULT:      -4.8     13.292     15.719
REMARK  7 active torsions:
REMARK  status: ('A' for Active; 'I' for Inactive)
REMARK    1  A    between atoms: C_2  and  C_3 
REMARK    2  A    between atoms: C_3  and  O_6 
REMARK    3  A    between atoms: C_3  and  C_4 
REMARK    4  A    between atoms: C_7  and  O_6 
REMARK    5  A    between atoms: C_9  and  C_10 
REMARK    6  A    between atoms: N_15  and  C_14 
REMARK    7  A    between atoms: N_20  and  C_19 
REMARK       I    between atoms: C_22  and  N_20 
ROOT
ATOM      1  C   LIG d   1       3.534  86.033 113.923  0.00  0.00     0.161 C 
ATOM      2  C   LIG d   1       3.540  87.403 113.610  0.00  0.00     0.016 C 
ATOM      3  C   LIG d   1       4.136  88.386 114.433  0.00  0.00     0.038 C 
ATOM      4  C   LIG d   1       4.904  88.047 115.557  0.00  0.00     0.028 C 
ATOM      5  C   LIG d   1       4.500  86.718 116.187  0.00  0.00    -0.047 C 
ATOM      6  C   LIG d   1       4.463  85.632 115.088  0.00  0.00     0.091 C 
ENDROOT
BRANCH   1   7
ATOM      7  O   LIG d   1       3.845  85.262 112.746  0.00  0.00    -0.368 OA
BRANCH   7   8
ATOM      8  C   LIG d   1       2.781  84.421 112.236  0.00  0.00     0.119 C 
BRANCH   8   9
ATOM      9  C   LIG d   1       1.535  84.669 113.109  0.00  0.00     0.028 C 
ATOM     10  C   LIG d   1       0.277  84.951 112.270  0.00  0.00     0.006 C 
ENDBRANCH   8   9
BRANCH   8  11
ATOM     11  C   LIG d   1       3.110  82.936 112.412  0.00  0.00     0.028 C 
ATOM     12  C   LIG d   1       4.620  82.651 112.366  0.00  0.00     0.006 C 
ENDBRANCH   8  11
ENDBRANCH   7   8
ENDBRANCH   1   7
BRANCH   6  13
ATOM     13  N   LIG d   1       3.995  84.319 115.605  0.00  0.00    -0.311 N 
ATOM     14  C   LIG d   1       4.819  83.356 116.012  0.00  0.00     0.210 C 
ATOM     15  C   LIG d   1       4.130  82.073 116.488  0.00  0.00     0.109 C 
ATOM     16  O   LIG d   1       6.055  83.453 116.053  0.00  0.00    -0.276 OA
ATOM     17  H   LIG d   1       3.006  84.167 115.635  0.00  0.00     0.149 HD
ENDBRANCH   6  13
BRANCH   5  18
ATOM     18  N   LIG d   1       5.468  86.422 117.260  0.00  0.00     0.381 N 
ATOM     19  H   LIG d   1       6.133  87.166 117.332  0.00  0.00    -0.090 HD
ATOM     20  H   LIG d   1       5.963  85.579 117.028  0.00  0.00    -0.090 HD
ATOM     21  H   LIG d   1       4.991  86.308 118.128  0.00  0.00    -0.090 HD
ENDBRANCH   5  18
BRANCH   3  22
ATOM     22  C   LIG d   1       3.933  89.730 114.155  0.00  0.00     0.382 C 
ATOM     23  O   LIG d   1       3.677  90.530 115.086  0.00  0.00    -0.241 OA
ATOM     24  O   LIG d   1       3.959  90.143 112.980  0.00  0.00    -0.241 OA
ENDBRANCH   3  22
TORSDOF 7
ENDMDL
MODEL 7
REMARK VINA RESULT:      -4.5     12.862     16.568
REMARK  7 active torsions:
REMARK  status: ('A' for Active; 'I' for Inactive)
REMARK    1  A    between atoms: C_2  and  C_3 
REMARK    2  A    between atoms: C_3  and  O_6 
REMARK    3  A    between atoms: C_3  and  C_4 
REMARK    4  A    between atoms: C_7  and  O_6 
REMARK    5  A    between atoms: C_9  and  C_10 
REMARK    6  A    between atoms: N_15  and  C_14 
REMARK    7  A    between atoms: N_20  and  C_19 
REMARK       I    between atoms: C_22  and  N_20 
ROOT
ATOM      1  C   LIG d   1     -17.672  64.379 116.240  0.00  0.00     0.161 C 
ATOM      2  C   LIG d   1     -16.840  65.353 116.819  0.00  0.00     0.016 C 
ATOM      3  C   LIG d   1     -15.824  66.031 116.107  0.00  0.00     0.038 C 
ATOM      4  C   LIG d   1     -15.670  65.889 114.720  0.00  0.00     0.028 C 
ATOM      5  C   LIG d   1     -16.156  64.544 114.190  0.00  0.00    -0.047 C 
ATOM      6  C   LIG d   1     -17.592  64.292 114.702  0.00  0.00     0.091 C 
ENDROOT
BRANCH   1   7
ATOM      7  O   LIG d   1     -19.035  64.589 116.660  0.00  0.00    -0.368 OA
BRANCH   7   8
ATOM      8  C   LIG d   1     -19.725  65.708 116.050  0.00  0.00     0.119 C 
BRANCH   8   9
ATOM      9  C   LIG d   1     -20.381  66.521 117.184  0.00  0.00     0.028 C 
ATOM     10  C   LIG d   1     -19.561  67.765 117.563  0.00  0.00     0.006 C 
ENDBRANCH   8   9
BRANCH   8  11
ATOM     11  C   LIG d   1     -20.883  65.234 115.168  0.00  0.00     0.028 C 
ATOM     12  C   LIG d   1     -21.060  66.092 113.905  0.00  0.00     0.006 C 
ENDBRANCH   8  11
ENDBRANCH   7   8
ENDBRANCH   1   7
BRANCH   6  13
ATOM     13  N   LIG d   1     -18.112  62.959 114.300  0.00  0.00    -0.311 N 
ATOM     14  C   LIG d   1     -18.836  62.756 113.200  0.00  0.00     0.210 C 
ATOM     15  C   LIG d   1     -19.288  61.308 112.982  0.00  0.00     0.109 C 
ATOM     16  O   LIG d   1     -19.118  63.630 112.368  0.00  0.00    -0.276 OA
ATOM     17  H   LIG d   1     -17.903  62.187 114.902  0.00  0.00     0.149 HD
ENDBRANCH   6  13
BRANCH   5  18
ATOM     18  N   LIG d   1     -16.065  64.585 112.719  0.00  0.00     0.381 N 
ATOM     19  H   LIG d   1     -15.338  63.971 112.407  0.00  0.00    -0.090 HD
ATOM     20  H   LIG d   1     -15.832  65.519 112.433  0.00  0.00    -0.090 HD
ATOM     21  H   LIG d   1     -16.934  64.313 112.316  0.00  0.00    -0.090 HD
ENDBRANCH   5  18
BRANCH   3  22
ATOM     22  C   LIG d   1     -14.923  66.832 116.791  0.00  0.00     0.382 C 
ATOM     23  O   LIG d   1     -13.701  66.547 116.786  0.00  0.00    -0.241 OA
ATOM     24  O   LIG d   1     -15.322  67.811 117.450  0.00  0.00    -0.241 OA
ENDBRANCH   3  22
TORSDOF 7
ENDMDL
MODEL 8
REMARK VINA RESULT:      -4.5     12.642     16.721
REMARK  7 active torsions:
REMARK  status: ('A' for Active; 'I' for Inactive)
REMARK    1  A    between atoms: C_2  and  C_3 
REMARK    2  A    between atoms: C_3  and  O_6 
REMARK    3  A    between atoms: C_3  and  C_4 
REMARK    4  A    between atoms: C_7  and  O_6 
REMARK    5  A    between atoms: C_9  and  C_10 
REMARK    6  A    between atoms: N_15  and  C_14 
REMARK    7  A    between atoms: N_20  and  C_19 
REMARK       I    between atoms: C_22  and  N_20 
ROOT
ATOM      1  C   LIG d   1     -16.187  63.674 116.950  0.00  0.00     0.161 C 
ATOM      2  C   LIG d   1     -15.688  64.964 117.197  0.00  0.00     0.016 C 
ATOM      3  C   LIG d   1     -15.415  65.902 116.175  0.00  0.00     0.038 C 
ATOM      4  C   LIG d   1     -15.767  65.665 114.838  0.00  0.00     0.028 C 
ATOM      5  C   LIG d   1     -15.807  64.184 114.475  0.00  0.00    -0.047 C 
ATOM      6  C   LIG d   1     -16.682  63.438 115.508  0.00  0.00     0.091 C 
ENDROOT
BRANCH   1   7
ATOM      7  O   LIG d   1     -17.231  63.365 117.895  0.00  0.00    -0.368 OA
BRANCH   7   8
ATOM      8  C   LIG d   1     -18.577  63.727 117.499  0.00  0.00     0.119 C 
BRANCH   8   9
ATOM      9  C   LIG d   1     -19.072  64.810 118.477  0.00  0.00     0.028 C 
ATOM     10  C   LIG d   1     -19.140  66.201 117.826  0.00  0.00     0.006 C 
ENDBRANCH   8   9
BRANCH   8  11
ATOM     11  C   LIG d   1     -19.543  62.551 117.672  0.00  0.00     0.028 C 
ATOM     12  C   LIG d   1     -18.848  61.278 118.181  0.00  0.00     0.006 C 
ENDBRANCH   8  11
ENDBRANCH   7   8
ENDBRANCH   1   7
BRANCH   6  13
ATOM     13  N   LIG d   1     -16.706  61.970 115.276  0.00  0.00    -0.311 N 
ATOM     14  C   LIG d   1     -17.673  61.350 114.602  0.00  0.00     0.210 C 
ATOM     15  C   LIG d   1     -17.515  59.830 114.495  0.00  0.00     0.109 C 
ATOM     16  O   LIG d   1     -18.630  61.918 114.055  0.00  0.00    -0.276 OA
ATOM     17  H   LIG d   1     -15.951  61.436 115.658  0.00  0.00     0.149 HD
ENDBRANCH   6  13
BRANCH   5  18
ATOM     18  N   LIG d   1     -16.320  64.077 113.097  0.00  0.00     0.381 N 
ATOM     19  H   LIG d   1     -17.047  64.749 112.953  0.00  0.00    -0.090 HD
ATOM     20  H   LIG d   1     -16.708  63.159 112.965  0.00  0.00    -0.090 HD
ATOM     21  H   LIG d   1     -15.582  64.230 112.445  0.00  0.00    -0.090 HD
ENDBRANCH   5  18
BRANCH   3  22
ATOM     22  C   LIG d   1     -14.746  67.077 116.482  0.00  0.00     0.382 C 
ATOM     23  O   LIG d   1     -13.547  67.038 116.849  0.00  0.00    -0.241 OA
ATOM     24  O   LIG d   1     -15.338  68.172 116.438  0.00  0.00    -0.241 OA
ENDBRANCH   3  22
TORSDOF 7
ENDMDL
MODEL 9
REMARK VINA RESULT:      -4.5     12.135     15.403
REMARK  7 active torsions:
REMARK  status: ('A' for Active; 'I' for Inactive)
REMARK    1  A    between atoms: C_2  and  C_3 
REMARK    2  A    between atoms: C_3  and  O_6 
REMARK    3  A    between atoms: C_3  and  C_4 
REMARK    4  A    between atoms: C_7  and  O_6 
REMARK    5  A    between atoms: C_9  and  C_10 
REMARK    6  A    between atoms: N_15  and  C_14 
REMARK    7  A    between atoms: N_20  and  C_19 
REMARK       I    between atoms: C_22  and  N_20 
ROOT
ATOM      1  C   LIG d   1       2.175  86.739 114.785  0.00  0.00     0.161 C 
ATOM      2  C   LIG d   1       2.816  87.626 113.904  0.00  0.00     0.016 C 
ATOM      3  C   LIG d   1       4.122  88.125 114.116  0.00  0.00     0.038 C 
ATOM      4  C   LIG d   1       4.938  87.650 115.153  0.00  0.00     0.028 C 
ATOM      5  C   LIG d   1       4.153  87.135 116.354  0.00  0.00    -0.047 C 
ATOM      6  C   LIG d   1       3.092  86.124 115.864  0.00  0.00     0.091 C 
ENDROOT
BRANCH   1   7
ATOM      7  O   LIG d   1       1.514  85.700 114.037  0.00  0.00    -0.368 OA
BRANCH   7   8
ATOM      8  C   LIG d   1       2.145  85.310 112.793  0.00  0.00     0.119 C 
BRANCH   8   9
ATOM      9  C   LIG d   1       1.024  84.929 111.805  0.00  0.00     0.028 C 
ATOM     10  C   LIG d   1      -0.353  85.445 112.253  0.00  0.00     0.006 C 
ENDBRANCH   8   9
BRANCH   8  11
ATOM     11  C   LIG d   1       2.982  84.040 112.966  0.00  0.00     0.028 C 
ATOM     12  C   LIG d   1       4.491  84.297 112.829  0.00  0.00     0.006 C 
ENDBRANCH   8  11
ENDBRANCH   7   8
ENDBRANCH   1   7
BRANCH   6  13
ATOM     13  N   LIG d   1       2.223  85.634 116.966  0.00  0.00    -0.311 N 
ATOM     14  C   LIG d   1       1.803  84.374 117.063  0.00  0.00     0.210 C 
ATOM     15  C   LIG d   1       0.899  84.085 118.266  0.00  0.00     0.109 C 
ATOM     16  O   LIG d   1       2.120  83.460 116.286  0.00  0.00    -0.276 OA
ATOM     17  H   LIG d   1       1.944  86.302 117.658  0.00  0.00     0.149 HD
ENDBRANCH   6  13
BRANCH   5  18
ATOM     18  N   LIG d   1       5.120  86.545 117.299  0.00  0.00     0.381 N 
ATOM     19  H   LIG d   1       6.053  86.756 117.006  0.00  0.00    -0.090 HD
ATOM     20  H   LIG d   1       5.008  85.546 117.299  0.00  0.00    -0.090 HD
ATOM     21  H   LIG d   1       4.963  86.903 118.216  0.00  0.00    -0.090 HD
ENDBRANCH   5  18
BRANCH   3  22
ATOM     22  C   LIG d   1       4.609  89.141 113.307  0.00  0.00     0.382 C 
ATOM     23  O   LIG d   1       5.815  89.142 112.960  0.00  0.00    -0.241 OA
ATOM     24  O   LIG d   1       3.869  90.079 112.957  0.00  0.00    -0.241 OA
ENDBRANCH   3  22
TORSDOF 7
ENDMDL
