MODEL 1
REMARK VINA RESULT:      -5.0      0.000      0.000
REMARK  7 active torsions:
REMARK  status: ('A' for Active; 'I' for Inactive)
REMARK    1  A    between atoms: C_2  and  C_3 
REMARK    2  A    between atoms: C_3  and  O_6 
REMARK    3  A    between atoms: C_3  and  C_4 
REMARK    4  A    between atoms: C_7  and  O_6 
REMARK    5  A    between atoms: C_9  and  C_10 
REMARK    6  A    between atoms: N_15  and  C_14 
REMARK    7  A    between atoms: N_20  and  C_19 
REMARK       I    between atoms: C_22  and  N_20 
ROOT
ATOM      1  C   LIG d   1      -4.404  76.414 117.922  0.00  0.00     0.161 C 
ATOM      2  C   LIG d   1      -5.575  77.169 117.746  0.00  0.00     0.016 C 
ATOM      3  C   LIG d   1      -5.575  78.515 117.312  0.00  0.00     0.038 C 
ATOM      4  C   LIG d   1      -4.404  79.154 116.877  0.00  0.00     0.028 C 
ATOM      5  C   LIG d   1      -3.137  78.595 117.515  0.00  0.00    -0.047 C 
ATOM      6  C   LIG d   1      -3.125  77.059 117.347  0.00  0.00     0.091 C 
ENDROOT
BRANCH   1   7
ATOM      7  O   LIG d   1      -4.588  75.093 117.377  0.00  0.00    -0.368 OA
BRANCH   7   8
ATOM      8  C   LIG d   1      -5.777  74.895 116.573  0.00  0.00     0.119 C 
BRANCH   8   9
ATOM      9  C   LIG d   1      -6.469  73.614 117.078  0.00  0.00     0.028 C 
ATOM     10  C   LIG d   1      -6.182  72.399 116.179  0.00  0.00     0.006 C 
ENDBRANCH   8   9
BRANCH   8  11
ATOM     11  C   LIG d   1      -5.420  74.614 115.110  0.00  0.00     0.028 C 
ATOM     12  C   LIG d   1      -5.661  75.825 114.195  0.00  0.00     0.006 C 
ENDBRANCH   8  11
ENDBRANCH   7   8
ENDBRANCH   1   7
BRANCH   6  13
ATOM     13  N   LIG d   1      -1.961  76.424 118.017  0.00  0.00    -0.311 N 
ATOM     14  C   LIG d   1      -0.812  76.159 117.395  0.00  0.00     0.210 C 
ATOM     15  C   LIG d   1       0.252  75.483 118.265  0.00  0.00     0.109 C 
ATOM     16  O   LIG d   1      -0.563  76.449 116.216  0.00  0.00    -0.276 OA
ATOM     17  H   LIG d   1      -2.065  76.184 118.983  0.00  0.00     0.149 HD
ENDBRANCH   6  13
BRANCH   5  18
ATOM     18  N   LIG d   1      -1.985  79.256 116.871  0.00  0.00     0.381 N 
ATOM     19  H   LIG d   1      -1.989  79.063 115.890  0.00  0.00    -0.090 HD
ATOM     20  H   LIG d   1      -1.137  78.885 117.263  0.00  0.00    -0.090 HD
ATOM     21  H   LIG d   1      -2.028  80.240 117.024  0.00  0.00    -0.090 HD
ENDBRANCH   5  18
BRANCH   3  22
ATOM     22  C   LIG d   1      -6.751  79.249 117.348  0.00  0.00     0.382 C 
ATOM     23  O   LIG d   1      -7.843  78.672 117.572  0.00  0.00    -0.241 OA
ATOM     24  O   LIG d   1      -6.740  80.472 117.116  0.00  0.00    -0.241 OA
ENDBRANCH   3  22
TORSDOF 7
ENDMDL
MODEL 2
REMARK VINA RESULT:      -4.6     12.520     16.321
REMARK  7 active torsions:
REMARK  status: ('A' for Active; 'I' for Inactive)
REMARK    1  A    between atoms: C_2  and  C_3 
REMARK    2  A    between atoms: C_3  and  O_6 
REMARK    3  A    between atoms: C_3  and  C_4 
REMARK    4  A    between atoms: C_7  and  O_6 
REMARK    5  A    between atoms: C_9  and  C_10 
REMARK    6  A    between atoms: N_15  and  C_14 
REMARK    7  A    between atoms: N_20  and  C_19 
REMARK       I    between atoms: C_22  and  N_20 
ROOT
ATOM      1  C   LIG d   1      10.944  78.122 114.527  0.00  0.00     0.161 C 
ATOM      2  C   LIG d   1       9.584  78.279 114.843  0.00  0.00     0.016 C 
ATOM      3  C   LIG d   1       8.753  77.212 115.255  0.00  0.00     0.038 C 
ATOM      4  C   LIG d   1       9.266  75.935 115.527  0.00  0.00     0.028 C 
ATOM      5  C   LIG d   1      10.531  75.610 114.739  0.00  0.00    -0.047 C 
ATOM      6  C   LIG d   1      11.547  76.759 114.925  0.00  0.00     0.091 C 
ENDROOT
BRANCH   1   7
ATOM      7  O   LIG d   1      11.707  79.197 115.110  0.00  0.00    -0.368 OA
BRANCH   7   8
ATOM      8  C   LIG d   1      12.174  80.217 114.192  0.00  0.00     0.119 C 
BRANCH   8   9
ATOM      9  C   LIG d   1      12.058  79.646 112.766  0.00  0.00     0.028 C 
ATOM     10  C   LIG d   1      11.327  80.602 111.809  0.00  0.00     0.006 C 
ENDBRANCH   8   9
BRANCH   8  11
ATOM     11  C   LIG d   1      13.665  80.507 114.393  0.00  0.00     0.028 C 
ATOM     12  C   LIG d   1      14.510  80.166 113.155  0.00  0.00     0.006 C 
ENDBRANCH   8  11
ENDBRANCH   7   8
ENDBRANCH   1   7
BRANCH   6  13
ATOM     13  N   LIG d   1      12.781  76.561 114.119  0.00  0.00    -0.311 N 
ATOM     14  C   LIG d   1      14.009  76.706 114.612  0.00  0.00     0.210 C 
ATOM     15  C   LIG d   1      15.141  76.475 113.606  0.00  0.00     0.109 C 
ATOM     16  O   LIG d   1      14.270  76.973 115.795  0.00  0.00    -0.276 OA
ATOM     17  H   LIG d   1      12.662  76.312 113.157  0.00  0.00     0.149 HD
ENDBRANCH   6  13
BRANCH   5  18
ATOM     18  N   LIG d   1      11.034  74.309 115.220  0.00  0.00     0.381 N 
ATOM     19  H   LIG d   1      12.001  74.212 114.984  0.00  0.00    -0.090 HD
ATOM     20  H   LIG d   1      10.522  73.574 114.765  0.00  0.00    -0.090 HD
ATOM     21  H   LIG d   1      10.918  74.243 116.207  0.00  0.00    -0.090 HD
ENDBRANCH   5  18
BRANCH   3  22
ATOM     22  C   LIG d   1       7.385  77.408 115.361  0.00  0.00     0.382 C 
ATOM     23  O   LIG d   1       6.751  76.902 116.319  0.00  0.00    -0.241 OA
ATOM     24  O   LIG d   1       6.768  78.046 114.487  0.00  0.00    -0.241 OA
ENDBRANCH   3  22
TORSDOF 7
ENDMDL
MODEL 3
REMARK VINA RESULT:      -4.6     10.008     12.011
REMARK  7 active torsions:
REMARK  status: ('A' for Active; 'I' for Inactive)
REMARK    1  A    between atoms: C_2  and  C_3 
REMARK    2  A    between atoms: C_3  and  O_6 
REMARK    3  A    between atoms: C_3  and  C_4 
REMARK    4  A    between atoms: C_7  and  O_6 
REMARK    5  A    between atoms: C_9  and  C_10 
REMARK    6  A    between atoms: N_15  and  C_14 
REMARK    7  A    between atoms: N_20  and  C_19 
REMARK       I    between atoms: C_22  and  N_20 
ROOT
ATOM      1  C   LIG d   1       2.618  85.253 113.436  0.00  0.00     0.161 C 
ATOM      2  C   LIG d   1       3.009  86.479 112.871  0.00  0.00     0.016 C 
ATOM      3  C   LIG d   1       3.976  87.331 113.454  0.00  0.00     0.038 C 
ATOM      4  C   LIG d   1       4.732  86.941 114.569  0.00  0.00     0.028 C 
ATOM      5  C   LIG d   1       4.017  85.933 115.463  0.00  0.00    -0.047 C 
ATOM      6  C   LIG d   1       3.512  84.760 114.592  0.00  0.00     0.091 C 
ENDROOT
BRANCH   1   7
ATOM      7  O   LIG d   1       2.530  84.248 112.407  0.00  0.00    -0.368 OA
BRANCH   7   8
ATOM      8  C   LIG d   1       1.202  83.971 111.898  0.00  0.00     0.119 C 
BRANCH   8   9
ATOM      9  C   LIG d   1       0.198  84.730 112.788  0.00  0.00     0.028 C 
ATOM     10  C   LIG d   1      -0.550  85.833 112.021  0.00  0.00     0.006 C 
ENDBRANCH   8   9
BRANCH   8  11
ATOM     11  C   LIG d   1       0.843  82.491 112.053  0.00  0.00     0.028 C 
ATOM     12  C   LIG d   1       2.040  81.630 112.487  0.00  0.00     0.006 C 
ENDBRANCH   8  11
ENDBRANCH   7   8
ENDBRANCH   1   7
BRANCH   6  13
ATOM     13  N   LIG d   1       2.728  83.770 115.376  0.00  0.00    -0.311 N 
ATOM     14  C   LIG d   1       3.259  82.673 115.913  0.00  0.00     0.210 C 
ATOM     15  C   LIG d   1       2.270  81.776 116.664  0.00  0.00     0.109 C 
ATOM     16  O   LIG d   1       4.462  82.375 115.867  0.00  0.00    -0.276 OA
ATOM     17  H   LIG d   1       1.749  83.950 115.489  0.00  0.00     0.149 HD
ENDBRANCH   6  13
BRANCH   5  18
ATOM     18  N   LIG d   1       4.969  85.510 116.508  0.00  0.00     0.381 N 
ATOM     19  H   LIG d   1       5.347  86.314 116.967  0.00  0.00    -0.090 HD
ATOM     20  H   LIG d   1       5.725  85.009 116.075  0.00  0.00    -0.090 HD
ATOM     21  H   LIG d   1       4.510  84.925 117.171  0.00  0.00    -0.090 HD
ENDBRANCH   5  18
BRANCH   3  22
ATOM     22  C   LIG d   1       4.166  88.606 112.942  0.00  0.00     0.382 C 
ATOM     23  O   LIG d   1       5.285  88.936 112.482  0.00  0.00    -0.241 OA
ATOM     24  O   LIG d   1       3.245  89.444 112.976  0.00  0.00    -0.241 OA
ENDBRANCH   3  22
TORSDOF 7
ENDMDL
MODEL 4
REMARK VINA RESULT:      -4.5      3.009      5.269
REMARK  7 active torsions:
REMARK  status: ('A' for Active; 'I' for Inactive)
REMARK    1  A    between atoms: C_2  and  C_3 
REMARK    2  A    between atoms: C_3  and  O_6 
REMARK    3  A    between atoms: C_3  and  C_4 
REMARK    4  A    between atoms: C_7  and  O_6 
REMARK    5  A    between atoms: C_9  and  C_10 
REMARK    6  A    between atoms: N_15  and  C_14 
REMARK    7  A    between atoms: N_20  and  C_19 
REMARK       I    between atoms: C_22  and  N_20 
ROOT
ATOM      1  C   LIG d   1      -3.436  75.505 116.201  0.00  0.00     0.161 C 
ATOM      2  C   LIG d   1      -4.209  74.454 116.720  0.00  0.00     0.016 C 
ATOM      3  C   LIG d   1      -5.419  74.015 116.135  0.00  0.00     0.038 C 
ATOM      4  C   LIG d   1      -5.863  74.501 114.896  0.00  0.00     0.028 C 
ATOM      5  C   LIG d   1      -5.378  75.915 114.592  0.00  0.00    -0.047 C 
ATOM      6  C   LIG d   1      -3.846  75.973 114.789  0.00  0.00     0.091 C 
ENDROOT
BRANCH   1   7
ATOM      7  O   LIG d   1      -2.041  75.142 116.223  0.00  0.00    -0.368 OA
BRANCH   7   8
ATOM      8  C   LIG d   1      -1.175  75.989 117.018  0.00  0.00     0.119 C 
BRANCH   8   9
ATOM      9  C   LIG d   1      -0.509  75.097 118.085  0.00  0.00     0.028 C 
ATOM     10  C   LIG d   1       0.844  75.657 118.555  0.00  0.00     0.006 C 
ENDBRANCH   8   9
BRANCH   8  11
ATOM     11  C   LIG d   1      -1.980  77.028 117.804  0.00  0.00     0.028 C 
ATOM     12  C   LIG d   1      -1.516  78.468 117.535  0.00  0.00     0.006 C 
ENDBRANCH   8  11
ENDBRANCH   7   8
ENDBRANCH   1   7
BRANCH   6  13
ATOM     13  N   LIG d   1      -3.301  77.342 114.594  0.00  0.00    -0.311 N 
ATOM     14  C   LIG d   1      -2.584  77.701 113.530  0.00  0.00     0.210 C 
ATOM     15  C   LIG d   1      -2.102  79.155 113.536  0.00  0.00     0.109 C 
ATOM     16  O   LIG d   1      -2.329  76.962 112.567  0.00  0.00    -0.276 OA
ATOM     17  H   LIG d   1      -3.488  78.014 115.312  0.00  0.00     0.149 HD
ENDBRANCH   6  13
BRANCH   5  18
ATOM     18  N   LIG d   1      -5.797  76.243 113.216  0.00  0.00     0.381 N 
ATOM     19  H   LIG d   1      -6.304  77.106 113.213  0.00  0.00    -0.090 HD
ATOM     20  H   LIG d   1      -6.406  75.518 112.880  0.00  0.00    -0.090 HD
ATOM     21  H   LIG d   1      -4.999  76.317 112.625  0.00  0.00    -0.090 HD
ENDBRANCH   5  18
BRANCH   3  22
ATOM     22  C   LIG d   1      -6.220  73.106 116.811  0.00  0.00     0.382 C 
ATOM     23  O   LIG d   1      -6.350  71.938 116.372  0.00  0.00    -0.241 OA
ATOM     24  O   LIG d   1      -6.849  73.453 117.828  0.00  0.00    -0.241 OA
ENDBRANCH   3  22
TORSDOF 7
ENDMDL
MODEL 5
REMARK VINA RESULT:      -4.5     10.930     12.883
REMARK  7 active torsions:
REMARK  status: ('A' for Active; 'I' for Inactive)
REMARK    1  A    between atoms: C_2  and  C_3 
REMARK    2  A    between atoms: C_3  and  O_6 
REMARK    3  A    between atoms: C_3  and  C_4 
REMARK    4  A    between atoms: C_7  and  O_6 
REMARK    5  A    between atoms: C_9  and  C_10 
REMARK    6  A    between atoms: N_15  and  C_14 
REMARK    7  A    between atoms: N_20  and  C_19 
REMARK       I    between atoms: C_22  and  N_20 
ROOT
ATOM      1  C   LIG d   1       2.937  86.400 115.401  0.00  0.00     0.161 C 
ATOM      2  C   LIG d   1       3.030  87.620 114.711  0.00  0.00     0.016 C 
ATOM      3  C   LIG d   1       4.238  88.339 114.561  0.00  0.00     0.038 C 
ATOM      4  C   LIG d   1       5.472  87.808 114.964  0.00  0.00     0.028 C 
ATOM      5  C   LIG d   1       5.357  86.811 116.112  0.00  0.00    -0.047 C 
ATOM      6  C   LIG d   1       4.292  85.750 115.751  0.00  0.00     0.091 C 
ENDROOT
BRANCH   1   7
ATOM      7  O   LIG d   1       2.117  85.479 114.655  0.00  0.00    -0.368 OA
BRANCH   7   8
ATOM      8  C   LIG d   1       1.774  85.879 113.306  0.00  0.00     0.119 C 
BRANCH   8   9
ATOM      9  C   LIG d   1       0.244  85.766 113.164  0.00  0.00     0.028 C 
ATOM     10  C   LIG d   1      -0.189  84.437 112.521  0.00  0.00     0.006 C 
ENDBRANCH   8   9
BRANCH   8  11
ATOM     11  C   LIG d   1       2.350  84.906 112.272  0.00  0.00     0.028 C 
ATOM     12  C   LIG d   1       3.822  85.195 111.938  0.00  0.00     0.006 C 
ENDBRANCH   8  11
ENDBRANCH   7   8
ENDBRANCH   1   7
BRANCH   6  13
ATOM     13  N   LIG d   1       4.056  84.785 116.856  0.00  0.00    -0.311 N 
ATOM     14  C   LIG d   1       4.329  83.484 116.763  0.00  0.00     0.210 C 
ATOM     15  C   LIG d   1       3.990  82.663 118.012  0.00  0.00     0.109 C 
ATOM     16  O   LIG d   1       4.848  82.938 115.778  0.00  0.00    -0.276 OA
ATOM     17  H   LIG d   1       3.666  85.148 117.703  0.00  0.00     0.149 HD
ENDBRANCH   6  13
BRANCH   5  18
ATOM     18  N   LIG d   1       6.695  86.234 116.338  0.00  0.00     0.381 N 
ATOM     19  H   LIG d   1       7.387  86.794 115.882  0.00  0.00    -0.090 HD
ATOM     20  H   LIG d   1       6.723  85.312 115.938  0.00  0.00    -0.090 HD
ATOM     21  H   LIG d   1       6.886  86.186 117.314  0.00  0.00    -0.090 HD
ENDBRANCH   5  18
BRANCH   3  22
ATOM     22  C   LIG d   1       4.213  89.623 114.038  0.00  0.00     0.382 C 
ATOM     23  O   LIG d   1       3.810  89.815 112.865  0.00  0.00    -0.241 OA
ATOM     24  O   LIG d   1       4.630  90.587 114.708  0.00  0.00    -0.241 OA
ENDBRANCH   3  22
TORSDOF 7
ENDMDL
MODEL 6
REMARK VINA RESULT:      -4.4     16.098     19.149
REMARK  7 active torsions:
REMARK  status: ('A' for Active; 'I' for Inactive)
REMARK    1  A    between atoms: C_2  and  C_3 
REMARK    2  A    between atoms: C_3  and  O_6 
REMARK    3  A    between atoms: C_3  and  C_4 
REMARK    4  A    between atoms: C_7  and  O_6 
REMARK    5  A    between atoms: C_9  and  C_10 
REMARK    6  A    between atoms: N_15  and  C_14 
REMARK    7  A    between atoms: N_20  and  C_19 
REMARK       I    between atoms: C_22  and  N_20 
ROOT
ATOM      1  C   LIG d   1     -18.184  64.932 115.307  0.00  0.00     0.161 C 
ATOM      2  C   LIG d   1     -16.962  64.791 115.984  0.00  0.00     0.016 C 
ATOM      3  C   LIG d   1     -16.613  65.548 117.126  0.00  0.00     0.038 C 
ATOM      4  C   LIG d   1     -17.531  66.397 117.761  0.00  0.00     0.028 C 
ATOM      5  C   LIG d   1     -18.598  66.948 116.821  0.00  0.00    -0.047 C 
ATOM      6  C   LIG d   1     -19.242  65.773 116.051  0.00  0.00     0.091 C 
ENDROOT
BRANCH   1   7
ATOM      7  O   LIG d   1     -18.716  63.632 114.982  0.00  0.00    -0.368 OA
BRANCH   7   8
ATOM      8  C   LIG d   1     -18.170  62.998 113.799  0.00  0.00     0.119 C 
BRANCH   8   9
ATOM      9  C   LIG d   1     -19.261  63.031 112.711  0.00  0.00     0.028 C 
ATOM     10  C   LIG d   1     -19.290  64.367 111.951  0.00  0.00     0.006 C 
ENDBRANCH   8   9
BRANCH   8  11
ATOM     11  C   LIG d   1     -17.886  61.513 114.044  0.00  0.00     0.028 C 
ATOM     12  C   LIG d   1     -18.794  60.902 115.124  0.00  0.00     0.006 C 
ENDBRANCH   8  11
ENDBRANCH   7   8
ENDBRANCH   1   7
BRANCH   6  13
ATOM     13  N   LIG d   1     -20.239  66.232 115.048  0.00  0.00    -0.311 N 
ATOM     14  C   LIG d   1     -21.444  65.682 114.908  0.00  0.00     0.210 C 
ATOM     15  C   LIG d   1     -22.308  66.293 113.800  0.00  0.00     0.109 C 
ATOM     16  O   LIG d   1     -21.892  64.768 115.617  0.00  0.00    -0.276 OA
ATOM     17  H   LIG d   1     -19.970  66.989 114.451  0.00  0.00     0.149 HD
ENDBRANCH   6  13
BRANCH   5  18
ATOM     18  N   LIG d   1     -19.565  67.704 117.639  0.00  0.00     0.381 N 
ATOM     19  H   LIG d   1     -19.077  68.293 118.283  0.00  0.00    -0.090 HD
ATOM     20  H   LIG d   1     -20.123  67.054 118.166  0.00  0.00    -0.090 HD
ATOM     21  H   LIG d   1     -20.151  68.255 117.051  0.00  0.00    -0.090 HD
ENDBRANCH   5  18
BRANCH   3  22
ATOM     22  C   LIG d   1     -15.318  65.490 117.620  0.00  0.00     0.382 C 
ATOM     23  O   LIG d   1     -14.627  66.535 117.693  0.00  0.00    -0.241 OA
ATOM     24  O   LIG d   1     -14.818  64.399 117.952  0.00  0.00    -0.241 OA
ENDBRANCH   3  22
TORSDOF 7
ENDMDL
MODEL 7
REMARK VINA RESULT:      -4.3     10.577     13.066
REMARK  7 active torsions:
REMARK  status: ('A' for Active; 'I' for Inactive)
REMARK    1  A    between atoms: C_2  and  C_3 
REMARK    2  A    between atoms: C_3  and  O_6 
REMARK    3  A    between atoms: C_3  and  C_4 
REMARK    4  A    between atoms: C_7  and  O_6 
REMARK    5  A    between atoms: C_9  and  C_10 
REMARK    6  A    between atoms: N_15  and  C_14 
REMARK    7  A    between atoms: N_20  and  C_19 
REMARK       I    between atoms: C_22  and  N_20 
ROOT
ATOM      1  C   LIG d   1       3.652  85.934 115.287  0.00  0.00     0.161 C 
ATOM      2  C   LIG d   1       3.992  87.171 114.716  0.00  0.00     0.016 C 
ATOM      3  C   LIG d   1       4.111  87.379 113.322  0.00  0.00     0.038 C 
ATOM      4  C   LIG d   1       3.749  86.393 112.393  0.00  0.00     0.028 C 
ATOM      5  C   LIG d   1       3.885  84.973 112.931  0.00  0.00    -0.047 C 
ATOM      6  C   LIG d   1       3.144  84.876 114.285  0.00  0.00     0.091 C 
ENDROOT
BRANCH   1   7
ATOM      7  O   LIG d   1       2.687  86.130 116.340  0.00  0.00    -0.368 OA
BRANCH   7   8
ATOM      8  C   LIG d   1       2.041  87.426 116.379  0.00  0.00     0.119 C 
BRANCH   8   9
ATOM      9  C   LIG d   1       2.130  87.944 117.827  0.00  0.00     0.028 C 
ATOM     10  C   LIG d   1       3.171  89.064 117.988  0.00  0.00     0.006 C 
ENDBRANCH   8   9
BRANCH   8  11
ATOM     11  C   LIG d   1       0.544  87.312 116.080  0.00  0.00     0.028 C 
ATOM     12  C   LIG d   1      -0.335  87.849 117.221  0.00  0.00     0.006 C 
ENDBRANCH   8  11
ENDBRANCH   7   8
ENDBRANCH   1   7
BRANCH   6  13
ATOM     13  N   LIG d   1       3.299  83.542 114.921  0.00  0.00    -0.311 N 
ATOM     14  C   LIG d   1       2.446  82.537 114.733  0.00  0.00     0.210 C 
ATOM     15  C   LIG d   1       2.780  81.253 115.500  0.00  0.00     0.109 C 
ATOM     16  O   LIG d   1       1.462  82.576 113.979  0.00  0.00    -0.276 OA
ATOM     17  H   LIG d   1       4.087  83.413 115.525  0.00  0.00     0.149 HD
ENDBRANCH   6  13
BRANCH   5  18
ATOM     18  N   LIG d   1       3.344  84.055 111.910  0.00  0.00     0.381 N 
ATOM     19  H   LIG d   1       2.581  84.491 111.433  0.00  0.00    -0.090 HD
ATOM     20  H   LIG d   1       3.000  83.228 112.365  0.00  0.00    -0.090 HD
ATOM     21  H   LIG d   1       4.058  83.812 111.258  0.00  0.00    -0.090 HD
ENDBRANCH   5  18
BRANCH   3  22
ATOM     22  C   LIG d   1       4.636  88.571 112.848  0.00  0.00     0.382 C 
ATOM     23  O   LIG d   1       5.777  88.589 112.324  0.00  0.00    -0.241 OA
ATOM     24  O   LIG d   1       4.003  89.636 112.976  0.00  0.00    -0.241 OA
ENDBRANCH   3  22
TORSDOF 7
ENDMDL
MODEL 8
REMARK VINA RESULT:      -4.2      2.489      5.018
REMARK  7 active torsions:
REMARK  status: ('A' for Active; 'I' for Inactive)
REMARK    1  A    between atoms: C_2  and  C_3 
REMARK    2  A    between atoms: C_3  and  O_6 
REMARK    3  A    between atoms: C_3  and  C_4 
REMARK    4  A    between atoms: C_7  and  O_6 
REMARK    5  A    between atoms: C_9  and  C_10 
REMARK    6  A    between atoms: N_15  and  C_14 
REMARK    7  A    between atoms: N_20  and  C_19 
REMARK       I    between atoms: C_22  and  N_20 
ROOT
ATOM      1  C   LIG d   1      -3.790  74.847 116.360  0.00  0.00     0.161 C 
ATOM      2  C   LIG d   1      -4.539  73.664 116.251  0.00  0.00     0.016 C 
ATOM      3  C   LIG d   1      -5.949  73.641 116.163  0.00  0.00     0.038 C 
ATOM      4  C   LIG d   1      -6.703  74.816 116.025  0.00  0.00     0.028 C 
ATOM      5  C   LIG d   1      -6.032  76.041 116.636  0.00  0.00    -0.047 C 
ATOM      6  C   LIG d   1      -4.587  76.143 116.098  0.00  0.00     0.091 C 
ENDROOT
BRANCH   1   7
ATOM      7  O   LIG d   1      -2.642  74.781 115.491  0.00  0.00    -0.368 OA
BRANCH   7   8
ATOM      8  C   LIG d   1      -1.348  74.779 116.142  0.00  0.00     0.119 C 
BRANCH   8   9
ATOM      9  C   LIG d   1      -1.579  75.101 117.631  0.00  0.00     0.028 C 
ATOM     10  C   LIG d   1      -1.154  73.947 118.555  0.00  0.00     0.006 C 
ENDBRANCH   8   9
BRANCH   8  11
ATOM     11  C   LIG d   1      -0.457  75.908 115.616  0.00  0.00     0.028 C 
ATOM     12  C   LIG d   1       0.075  76.817 116.735  0.00  0.00     0.006 C 
ENDBRANCH   8  11
ENDBRANCH   7   8
ENDBRANCH   1   7
BRANCH   6  13
ATOM     13  N   LIG d   1      -3.832  77.267 116.711  0.00  0.00    -0.311 N 
ATOM     14  C   LIG d   1      -3.295  78.261 116.005  0.00  0.00     0.210 C 
ATOM     15  C   LIG d   1      -2.541  79.307 116.832  0.00  0.00     0.109 C 
ATOM     16  O   LIG d   1      -3.400  78.392 114.776  0.00  0.00    -0.276 OA
ATOM     17  H   LIG d   1      -3.726  77.256 117.707  0.00  0.00     0.149 HD
ENDBRANCH   6  13
BRANCH   5  18
ATOM     18  N   LIG d   1      -6.858  77.216 116.300  0.00  0.00     0.381 N 
ATOM     19  H   LIG d   1      -7.824  76.955 116.272  0.00  0.00    -0.090 HD
ATOM     20  H   LIG d   1      -6.596  77.548 115.388  0.00  0.00    -0.090 HD
ATOM     21  H   LIG d   1      -6.720  77.935 116.975  0.00  0.00    -0.090 HD
ENDBRANCH   5  18
BRANCH   3  22
ATOM     22  C   LIG d   1      -6.624  72.432 116.254  0.00  0.00     0.382 C 
ATOM     23  O   LIG d   1      -6.283  71.468 115.527  0.00  0.00    -0.241 OA
ATOM     24  O   LIG d   1      -7.598  72.308 117.020  0.00  0.00    -0.241 OA
ENDBRANCH   3  22
TORSDOF 7
ENDMDL
MODEL 9
REMARK VINA RESULT:      -4.2     16.003     19.006
REMARK  7 active torsions:
REMARK  status: ('A' for Active; 'I' for Inactive)
REMARK    1  A    between atoms: C_2  and  C_3 
REMARK    2  A    between atoms: C_3  and  O_6 
REMARK    3  A    between atoms: C_3  and  C_4 
REMARK    4  A    between atoms: C_7  and  O_6 
REMARK    5  A    between atoms: C_9  and  C_10 
REMARK    6  A    between atoms: N_15  and  C_14 
REMARK    7  A    between atoms: N_20  and  C_19 
REMARK       I    between atoms: C_22  and  N_20 
ROOT
ATOM      1  C   LIG d   1     -18.180  64.885 115.517  0.00  0.00     0.161 C 
ATOM      2  C   LIG d   1     -16.943  64.764 116.173  0.00  0.00     0.016 C 
ATOM      3  C   LIG d   1     -16.547  65.596 117.245  0.00  0.00     0.038 C 
ATOM      4  C   LIG d   1     -17.427  66.513 117.837  0.00  0.00     0.028 C 
ATOM      5  C   LIG d   1     -18.505  67.019 116.884  0.00  0.00    -0.047 C 
ATOM      6  C   LIG d   1     -19.198  65.807 116.220  0.00  0.00     0.091 C 
ENDROOT
BRANCH   1   7
ATOM      7  O   LIG d   1     -18.750  63.579 115.304  0.00  0.00    -0.368 OA
BRANCH   7   8
ATOM      8  C   LIG d   1     -19.006  63.212 113.926  0.00  0.00     0.119 C 
BRANCH   8   9
ATOM      9  C   LIG d   1     -18.371  61.827 113.690  0.00  0.00     0.028 C 
ATOM     10  C   LIG d   1     -19.189  60.966 112.713  0.00  0.00     0.006 C 
ENDBRANCH   8   9
BRANCH   8  11
ATOM     11  C   LIG d   1     -18.290  64.156 112.955  0.00  0.00     0.028 C 
ATOM     12  C   LIG d   1     -19.233  64.750 111.897  0.00  0.00     0.006 C 
ENDBRANCH   8  11
ENDBRANCH   7   8
ENDBRANCH   1   7
BRANCH   6  13
ATOM     13  N   LIG d   1     -20.209  66.214 115.210  0.00  0.00    -0.311 N 
ATOM     14  C   LIG d   1     -21.469  65.784 115.220  0.00  0.00     0.210 C 
ATOM     15  C   LIG d   1     -22.341  66.311 114.076  0.00  0.00     0.109 C 
ATOM     16  O   LIG d   1     -21.957  65.042 116.085  0.00  0.00    -0.276 OA
ATOM     17  H   LIG d   1     -19.907  66.840 114.489  0.00  0.00     0.149 HD
ENDBRANCH   6  13
BRANCH   5  18
ATOM     18  N   LIG d   1     -19.433  67.858 117.665  0.00  0.00     0.381 N 
ATOM     19  H   LIG d   1     -19.072  68.789 117.733  0.00  0.00    -0.090 HD
ATOM     20  H   LIG d   1     -19.509  67.481 118.594  0.00  0.00    -0.090 HD
ATOM     21  H   LIG d   1     -20.329  67.873 117.230  0.00  0.00    -0.090 HD
ENDBRANCH   5  18
BRANCH   3  22
ATOM     22  C   LIG d   1     -15.242  65.541 117.710  0.00  0.00     0.382 C 
ATOM     23  O   LIG d   1     -14.754  64.447 118.084  0.00  0.00    -0.241 OA
ATOM     24  O   LIG d   1     -14.560  66.580 117.803  0.00  0.00    -0.241 OA
ENDBRANCH   3  22
TORSDOF 7
ENDMDL
