MODEL 1
REMARK VINA RESULT:      -5.5      0.000      0.000
REMARK  7 active torsions:
REMARK  status: ('A' for Active; 'I' for Inactive)
REMARK    1  A    between atoms: C_2  and  C_3 
REMARK    2  A    between atoms: C_3  and  O_6 
REMARK    3  A    between atoms: C_3  and  C_4 
REMARK    4  A    between atoms: C_7  and  O_6 
REMARK    5  A    between atoms: C_9  and  C_10 
REMARK    6  A    between atoms: N_15  and  C_14 
REMARK    7  A    between atoms: N_20  and  C_19 
REMARK       I    between atoms: C_22  and  N_20 
ROOT
ATOM      1  C   LIG d   1      -7.423  77.140 117.607  0.00  0.00     0.161 C 
ATOM      2  C   LIG d   1      -8.637  77.817 117.811  0.00  0.00     0.016 C 
ATOM      3  C   LIG d   1      -8.733  79.223 117.928  0.00  0.00     0.038 C 
ATOM      4  C   LIG d   1      -7.634  80.063 117.695  0.00  0.00     0.028 C 
ATOM      5  C   LIG d   1      -6.292  79.399 117.985  0.00  0.00    -0.047 C 
ATOM      6  C   LIG d   1      -6.230  78.047 117.240  0.00  0.00     0.091 C 
ENDROOT
BRANCH   1   7
ATOM      7  O   LIG d   1      -7.598  76.114 116.609  0.00  0.00    -0.368 OA
BRANCH   7   8
ATOM      8  C   LIG d   1      -7.768  74.764 117.106  0.00  0.00     0.119 C 
BRANCH   8   9
ATOM      9  C   LIG d   1      -6.785  73.860 116.336  0.00  0.00     0.028 C 
ATOM     10  C   LIG d   1      -6.107  74.593 115.167  0.00  0.00     0.006 C 
ENDBRANCH   8   9
BRANCH   8  11
ATOM     11  C   LIG d   1      -9.161  74.220 116.777  0.00  0.00     0.028 C 
ATOM     12  C   LIG d   1      -9.156  72.713 116.473  0.00  0.00     0.006 C 
ENDBRANCH   8  11
ENDBRANCH   7   8
ENDBRANCH   1   7
BRANCH   6  13
ATOM     13  N   LIG d   1      -4.984  77.293 117.536  0.00  0.00    -0.311 N 
ATOM     14  C   LIG d   1      -4.017  77.095 116.643  0.00  0.00     0.210 C 
ATOM     15  C   LIG d   1      -2.827  76.274 117.149  0.00  0.00     0.109 C 
ATOM     16  O   LIG d   1      -4.016  77.549 115.488  0.00  0.00    -0.276 OA
ATOM     17  H   LIG d   1      -4.888  76.916 118.459  0.00  0.00     0.149 HD
ENDBRANCH   6  13
BRANCH   5  18
ATOM     18  N   LIG d   1      -5.232  80.338 117.570  0.00  0.00     0.381 N 
ATOM     19  H   LIG d   1      -4.384  80.126 118.056  0.00  0.00    -0.090 HD
ATOM     20  H   LIG d   1      -5.511  81.272 117.814  0.00  0.00    -0.090 HD
ATOM     21  H   LIG d   1      -5.086  80.273 116.587  0.00  0.00    -0.090 HD
ENDBRANCH   5  18
BRANCH   3  22
ATOM     22  C   LIG d   1      -9.932  79.799 118.320  0.00  0.00     0.382 C 
ATOM     23  O   LIG d   1     -10.929  79.074 118.555  0.00  0.00    -0.241 OA
ATOM     24  O   LIG d   1     -10.042  81.037 118.399  0.00  0.00    -0.241 OA
ENDBRANCH   3  22
TORSDOF 7
ENDMDL
MODEL 2
REMARK VINA RESULT:      -5.4      2.212      5.334
REMARK  7 active torsions:
REMARK  status: ('A' for Active; 'I' for Inactive)
REMARK    1  A    between atoms: C_2  and  C_3 
REMARK    2  A    between atoms: C_3  and  O_6 
REMARK    3  A    between atoms: C_3  and  C_4 
REMARK    4  A    between atoms: C_7  and  O_6 
REMARK    5  A    between atoms: C_9  and  C_10 
REMARK    6  A    between atoms: N_15  and  C_14 
REMARK    7  A    between atoms: N_20  and  C_19 
REMARK       I    between atoms: C_22  and  N_20 
ROOT
ATOM      1  C   LIG d   1      -6.024  75.468 116.376  0.00  0.00     0.161 C 
ATOM      2  C   LIG d   1      -6.602  74.217 116.102  0.00  0.00     0.016 C 
ATOM      3  C   LIG d   1      -7.903  73.853 116.520  0.00  0.00     0.038 C 
ATOM      4  C   LIG d   1      -8.777  74.776 117.113  0.00  0.00     0.028 C 
ATOM      5  C   LIG d   1      -8.060  75.895 117.860  0.00  0.00    -0.047 C 
ATOM      6  C   LIG d   1      -7.003  76.527 116.924  0.00  0.00     0.091 C 
ENDROOT
BRANCH   1   7
ATOM      7  O   LIG d   1      -5.357  75.965 115.199  0.00  0.00    -0.368 OA
BRANCH   7   8
ATOM      8  C   LIG d   1      -3.917  75.803 115.166  0.00  0.00     0.119 C 
BRANCH   8   9
ATOM      9  C   LIG d   1      -3.440  75.613 116.619  0.00  0.00     0.028 C 
ATOM     10  C   LIG d   1      -2.348  74.536 116.742  0.00  0.00     0.006 C 
ENDBRANCH   8   9
BRANCH   8  11
ATOM     11  C   LIG d   1      -3.224  77.077 114.675  0.00  0.00     0.028 C 
ATOM     12  C   LIG d   1      -3.077  78.138 115.777  0.00  0.00     0.006 C 
ENDBRANCH   8  11
ENDBRANCH   7   8
ENDBRANCH   1   7
BRANCH   6  13
ATOM     13  N   LIG d   1      -6.198  77.575 117.604  0.00  0.00    -0.311 N 
ATOM     14  C   LIG d   1      -6.541  78.861 117.629  0.00  0.00     0.210 C 
ATOM     15  C   LIG d   1      -5.560  79.778 118.367  0.00  0.00     0.109 C 
ATOM     16  O   LIG d   1      -7.581  79.326 117.138  0.00  0.00    -0.276 OA
ATOM     17  H   LIG d   1      -5.354  77.280 118.055  0.00  0.00     0.149 HD
ENDBRANCH   6  13
BRANCH   5  18
ATOM     18  N   LIG d   1      -9.083  76.858 118.310  0.00  0.00     0.381 N 
ATOM     19  H   LIG d   1      -9.000  77.708 117.789  0.00  0.00    -0.090 HD
ATOM     20  H   LIG d   1      -8.928  77.067 119.281  0.00  0.00    -0.090 HD
ATOM     21  H   LIG d   1      -9.993  76.471 118.186  0.00  0.00    -0.090 HD
ENDBRANCH   5  18
BRANCH   3  22
ATOM     22  C   LIG d   1      -8.327  72.540 116.381  0.00  0.00     0.382 C 
ATOM     23  O   LIG d   1      -9.515  72.234 116.641  0.00  0.00    -0.241 OA
ATOM     24  O   LIG d   1      -7.524  71.649 116.042  0.00  0.00    -0.241 OA
ENDBRANCH   3  22
TORSDOF 7
ENDMDL
MODEL 3
REMARK VINA RESULT:      -5.3      1.040      1.799
REMARK  7 active torsions:
REMARK  status: ('A' for Active; 'I' for Inactive)
REMARK    1  A    between atoms: C_2  and  C_3 
REMARK    2  A    between atoms: C_3  and  O_6 
REMARK    3  A    between atoms: C_3  and  C_4 
REMARK    4  A    between atoms: C_7  and  O_6 
REMARK    5  A    between atoms: C_9  and  C_10 
REMARK    6  A    between atoms: N_15  and  C_14 
REMARK    7  A    between atoms: N_20  and  C_19 
REMARK       I    between atoms: C_22  and  N_20 
ROOT
ATOM      1  C   LIG d   1      -7.065  76.573 118.235  0.00  0.00     0.161 C 
ATOM      2  C   LIG d   1      -8.436  76.880 118.222  0.00  0.00     0.016 C 
ATOM      3  C   LIG d   1      -8.939  78.188 118.034  0.00  0.00     0.038 C 
ATOM      4  C   LIG d   1      -8.103  79.262 117.695  0.00  0.00     0.028 C 
ATOM      5  C   LIG d   1      -6.672  79.098 118.195  0.00  0.00    -0.047 C 
ATOM      6  C   LIG d   1      -6.143  77.714 117.755  0.00  0.00     0.091 C 
ENDROOT
BRANCH   1   7
ATOM      7  O   LIG d   1      -6.825  75.378 117.467  0.00  0.00    -0.368 OA
BRANCH   7   8
ATOM      8  C   LIG d   1      -7.786  75.087 116.423  0.00  0.00     0.119 C 
BRANCH   8   9
ATOM      9  C   LIG d   1      -7.811  73.558 116.229  0.00  0.00     0.028 C 
ATOM     10  C   LIG d   1      -9.211  72.961 116.450  0.00  0.00     0.006 C 
ENDBRANCH   8   9
BRANCH   8  11
ATOM     11  C   LIG d   1      -7.336  75.659 115.075  0.00  0.00     0.028 C 
ATOM     12  C   LIG d   1      -5.851  75.393 114.781  0.00  0.00     0.006 C 
ENDBRANCH   8  11
ENDBRANCH   7   8
ENDBRANCH   1   7
BRANCH   6  13
ATOM     13  N   LIG d   1      -4.778  77.437 118.275  0.00  0.00    -0.311 N 
ATOM     14  C   LIG d   1      -3.669  77.637 117.566  0.00  0.00     0.210 C 
ATOM     15  C   LIG d   1      -2.367  77.268 118.284  0.00  0.00     0.109 C 
ATOM     16  O   LIG d   1      -3.637  78.115 116.422  0.00  0.00    -0.276 OA
ATOM     17  H   LIG d   1      -4.710  77.076 119.207  0.00  0.00     0.149 HD
ENDBRANCH   6  13
BRANCH   5  18
ATOM     18  N   LIG d   1      -5.879  80.218 117.654  0.00  0.00     0.381 N 
ATOM     19  H   LIG d   1      -5.335  79.904 116.876  0.00  0.00    -0.090 HD
ATOM     20  H   LIG d   1      -5.251  80.546 118.367  0.00  0.00    -0.090 HD
ATOM     21  H   LIG d   1      -6.484  80.957 117.369  0.00  0.00    -0.090 HD
ENDBRANCH   5  18
BRANCH   3  22
ATOM     22  C   LIG d   1     -10.289  78.439 118.227  0.00  0.00     0.382 C 
ATOM     23  O   LIG d   1     -11.123  77.511 118.103  0.00  0.00    -0.241 OA
ATOM     24  O   LIG d   1     -10.688  79.593 118.478  0.00  0.00    -0.241 OA
ENDBRANCH   3  22
TORSDOF 7
ENDMDL
MODEL 4
REMARK VINA RESULT:      -5.1      2.501      6.577
REMARK  7 active torsions:
REMARK  status: ('A' for Active; 'I' for Inactive)
REMARK    1  A    between atoms: C_2  and  C_3 
REMARK    2  A    between atoms: C_3  and  O_6 
REMARK    3  A    between atoms: C_3  and  C_4 
REMARK    4  A    between atoms: C_7  and  O_6 
REMARK    5  A    between atoms: C_9  and  C_10 
REMARK    6  A    between atoms: N_15  and  C_14 
REMARK    7  A    between atoms: N_20  and  C_19 
REMARK       I    between atoms: C_22  and  N_20 
ROOT
ATOM      1  C   LIG d   1      -5.885  77.001 117.096  0.00  0.00     0.161 C 
ATOM      2  C   LIG d   1      -4.644  76.516 116.651  0.00  0.00     0.016 C 
ATOM      3  C   LIG d   1      -4.463  75.223 116.109  0.00  0.00     0.038 C 
ATOM      4  C   LIG d   1      -5.547  74.376 115.833  0.00  0.00     0.028 C 
ATOM      5  C   LIG d   1      -6.755  74.626 116.730  0.00  0.00    -0.047 C 
ATOM      6  C   LIG d   1      -7.098  76.133 116.701  0.00  0.00     0.091 C 
ENDROOT
BRANCH   1   7
ATOM      7  O   LIG d   1      -6.070  78.357 116.644  0.00  0.00    -0.368 OA
BRANCH   7   8
ATOM      8  C   LIG d   1      -6.134  79.370 117.678  0.00  0.00     0.119 C 
BRANCH   8   9
ATOM      9  C   LIG d   1      -7.569  79.932 117.687  0.00  0.00     0.028 C 
ATOM     10  C   LIG d   1      -7.604  81.457 117.490  0.00  0.00     0.006 C 
ENDBRANCH   8   9
BRANCH   8  11
ATOM     11  C   LIG d   1      -5.234  80.564 117.344  0.00  0.00     0.028 C 
ATOM     12  C   LIG d   1      -3.887  80.142 116.736  0.00  0.00     0.006 C 
ENDBRANCH   8  11
ENDBRANCH   7   8
ENDBRANCH   1   7
BRANCH   6  13
ATOM     13  N   LIG d   1      -8.216  76.478 117.618  0.00  0.00    -0.311 N 
ATOM     14  C   LIG d   1      -9.500  76.364 117.284  0.00  0.00     0.210 C 
ATOM     15  C   LIG d   1     -10.491  76.791 118.371  0.00  0.00     0.109 C 
ATOM     16  O   LIG d   1      -9.913  75.919 116.202  0.00  0.00    -0.276 OA
ATOM     17  H   LIG d   1      -7.971  76.817 118.528  0.00  0.00     0.149 HD
ENDBRANCH   6  13
BRANCH   5  18
ATOM     18  N   LIG d   1      -7.855  73.773 116.244  0.00  0.00     0.381 N 
ATOM     19  H   LIG d   1      -8.446  74.298 115.630  0.00  0.00    -0.090 HD
ATOM     20  H   LIG d   1      -8.405  73.473 117.030  0.00  0.00    -0.090 HD
ATOM     21  H   LIG d   1      -7.487  72.981 115.765  0.00  0.00    -0.090 HD
ENDBRANCH   5  18
BRANCH   3  22
ATOM     22  C   LIG d   1      -3.181  74.750 115.873  0.00  0.00     0.382 C 
ATOM     23  O   LIG d   1      -2.568  74.126 116.772  0.00  0.00    -0.241 OA
ATOM     24  O   LIG d   1      -2.614  74.977 114.788  0.00  0.00    -0.241 OA
ENDBRANCH   3  22
TORSDOF 7
ENDMDL
MODEL 5
REMARK VINA RESULT:      -4.9      2.912      6.465
REMARK  7 active torsions:
REMARK  status: ('A' for Active; 'I' for Inactive)
REMARK    1  A    between atoms: C_2  and  C_3 
REMARK    2  A    between atoms: C_3  and  O_6 
REMARK    3  A    between atoms: C_3  and  C_4 
REMARK    4  A    between atoms: C_7  and  O_6 
REMARK    5  A    between atoms: C_9  and  C_10 
REMARK    6  A    between atoms: N_15  and  C_14 
REMARK    7  A    between atoms: N_20  and  C_19 
REMARK       I    between atoms: C_22  and  N_20 
ROOT
ATOM      1  C   LIG d   1      -3.754  75.400 115.575  0.00  0.00     0.161 C 
ATOM      2  C   LIG d   1      -2.808  74.483 115.089  0.00  0.00     0.016 C 
ATOM      3  C   LIG d   1      -1.412  74.696 115.156  0.00  0.00     0.038 C 
ATOM      4  C   LIG d   1      -0.860  75.780 115.854  0.00  0.00     0.028 C 
ATOM      5  C   LIG d   1      -1.785  76.991 115.923  0.00  0.00    -0.047 C 
ATOM      6  C   LIG d   1      -3.169  76.536 116.440  0.00  0.00     0.091 C 
ENDROOT
BRANCH   1   7
ATOM      7  O   LIG d   1      -4.786  74.701 116.299  0.00  0.00    -0.368 OA
BRANCH   7   8
ATOM      8  C   LIG d   1      -5.947  74.303 115.529  0.00  0.00     0.119 C 
BRANCH   8   9
ATOM      9  C   LIG d   1      -6.494  75.563 114.832  0.00  0.00     0.028 C 
ATOM     10  C   LIG d   1      -7.790  76.078 115.482  0.00  0.00     0.006 C 
ENDBRANCH   8   9
BRANCH   8  11
ATOM     11  C   LIG d   1      -7.080  73.818 116.439  0.00  0.00     0.028 C 
ATOM     12  C   LIG d   1      -7.129  72.287 116.565  0.00  0.00     0.006 C 
ENDBRANCH   8  11
ENDBRANCH   7   8
ENDBRANCH   1   7
BRANCH   6  13
ATOM     13  N   LIG d   1      -4.159  77.644 116.458  0.00  0.00    -0.311 N 
ATOM     14  C   LIG d   1      -4.970  77.886 117.486  0.00  0.00     0.210 C 
ATOM     15  C   LIG d   1      -5.929  79.065 117.291  0.00  0.00     0.109 C 
ATOM     16  O   LIG d   1      -4.965  77.256 118.555  0.00  0.00    -0.276 OA
ATOM     17  H   LIG d   1      -4.209  78.224 115.644  0.00  0.00     0.149 HD
ENDBRANCH   6  13
BRANCH   5  18
ATOM     18  N   LIG d   1      -1.143  77.993 116.794  0.00  0.00     0.381 N 
ATOM     19  H   LIG d   1      -1.837  78.601 117.180  0.00  0.00    -0.090 HD
ATOM     20  H   LIG d   1      -0.511  78.547 116.242  0.00  0.00    -0.090 HD
ATOM     21  H   LIG d   1      -0.644  77.539 117.527  0.00  0.00    -0.090 HD
ENDBRANCH   5  18
BRANCH   3  22
ATOM     22  C   LIG d   1      -0.553  73.840 114.484  0.00  0.00     0.382 C 
ATOM     23  O   LIG d   1      -0.605  73.754 113.233  0.00  0.00    -0.241 OA
ATOM     24  O   LIG d   1       0.242  73.119 115.116  0.00  0.00    -0.241 OA
ENDBRANCH   3  22
TORSDOF 7
ENDMDL
MODEL 6
REMARK VINA RESULT:      -4.9     13.889     16.300
REMARK  7 active torsions:
REMARK  status: ('A' for Active; 'I' for Inactive)
REMARK    1  A    between atoms: C_2  and  C_3 
REMARK    2  A    between atoms: C_3  and  O_6 
REMARK    3  A    between atoms: C_3  and  C_4 
REMARK    4  A    between atoms: C_7  and  O_6 
REMARK    5  A    between atoms: C_9  and  C_10 
REMARK    6  A    between atoms: N_15  and  C_14 
REMARK    7  A    between atoms: N_20  and  C_19 
REMARK       I    between atoms: C_22  and  N_20 
ROOT
ATOM      1  C   LIG d   1       3.295  88.453 115.407  0.00  0.00     0.161 C 
ATOM      2  C   LIG d   1       3.776  89.678 115.897  0.00  0.00     0.016 C 
ATOM      3  C   LIG d   1       4.732  89.780 116.934  0.00  0.00     0.038 C 
ATOM      4  C   LIG d   1       5.389  88.654 117.451  0.00  0.00     0.028 C 
ATOM      5  C   LIG d   1       4.571  87.372 117.340  0.00  0.00    -0.047 C 
ATOM      6  C   LIG d   1       4.082  87.213 115.882  0.00  0.00     0.091 C 
ENDROOT
BRANCH   1   7
ATOM      7  O   LIG d   1       3.241  88.490 113.967  0.00  0.00    -0.368 OA
BRANCH   7   8
ATOM      8  C   LIG d   1       4.386  87.941 113.271  0.00  0.00     0.119 C 
BRANCH   8   9
ATOM      9  C   LIG d   1       5.332  89.111 112.940  0.00  0.00     0.028 C 
ATOM     10  C   LIG d   1       6.700  88.974 113.629  0.00  0.00     0.006 C 
ENDBRANCH   8   9
BRANCH   8  11
ATOM     11  C   LIG d   1       3.984  87.348 111.917  0.00  0.00     0.028 C 
ATOM     12  C   LIG d   1       4.148  85.821 111.863  0.00  0.00     0.006 C 
ENDBRANCH   8  11
ENDBRANCH   7   8
ENDBRANCH   1   7
BRANCH   6  13
ATOM     13  N   LIG d   1       3.203  86.027 115.704  0.00  0.00    -0.311 N 
ATOM     14  C   LIG d   1       3.654  84.830 115.335  0.00  0.00     0.210 C 
ATOM     15  C   LIG d   1       2.577  83.750 115.191  0.00  0.00     0.109 C 
ATOM     16  O   LIG d   1       4.847  84.551 115.145  0.00  0.00    -0.276 OA
ATOM     17  H   LIG d   1       2.224  86.157 115.869  0.00  0.00     0.149 HD
ENDBRANCH   6  13
BRANCH   5  18
ATOM     18  N   LIG d   1       5.426  86.257 117.787  0.00  0.00     0.381 N 
ATOM     19  H   LIG d   1       5.261  85.452 117.216  0.00  0.00    -0.090 HD
ATOM     20  H   LIG d   1       5.188  86.025 118.736  0.00  0.00    -0.090 HD
ATOM     21  H   LIG d   1       6.386  86.520 117.733  0.00  0.00    -0.090 HD
ENDBRANCH   5  18
BRANCH   3  22
ATOM     22  C   LIG d   1       5.011  91.019 117.492  0.00  0.00     0.382 C 
ATOM     23  O   LIG d   1       5.853  91.114 118.417  0.00  0.00    -0.241 OA
ATOM     24  O   LIG d   1       4.398  92.035 117.113  0.00  0.00    -0.241 OA
ENDBRANCH   3  22
TORSDOF 7
ENDMDL
MODEL 7
REMARK VINA RESULT:      -4.7      1.906      2.627
REMARK  7 active torsions:
REMARK  status: ('A' for Active; 'I' for Inactive)
REMARK    1  A    between atoms: C_2  and  C_3 
REMARK    2  A    between atoms: C_3  and  O_6 
REMARK    3  A    between atoms: C_3  and  C_4 
REMARK    4  A    between atoms: C_7  and  O_6 
REMARK    5  A    between atoms: C_9  and  C_10 
REMARK    6  A    between atoms: N_15  and  C_14 
REMARK    7  A    between atoms: N_20  and  C_19 
REMARK       I    between atoms: C_22  and  N_20 
ROOT
ATOM      1  C   LIG d   1      -6.237  77.955 117.497  0.00  0.00     0.161 C 
ATOM      2  C   LIG d   1      -7.575  77.546 117.630  0.00  0.00     0.016 C 
ATOM      3  C   LIG d   1      -8.640  78.441 117.885  0.00  0.00     0.038 C 
ATOM      4  C   LIG d   1      -8.458  79.832 117.874  0.00  0.00     0.028 C 
ATOM      5  C   LIG d   1      -7.043  80.261 118.247  0.00  0.00    -0.047 C 
ATOM      6  C   LIG d   1      -6.036  79.479 117.373  0.00  0.00     0.091 C 
ENDROOT
BRANCH   1   7
ATOM      7  O   LIG d   1      -5.627  77.276 116.382  0.00  0.00    -0.368 OA
BRANCH   7   8
ATOM      8  C   LIG d   1      -5.361  75.863 116.564  0.00  0.00     0.119 C 
BRANCH   8   9
ATOM      9  C   LIG d   1      -3.834  75.667 116.488  0.00  0.00     0.028 C 
ATOM     10  C   LIG d   1      -3.396  74.975 115.186  0.00  0.00     0.006 C 
ENDBRANCH   8   9
BRANCH   8  11
ATOM     11  C   LIG d   1      -5.934  75.035 115.410  0.00  0.00     0.028 C 
ATOM     12  C   LIG d   1      -6.999  74.027 115.871  0.00  0.00     0.006 C 
ENDBRANCH   8  11
ENDBRANCH   7   8
ENDBRANCH   1   7
BRANCH   6  13
ATOM     13  N   LIG d   1      -4.624  79.777 117.731  0.00  0.00    -0.311 N 
ATOM     14  C   LIG d   1      -3.897  80.715 117.127  0.00  0.00     0.210 C 
ATOM     15  C   LIG d   1      -2.458  80.845 117.636  0.00  0.00     0.109 C 
ATOM     16  O   LIG d   1      -4.317  81.474 116.240  0.00  0.00    -0.276 OA
ATOM     17  H   LIG d   1      -4.214  79.230 118.462  0.00  0.00     0.149 HD
ENDBRANCH   6  13
BRANCH   5  18
ATOM     18  N   LIG d   1      -6.957  81.722 118.062  0.00  0.00     0.381 N 
ATOM     19  H   LIG d   1      -6.760  81.931 117.104  0.00  0.00    -0.090 HD
ATOM     20  H   LIG d   1      -6.203  82.076 118.624  0.00  0.00    -0.090 HD
ATOM     21  H   LIG d   1      -7.814  82.151 118.335  0.00  0.00    -0.090 HD
ENDBRANCH   5  18
BRANCH   3  22
ATOM     22  C   LIG d   1      -9.897  77.943 118.193  0.00  0.00     0.382 C 
ATOM     23  O   LIG d   1     -10.076  76.704 118.281  0.00  0.00    -0.241 OA
ATOM     24  O   LIG d   1     -10.863  78.715 118.340  0.00  0.00    -0.241 OA
ENDBRANCH   3  22
TORSDOF 7
ENDMDL
MODEL 8
REMARK VINA RESULT:      -4.6      3.011      5.265
REMARK  7 active torsions:
REMARK  status: ('A' for Active; 'I' for Inactive)
REMARK    1  A    between atoms: C_2  and  C_3 
REMARK    2  A    between atoms: C_3  and  O_6 
REMARK    3  A    between atoms: C_3  and  C_4 
REMARK    4  A    between atoms: C_7  and  O_6 
REMARK    5  A    between atoms: C_9  and  C_10 
REMARK    6  A    between atoms: N_15  and  C_14 
REMARK    7  A    between atoms: N_20  and  C_19 
REMARK       I    between atoms: C_22  and  N_20 
ROOT
ATOM      1  C   LIG d   1      -4.665  75.361 116.553  0.00  0.00     0.161 C 
ATOM      2  C   LIG d   1      -5.587  74.336 116.281  0.00  0.00     0.016 C 
ATOM      3  C   LIG d   1      -6.988  74.527 116.289  0.00  0.00     0.038 C 
ATOM      4  C   LIG d   1      -7.562  75.800 116.422  0.00  0.00     0.028 C 
ATOM      5  C   LIG d   1      -6.690  76.779 117.201  0.00  0.00    -0.047 C 
ATOM      6  C   LIG d   1      -5.269  76.780 116.591  0.00  0.00     0.091 C 
ENDROOT
BRANCH   1   7
ATOM      7  O   LIG d   1      -3.578  75.304 115.609  0.00  0.00    -0.368 OA
BRANCH   7   8
ATOM      8  C   LIG d   1      -2.441  74.493 115.994  0.00  0.00     0.119 C 
BRANCH   8   9
ATOM      9  C   LIG d   1      -1.757  75.190 117.186  0.00  0.00     0.028 C 
ATOM     10  C   LIG d   1      -1.210  74.188 118.216  0.00  0.00     0.006 C 
ENDBRANCH   8   9
BRANCH   8  11
ATOM     11  C   LIG d   1      -1.384  74.453 114.886  0.00  0.00     0.028 C 
ATOM     12  C   LIG d   1      -0.490  75.703 114.872  0.00  0.00     0.006 C 
ENDBRANCH   8  11
ENDBRANCH   7   8
ENDBRANCH   1   7
BRANCH   6  13
ATOM     13  N   LIG d   1      -4.329  77.649 117.347  0.00  0.00    -0.311 N 
ATOM     14  C   LIG d   1      -3.648  78.649 116.791  0.00  0.00     0.210 C 
ATOM     15  C   LIG d   1      -2.718  79.407 117.744  0.00  0.00     0.109 C 
ATOM     16  O   LIG d   1      -3.749  79.002 115.606  0.00  0.00    -0.276 OA
ATOM     17  H   LIG d   1      -4.210  77.453 118.321  0.00  0.00     0.149 HD
ENDBRANCH   6  13
BRANCH   5  18
ATOM     18  N   LIG d   1      -7.344  78.100 117.145  0.00  0.00     0.381 N 
ATOM     19  H   LIG d   1      -6.993  78.619 116.365  0.00  0.00    -0.090 HD
ATOM     20  H   LIG d   1      -7.126  78.607 117.985  0.00  0.00    -0.090 HD
ATOM     21  H   LIG d   1      -8.331  77.989 117.063  0.00  0.00    -0.090 HD
ENDBRANCH   5  18
BRANCH   3  22
ATOM     22  C   LIG d   1      -7.831  73.430 116.201  0.00  0.00     0.382 C 
ATOM     23  O   LIG d   1      -7.358  72.293 115.961  0.00  0.00    -0.241 OA
ATOM     24  O   LIG d   1      -9.064  73.570 116.316  0.00  0.00    -0.241 OA
ENDBRANCH   3  22
TORSDOF 7
ENDMDL
MODEL 9
REMARK VINA RESULT:      -4.5     14.122     17.226
REMARK  7 active torsions:
REMARK  status: ('A' for Active; 'I' for Inactive)
REMARK    1  A    between atoms: C_2  and  C_3 
REMARK    2  A    between atoms: C_3  and  O_6 
REMARK    3  A    between atoms: C_3  and  C_4 
REMARK    4  A    between atoms: C_7  and  O_6 
REMARK    5  A    between atoms: C_9  and  C_10 
REMARK    6  A    between atoms: N_15  and  C_14 
REMARK    7  A    between atoms: N_20  and  C_19 
REMARK       I    between atoms: C_22  and  N_20 
ROOT
ATOM      1  C   LIG d   1     -17.631  64.631 115.657  0.00  0.00     0.161 C 
ATOM      2  C   LIG d   1     -16.488  64.767 116.462  0.00  0.00     0.016 C 
ATOM      3  C   LIG d   1     -16.264  65.873 117.314  0.00  0.00     0.038 C 
ATOM      4  C   LIG d   1     -17.246  66.851 117.534  0.00  0.00     0.028 C 
ATOM      5  C   LIG d   1     -18.206  67.019 116.361  0.00  0.00    -0.047 C 
ATOM      6  C   LIG d   1     -18.763  65.633 115.966  0.00  0.00     0.091 C 
ENDROOT
BRANCH   1   7
ATOM      7  O   LIG d   1     -18.124  63.279 115.732  0.00  0.00    -0.368 OA
BRANCH   7   8
ATOM      8  C   LIG d   1     -17.908  62.455 114.560  0.00  0.00     0.119 C 
BRANCH   8   9
ATOM      9  C   LIG d   1     -19.277  62.242 113.885  0.00  0.00     0.028 C 
ATOM     10  C   LIG d   1     -20.419  62.104 114.906  0.00  0.00     0.006 C 
ENDBRANCH   8   9
BRANCH   8  11
ATOM     11  C   LIG d   1     -17.424  61.054 114.945  0.00  0.00     0.028 C 
ATOM     12  C   LIG d   1     -16.846  60.993 116.367  0.00  0.00     0.006 C 
ENDBRANCH   8  11
ENDBRANCH   7   8
ENDBRANCH   1   7
BRANCH   6  13
ATOM     13  N   LIG d   1     -19.646  65.696 114.772  0.00  0.00    -0.311 N 
ATOM     14  C   LIG d   1     -20.972  65.807 114.846  0.00  0.00     0.210 C 
ATOM     15  C   LIG d   1     -21.694  65.835 113.495  0.00  0.00     0.109 C 
ATOM     16  O   LIG d   1     -21.615  65.917 115.900  0.00  0.00    -0.276 OA
ATOM     17  H   LIG d   1     -19.205  65.645 113.875  0.00  0.00     0.149 HD
ENDBRANCH   6  13
BRANCH   5  18
ATOM     18  N   LIG d   1     -19.256  67.968 116.777  0.00  0.00     0.381 N 
ATOM     19  H   LIG d   1     -19.109  68.852 116.333  0.00  0.00    -0.090 HD
ATOM     20  H   LIG d   1     -19.198  68.101 117.771  0.00  0.00    -0.090 HD
ATOM     21  H   LIG d   1     -20.154  67.611 116.534  0.00  0.00    -0.090 HD
ENDBRANCH   5  18
BRANCH   3  22
ATOM     22  C   LIG d   1     -15.030  66.029 117.928  0.00  0.00     0.382 C 
ATOM     23  O   LIG d   1     -14.511  65.068 118.546  0.00  0.00    -0.241 OA
ATOM     24  O   LIG d   1     -14.450  67.131 117.909  0.00  0.00    -0.241 OA
ENDBRANCH   3  22
TORSDOF 7
ENDMDL
