MODEL 1
REMARK VINA RESULT:      -5.1      0.000      0.000
REMARK  7 active torsions:
REMARK  status: ('A' for Active; 'I' for Inactive)
REMARK    1  A    between atoms: C_2  and  C_3 
REMARK    2  A    between atoms: C_3  and  O_6 
REMARK    3  A    between atoms: C_3  and  C_4 
REMARK    4  A    between atoms: C_7  and  O_6 
REMARK    5  A    between atoms: C_9  and  C_10 
REMARK    6  A    between atoms: N_15  and  C_14 
REMARK    7  A    between atoms: N_20  and  C_19 
REMARK       I    between atoms: C_22  and  N_20 
ROOT
ATOM      1  C   LIG d   1      -4.636  75.616 116.820  0.00  0.00     0.161 C 
ATOM      2  C   LIG d   1      -5.978  75.912 117.113  0.00  0.00     0.016 C 
ATOM      3  C   LIG d   1      -6.515  77.218 117.062  0.00  0.00     0.038 C 
ATOM      4  C   LIG d   1      -5.779  78.304 116.565  0.00  0.00     0.028 C 
ATOM      5  C   LIG d   1      -4.272  78.143 116.736  0.00  0.00    -0.047 C 
ATOM      6  C   LIG d   1      -3.846  76.770 116.168  0.00  0.00     0.091 C 
ENDROOT
BRANCH   1   7
ATOM      7  O   LIG d   1      -4.565  74.433 115.998  0.00  0.00    -0.368 OA
BRANCH   7   8
ATOM      8  C   LIG d   1      -5.683  74.210 115.104  0.00  0.00     0.119 C 
BRANCH   8   9
ATOM      9  C   LIG d   1      -5.927  72.690 115.040  0.00  0.00     0.028 C 
ATOM     10  C   LIG d   1      -7.041  72.233 115.996  0.00  0.00     0.006 C 
ENDBRANCH   8   9
BRANCH   8  11
ATOM     11  C   LIG d   1      -5.343  74.627 113.671  0.00  0.00     0.028 C 
ATOM     12  C   LIG d   1      -5.927  75.998 113.294  0.00  0.00     0.006 C 
ENDBRANCH   8  11
ENDBRANCH   7   8
ENDBRANCH   1   7
BRANCH   6  13
ATOM     13  N   LIG d   1      -2.400  76.497 116.371  0.00  0.00    -0.311 N 
ATOM     14  C   LIG d   1      -1.603  76.017 115.417  0.00  0.00     0.210 C 
ATOM     15  C   LIG d   1      -0.149  75.789 115.843  0.00  0.00     0.109 C 
ATOM     16  O   LIG d   1      -1.955  75.790 114.250  0.00  0.00    -0.276 OA
ATOM     17  H   LIG d   1      -2.024  76.682 117.281  0.00  0.00     0.149 HD
ENDBRANCH   6  13
BRANCH   5  18
ATOM     18  N   LIG d   1      -3.623  79.278 116.052  0.00  0.00     0.381 N 
ATOM     19  H   LIG d   1      -3.407  79.026 115.108  0.00  0.00    -0.090 HD
ATOM     20  H   LIG d   1      -2.763  79.493 116.526  0.00  0.00    -0.090 HD
ATOM     21  H   LIG d   1      -4.224  80.072 116.063  0.00  0.00    -0.090 HD
ENDBRANCH   5  18
BRANCH   3  22
ATOM     22  C   LIG d   1      -7.791  77.456 117.550  0.00  0.00     0.382 C 
ATOM     23  O   LIG d   1      -8.706  76.622 117.344  0.00  0.00    -0.241 OA
ATOM     24  O   LIG d   1      -8.050  78.514 118.154  0.00  0.00    -0.241 OA
ENDBRANCH   3  22
TORSDOF 7
ENDMDL
MODEL 2
REMARK VINA RESULT:      -5.0      2.455      4.905
REMARK  7 active torsions:
REMARK  status: ('A' for Active; 'I' for Inactive)
REMARK    1  A    between atoms: C_2  and  C_3 
REMARK    2  A    between atoms: C_3  and  O_6 
REMARK    3  A    between atoms: C_3  and  C_4 
REMARK    4  A    between atoms: C_7  and  O_6 
REMARK    5  A    between atoms: C_9  and  C_10 
REMARK    6  A    between atoms: N_15  and  C_14 
REMARK    7  A    between atoms: N_20  and  C_19 
REMARK       I    between atoms: C_22  and  N_20 
ROOT
ATOM      1  C   LIG d   1      -4.725  76.275 115.241  0.00  0.00     0.161 C 
ATOM      2  C   LIG d   1      -5.033  74.945 114.907  0.00  0.00     0.016 C 
ATOM      3  C   LIG d   1      -6.004  74.177 115.589  0.00  0.00     0.038 C 
ATOM      4  C   LIG d   1      -6.846  74.739 116.560  0.00  0.00     0.028 C 
ATOM      5  C   LIG d   1      -6.229  75.934 117.278  0.00  0.00    -0.047 C 
ATOM      6  C   LIG d   1      -5.710  76.940 116.225  0.00  0.00     0.091 C 
ENDROOT
BRANCH   1   7
ATOM      7  O   LIG d   1      -4.605  77.065 114.041  0.00  0.00    -0.368 OA
BRANCH   7   8
ATOM      8  C   LIG d   1      -3.321  77.016 113.371  0.00  0.00     0.119 C 
BRANCH   8   9
ATOM      9  C   LIG d   1      -2.292  77.697 114.293  0.00  0.00     0.028 C 
ATOM     10  C   LIG d   1      -1.116  76.771 114.647  0.00  0.00     0.006 C 
ENDBRANCH   8   9
BRANCH   8  11
ATOM     11  C   LIG d   1      -3.331  77.851 112.087  0.00  0.00     0.028 C 
ATOM     12  C   LIG d   1      -2.461  79.114 112.192  0.00  0.00     0.006 C 
ENDBRANCH   8  11
ENDBRANCH   7   8
ENDBRANCH   1   7
BRANCH   6  13
ATOM     13  N   LIG d   1      -5.016  78.100 116.841  0.00  0.00    -0.311 N 
ATOM     14  C   LIG d   1      -5.641  79.217 117.210  0.00  0.00     0.210 C 
ATOM     15  C   LIG d   1      -4.735  80.298 117.808  0.00  0.00     0.109 C 
ATOM     16  O   LIG d   1      -6.865  79.402 117.129  0.00  0.00    -0.276 OA
ATOM     17  H   LIG d   1      -4.026  78.022 116.973  0.00  0.00     0.149 HD
ENDBRANCH   6  13
BRANCH   5  18
ATOM     18  N   LIG d   1      -7.262  76.505 118.163  0.00  0.00     0.381 N 
ATOM     19  H   LIG d   1      -7.744  77.243 117.688  0.00  0.00    -0.090 HD
ATOM     20  H   LIG d   1      -6.816  76.892 118.976  0.00  0.00    -0.090 HD
ATOM     21  H   LIG d   1      -7.908  75.797 118.434  0.00  0.00    -0.090 HD
ENDBRANCH   5  18
BRANCH   3  22
ATOM     22  C   LIG d   1      -6.113  72.819 115.328  0.00  0.00     0.382 C 
ATOM     23  O   LIG d   1      -6.659  72.062 116.166  0.00  0.00    -0.241 OA
ATOM     24  O   LIG d   1      -5.633  72.336 114.286  0.00  0.00    -0.241 OA
ENDBRANCH   3  22
TORSDOF 7
ENDMDL
MODEL 3
REMARK VINA RESULT:      -4.9      3.544      5.145
REMARK  7 active torsions:
REMARK  status: ('A' for Active; 'I' for Inactive)
REMARK    1  A    between atoms: C_2  and  C_3 
REMARK    2  A    between atoms: C_3  and  O_6 
REMARK    3  A    between atoms: C_3  and  C_4 
REMARK    4  A    between atoms: C_7  and  O_6 
REMARK    5  A    between atoms: C_9  and  C_10 
REMARK    6  A    between atoms: N_15  and  C_14 
REMARK    7  A    between atoms: N_20  and  C_19 
REMARK       I    between atoms: C_22  and  N_20 
ROOT
ATOM      1  C   LIG d   1      -2.358  78.298 114.592  0.00  0.00     0.161 C 
ATOM      2  C   LIG d   1      -2.678  79.255 113.615  0.00  0.00     0.016 C 
ATOM      3  C   LIG d   1      -1.844  80.351 113.296  0.00  0.00     0.038 C 
ATOM      4  C   LIG d   1      -0.553  80.481 113.831  0.00  0.00     0.028 C 
ATOM      5  C   LIG d   1      -0.393  79.817 115.195  0.00  0.00    -0.047 C 
ATOM      6  C   LIG d   1      -0.904  78.361 115.107  0.00  0.00     0.091 C 
ENDROOT
BRANCH   1   7
ATOM      7  O   LIG d   1      -2.658  76.977 114.100  0.00  0.00    -0.368 OA
BRANCH   7   8
ATOM      8  C   LIG d   1      -3.697  76.255 114.805  0.00  0.00     0.119 C 
BRANCH   8   9
ATOM      9  C   LIG d   1      -4.749  75.823 113.765  0.00  0.00     0.028 C 
ATOM     10  C   LIG d   1      -5.171  74.354 113.932  0.00  0.00     0.006 C 
ENDBRANCH   8   9
BRANCH   8  11
ATOM     11  C   LIG d   1      -4.444  77.167 115.783  0.00  0.00     0.028 C 
ATOM     12  C   LIG d   1      -4.311  76.710 117.244  0.00  0.00     0.006 C 
ENDBRANCH   8  11
ENDBRANCH   7   8
ENDBRANCH   1   7
BRANCH   6  13
ATOM     13  N   LIG d   1      -0.862  77.666 116.420  0.00  0.00    -0.311 N 
ATOM     14  C   LIG d   1      -0.380  76.435 116.582  0.00  0.00     0.210 C 
ATOM     15  C   LIG d   1      -0.448  75.897 118.015  0.00  0.00     0.109 C 
ATOM     16  O   LIG d   1       0.128  75.749 115.682  0.00  0.00    -0.276 OA
ATOM     17  H   LIG d   1      -1.225  78.161 117.211  0.00  0.00     0.149 HD
ENDBRANCH   6  13
BRANCH   5  18
ATOM     18  N   LIG d   1       1.030  79.909 115.571  0.00  0.00     0.381 N 
ATOM     19  H   LIG d   1       1.223  80.815 115.948  0.00  0.00    -0.090 HD
ATOM     20  H   LIG d   1       1.592  79.784 114.747  0.00  0.00    -0.090 HD
ATOM     21  H   LIG d   1       1.251  79.208 116.243  0.00  0.00    -0.090 HD
ENDBRANCH   5  18
BRANCH   3  22
ATOM     22  C   LIG d   1      -2.315  81.353 112.462  0.00  0.00     0.382 C 
ATOM     23  O   LIG d   1      -3.550  81.526 112.326  0.00  0.00    -0.241 OA
ATOM     24  O   LIG d   1      -1.522  82.058 111.811  0.00  0.00    -0.241 OA
ENDBRANCH   3  22
TORSDOF 7
ENDMDL
MODEL 4
REMARK VINA RESULT:      -4.8      2.619      4.153
REMARK  7 active torsions:
REMARK  status: ('A' for Active; 'I' for Inactive)
REMARK    1  A    between atoms: C_2  and  C_3 
REMARK    2  A    between atoms: C_3  and  O_6 
REMARK    3  A    between atoms: C_3  and  C_4 
REMARK    4  A    between atoms: C_7  and  O_6 
REMARK    5  A    between atoms: C_9  and  C_10 
REMARK    6  A    between atoms: N_15  and  C_14 
REMARK    7  A    between atoms: N_20  and  C_19 
REMARK       I    between atoms: C_22  and  N_20 
ROOT
ATOM      1  C   LIG d   1      -3.283  76.248 116.385  0.00  0.00     0.161 C 
ATOM      2  C   LIG d   1      -3.539  77.480 115.760  0.00  0.00     0.016 C 
ATOM      3  C   LIG d   1      -2.704  78.035 114.764  0.00  0.00     0.038 C 
ATOM      4  C   LIG d   1      -1.631  77.320 114.213  0.00  0.00     0.028 C 
ATOM      5  C   LIG d   1      -1.038  76.288 115.167  0.00  0.00    -0.047 C 
ATOM      6  C   LIG d   1      -2.178  75.402 115.719  0.00  0.00     0.091 C 
ENDROOT
BRANCH   1   7
ATOM      7  O   LIG d   1      -4.504  75.488 116.485  0.00  0.00    -0.368 OA
BRANCH   7   8
ATOM      8  C   LIG d   1      -4.956  74.845 115.268  0.00  0.00     0.119 C 
BRANCH   8   9
ATOM      9  C   LIG d   1      -6.166  75.644 114.745  0.00  0.00     0.028 C 
ATOM     10  C   LIG d   1      -5.988  76.088 113.283  0.00  0.00     0.006 C 
ENDBRANCH   8   9
BRANCH   8  11
ATOM     11  C   LIG d   1      -5.491  73.437 115.546  0.00  0.00     0.028 C 
ATOM     12  C   LIG d   1      -6.461  73.393 116.738  0.00  0.00     0.006 C 
ENDBRANCH   8  11
ENDBRANCH   7   8
ENDBRANCH   1   7
BRANCH   6  13
ATOM     13  N   LIG d   1      -1.696  74.419 116.724  0.00  0.00    -0.311 N 
ATOM     14  C   LIG d   1      -0.753  74.694 117.625  0.00  0.00     0.210 C 
ATOM     15  C   LIG d   1      -0.390  73.532 118.555  0.00  0.00     0.109 C 
ATOM     16  O   LIG d   1      -0.207  75.799 117.762  0.00  0.00    -0.276 OA
ATOM     17  H   LIG d   1      -2.108  73.507 116.705  0.00  0.00     0.149 HD
ENDBRANCH   6  13
BRANCH   5  18
ATOM     18  N   LIG d   1      -0.022  75.523 114.420  0.00  0.00     0.381 N 
ATOM     19  H   LIG d   1       0.341  74.789 114.995  0.00  0.00    -0.090 HD
ATOM     20  H   LIG d   1       0.736  76.138 114.178  0.00  0.00    -0.090 HD
ATOM     21  H   LIG d   1      -0.424  75.139 113.593  0.00  0.00    -0.090 HD
ENDBRANCH   5  18
BRANCH   3  22
ATOM     22  C   LIG d   1      -2.917  79.337 114.336  0.00  0.00     0.382 C 
ATOM     23  O   LIG d   1      -3.396  80.186 115.126  0.00  0.00    -0.241 OA
ATOM     24  O   LIG d   1      -2.678  79.662 113.158  0.00  0.00    -0.241 OA
ENDBRANCH   3  22
TORSDOF 7
ENDMDL
MODEL 5
REMARK VINA RESULT:      -4.7      1.843      2.601
REMARK  7 active torsions:
REMARK  status: ('A' for Active; 'I' for Inactive)
REMARK    1  A    between atoms: C_2  and  C_3 
REMARK    2  A    between atoms: C_3  and  O_6 
REMARK    3  A    between atoms: C_3  and  C_4 
REMARK    4  A    between atoms: C_7  and  O_6 
REMARK    5  A    between atoms: C_9  and  C_10 
REMARK    6  A    between atoms: N_15  and  C_14 
REMARK    7  A    between atoms: N_20  and  C_19 
REMARK       I    between atoms: C_22  and  N_20 
ROOT
ATOM      1  C   LIG d   1      -4.068  77.095 116.749  0.00  0.00     0.161 C 
ATOM      2  C   LIG d   1      -4.909  78.128 117.195  0.00  0.00     0.016 C 
ATOM      3  C   LIG d   1      -4.695  79.492 116.890  0.00  0.00     0.038 C 
ATOM      4  C   LIG d   1      -3.704  79.903 115.987  0.00  0.00     0.028 C 
ATOM      5  C   LIG d   1      -2.519  78.947 115.912  0.00  0.00    -0.047 C 
ATOM      6  C   LIG d   1      -3.045  77.513 115.672  0.00  0.00     0.091 C 
ENDROOT
BRANCH   1   7
ATOM      7  O   LIG d   1      -4.861  75.985 116.283  0.00  0.00    -0.368 OA
BRANCH   7   8
ATOM      8  C   LIG d   1      -6.086  76.325 115.589  0.00  0.00     0.119 C 
BRANCH   8   9
ATOM      9  C   LIG d   1      -7.221  75.492 116.217  0.00  0.00     0.028 C 
ATOM     10  C   LIG d   1      -8.233  76.362 116.980  0.00  0.00     0.006 C 
ENDBRANCH   8   9
BRANCH   8  11
ATOM     11  C   LIG d   1      -6.032  75.893 114.120  0.00  0.00     0.028 C 
ATOM     12  C   LIG d   1      -5.023  74.761 113.869  0.00  0.00     0.006 C 
ENDBRANCH   8  11
ENDBRANCH   7   8
ENDBRANCH   1   7
BRANCH   6  13
ATOM     13  N   LIG d   1      -1.956  76.502 115.669  0.00  0.00    -0.311 N 
ATOM     14  C   LIG d   1      -1.358  76.072 114.559  0.00  0.00     0.210 C 
ATOM     15  C   LIG d   1      -0.274  75.012 114.778  0.00  0.00     0.109 C 
ATOM     16  O   LIG d   1      -1.601  76.490 113.417  0.00  0.00    -0.276 OA
ATOM     17  H   LIG d   1      -1.675  76.132 116.556  0.00  0.00     0.149 HD
ENDBRANCH   6  13
BRANCH   5  18
ATOM     18  N   LIG d   1      -1.629  79.423 114.836  0.00  0.00     0.381 N 
ATOM     19  H   LIG d   1      -2.123  80.064 114.247  0.00  0.00    -0.090 HD
ATOM     20  H   LIG d   1      -1.343  78.638 114.278  0.00  0.00    -0.090 HD
ATOM     21  H   LIG d   1      -0.829  79.870 115.228  0.00  0.00    -0.090 HD
ENDBRANCH   5  18
BRANCH   3  22
ATOM     22  C   LIG d   1      -5.454  80.465 117.523  0.00  0.00     0.382 C 
ATOM     23  O   LIG d   1      -6.139  80.168 118.532  0.00  0.00    -0.241 OA
ATOM     24  O   LIG d   1      -5.497  81.625 117.072  0.00  0.00    -0.241 OA
ENDBRANCH   3  22
TORSDOF 7
ENDMDL
MODEL 6
REMARK VINA RESULT:      -4.6     10.101     12.419
REMARK  7 active torsions:
REMARK  status: ('A' for Active; 'I' for Inactive)
REMARK    1  A    between atoms: C_2  and  C_3 
REMARK    2  A    between atoms: C_3  and  O_6 
REMARK    3  A    between atoms: C_3  and  C_4 
REMARK    4  A    between atoms: C_7  and  O_6 
REMARK    5  A    between atoms: C_9  and  C_10 
REMARK    6  A    between atoms: N_15  and  C_14 
REMARK    7  A    between atoms: N_20  and  C_19 
REMARK       I    between atoms: C_22  and  N_20 
ROOT
ATOM      1  C   LIG d   1       2.167  85.390 114.148  0.00  0.00     0.161 C 
ATOM      2  C   LIG d   1       2.698  86.534 113.530  0.00  0.00     0.016 C 
ATOM      3  C   LIG d   1       3.948  87.096 113.875  0.00  0.00     0.038 C 
ATOM      4  C   LIG d   1       4.827  86.458 114.764  0.00  0.00     0.028 C 
ATOM      5  C   LIG d   1       4.120  85.574 115.785  0.00  0.00    -0.047 C 
ATOM      6  C   LIG d   1       3.160  84.618 115.041  0.00  0.00     0.091 C 
ENDROOT
BRANCH   1   7
ATOM      7  O   LIG d   1       1.603  84.514 113.152  0.00  0.00    -0.368 OA
BRANCH   7   8
ATOM      8  C   LIG d   1       0.163  84.569 112.997  0.00  0.00     0.119 C 
BRANCH   8   9
ATOM      9  C   LIG d   1      -0.417  85.202 114.276  0.00  0.00     0.028 C 
ATOM     10  C   LIG d   1      -1.226  84.197 115.114  0.00  0.00     0.006 C 
ENDBRANCH   8   9
BRANCH   8  11
ATOM     11  C   LIG d   1      -0.444  83.164 112.928  0.00  0.00     0.028 C 
ATOM     12  C   LIG d   1       0.603  82.076 112.642  0.00  0.00     0.006 C 
ENDBRANCH   8  11
ENDBRANCH   7   8
ENDBRANCH   1   7
BRANCH   6  13
ATOM     13  N   LIG d   1       2.366  83.774 115.972  0.00  0.00    -0.311 N 
ATOM     14  C   LIG d   1       2.384  82.443 115.951  0.00  0.00     0.210 C 
ATOM     15  C   LIG d   1       1.476  81.768 116.984  0.00  0.00     0.109 C 
ATOM     16  O   LIG d   1       3.090  81.756 115.197  0.00  0.00    -0.276 OA
ATOM     17  H   LIG d   1       1.789  84.249 116.638  0.00  0.00     0.149 HD
ENDBRANCH   6  13
BRANCH   5  18
ATOM     18  N   LIG d   1       5.159  84.865 116.556  0.00  0.00     0.381 N 
ATOM     19  H   LIG d   1       4.776  84.031 116.954  0.00  0.00    -0.090 HD
ATOM     20  H   LIG d   1       5.470  85.459 117.305  0.00  0.00    -0.090 HD
ATOM     21  H   LIG d   1       5.927  84.637 115.964  0.00  0.00    -0.090 HD
ENDBRANCH   5  18
BRANCH   3  22
ATOM     22  C   LIG d   1       4.314  88.330 113.359  0.00  0.00     0.382 C 
ATOM     23  O   LIG d   1       5.490  88.521 112.966  0.00  0.00    -0.241 OA
ATOM     24  O   LIG d   1       3.495  89.267 113.322  0.00  0.00    -0.241 OA
ENDBRANCH   3  22
TORSDOF 7
ENDMDL
MODEL 7
REMARK VINA RESULT:      -4.6      7.632      9.775
REMARK  7 active torsions:
REMARK  status: ('A' for Active; 'I' for Inactive)
REMARK    1  A    between atoms: C_2  and  C_3 
REMARK    2  A    between atoms: C_3  and  O_6 
REMARK    3  A    between atoms: C_3  and  C_4 
REMARK    4  A    between atoms: C_7  and  O_6 
REMARK    5  A    between atoms: C_9  and  C_10 
REMARK    6  A    between atoms: N_15  and  C_14 
REMARK    7  A    between atoms: N_20  and  C_19 
REMARK       I    between atoms: C_22  and  N_20 
ROOT
ATOM      1  C   LIG d   1      -0.455  84.121 114.401  0.00  0.00     0.161 C 
ATOM      2  C   LIG d   1      -1.554  83.250 114.318  0.00  0.00     0.016 C 
ATOM      3  C   LIG d   1      -1.550  82.063 113.550  0.00  0.00     0.038 C 
ATOM      4  C   LIG d   1      -0.386  81.586 112.929  0.00  0.00     0.028 C 
ATOM      5  C   LIG d   1       0.604  82.688 112.569  0.00  0.00    -0.047 C 
ATOM      6  C   LIG d   1       0.860  83.560 113.819  0.00  0.00     0.091 C 
ENDROOT
BRANCH   1   7
ATOM      7  O   LIG d   1      -0.261  84.536 115.768  0.00  0.00    -0.368 OA
BRANCH   7   8
ATOM      8  C   LIG d   1       0.280  83.537 116.666  0.00  0.00     0.119 C 
BRANCH   8   9
ATOM      9  C   LIG d   1      -0.779  83.267 117.752  0.00  0.00     0.028 C 
ATOM     10  C   LIG d   1      -0.937  81.769 118.059  0.00  0.00     0.006 C 
ENDBRANCH   8   9
BRANCH   8  11
ATOM     11  C   LIG d   1       1.505  84.068 117.417  0.00  0.00     0.028 C 
ATOM     12  C   LIG d   1       1.775  85.555 117.140  0.00  0.00     0.006 C 
ENDBRANCH   8  11
ENDBRANCH   7   8
ENDBRANCH   1   7
BRANCH   6  13
ATOM     13  N   LIG d   1       1.753  84.713 113.533  0.00  0.00    -0.311 N 
ATOM     14  C   LIG d   1       3.066  84.696 113.756  0.00  0.00     0.210 C 
ATOM     15  C   LIG d   1       3.798  85.997 113.409  0.00  0.00     0.109 C 
ATOM     16  O   LIG d   1       3.700  83.716 114.177  0.00  0.00    -0.276 OA
ATOM     17  H   LIG d   1       1.327  85.539 113.160  0.00  0.00     0.149 HD
ENDBRANCH   6  13
BRANCH   5  18
ATOM     18  N   LIG d   1       1.826  82.039 112.056  0.00  0.00     0.381 N 
ATOM     19  H   LIG d   1       1.649  81.069 111.888  0.00  0.00    -0.090 HD
ATOM     20  H   LIG d   1       2.548  82.113 112.751  0.00  0.00    -0.090 HD
ATOM     21  H   LIG d   1       2.119  82.482 111.214  0.00  0.00    -0.090 HD
ENDBRANCH   5  18
BRANCH   3  22
ATOM     22  C   LIG d   1      -2.731  81.360 113.365  0.00  0.00     0.382 C 
ATOM     23  O   LIG d   1      -3.111  80.535 114.230  0.00  0.00    -0.241 OA
ATOM     24  O   LIG d   1      -3.398  81.510 112.324  0.00  0.00    -0.241 OA
ENDBRANCH   3  22
TORSDOF 7
ENDMDL
MODEL 8
REMARK VINA RESULT:      -4.6      3.118      5.447
REMARK  7 active torsions:
REMARK  status: ('A' for Active; 'I' for Inactive)
REMARK    1  A    between atoms: C_2  and  C_3 
REMARK    2  A    between atoms: C_3  and  O_6 
REMARK    3  A    between atoms: C_3  and  C_4 
REMARK    4  A    between atoms: C_7  and  O_6 
REMARK    5  A    between atoms: C_9  and  C_10 
REMARK    6  A    between atoms: N_15  and  C_14 
REMARK    7  A    between atoms: N_20  and  C_19 
REMARK       I    between atoms: C_22  and  N_20 
ROOT
ATOM      1  C   LIG d   1      -1.509  77.485 114.839  0.00  0.00     0.161 C 
ATOM      2  C   LIG d   1      -2.747  77.196 114.241  0.00  0.00     0.016 C 
ATOM      3  C   LIG d   1      -3.515  76.051 114.556  0.00  0.00     0.038 C 
ATOM      4  C   LIG d   1      -3.166  75.190 115.607  0.00  0.00     0.028 C 
ATOM      5  C   LIG d   1      -1.669  75.164 115.896  0.00  0.00    -0.047 C 
ATOM      6  C   LIG d   1      -1.166  76.616 116.067  0.00  0.00     0.091 C 
ENDROOT
BRANCH   1   7
ATOM      7  O   LIG d   1      -1.447  78.883 115.182  0.00  0.00    -0.368 OA
BRANCH   7   8
ATOM      8  C   LIG d   1      -2.690  79.620 115.084  0.00  0.00     0.119 C 
BRANCH   8   9
ATOM      9  C   LIG d   1      -2.370  80.987 114.450  0.00  0.00     0.028 C 
ATOM     10  C   LIG d   1      -2.592  80.995 112.928  0.00  0.00     0.006 C 
ENDBRANCH   8   9
BRANCH   8  11
ATOM     11  C   LIG d   1      -3.259  79.939 116.470  0.00  0.00     0.028 C 
ATOM     12  C   LIG d   1      -4.595  79.230 116.743  0.00  0.00     0.006 C 
ENDBRANCH   8  11
ENDBRANCH   7   8
ENDBRANCH   1   7
BRANCH   6  13
ATOM     13  N   LIG d   1       0.305  76.685 116.269  0.00  0.00    -0.311 N 
ATOM     14  C   LIG d   1       0.880  76.693 117.471  0.00  0.00     0.210 C 
ATOM     15  C   LIG d   1       2.409  76.790 117.456  0.00  0.00     0.109 C 
ATOM     16  O   LIG d   1       0.271  76.596 118.547  0.00  0.00    -0.276 OA
ATOM     17  H   LIG d   1       0.877  76.735 115.449  0.00  0.00     0.149 HD
ENDBRANCH   6  13
BRANCH   5  18
ATOM     18  N   LIG d   1      -1.462  74.336 117.099  0.00  0.00     0.381 N 
ATOM     19  H   LIG d   1      -0.699  73.706 116.950  0.00  0.00    -0.090 HD
ATOM     20  H   LIG d   1      -2.291  73.793 117.266  0.00  0.00    -0.090 HD
ATOM     21  H   LIG d   1      -1.273  74.917 117.886  0.00  0.00    -0.090 HD
ENDBRANCH   5  18
BRANCH   3  22
ATOM     22  C   LIG d   1      -4.627  75.737 113.788  0.00  0.00     0.382 C 
ATOM     23  O   LIG d   1      -4.807  74.558 113.401  0.00  0.00    -0.241 OA
ATOM     24  O   LIG d   1      -5.427  76.626 113.441  0.00  0.00    -0.241 OA
ENDBRANCH   3  22
TORSDOF 7
ENDMDL
MODEL 9
REMARK VINA RESULT:      -4.5      2.360      4.385
REMARK  7 active torsions:
REMARK  status: ('A' for Active; 'I' for Inactive)
REMARK    1  A    between atoms: C_2  and  C_3 
REMARK    2  A    between atoms: C_3  and  O_6 
REMARK    3  A    between atoms: C_3  and  C_4 
REMARK    4  A    between atoms: C_7  and  O_6 
REMARK    5  A    between atoms: C_9  and  C_10 
REMARK    6  A    between atoms: N_15  and  C_14 
REMARK    7  A    between atoms: N_20  and  C_19 
REMARK       I    between atoms: C_22  and  N_20 
ROOT
ATOM      1  C   LIG d   1      -5.406  77.003 116.558  0.00  0.00     0.161 C 
ATOM      2  C   LIG d   1      -5.831  78.246 117.057  0.00  0.00     0.016 C 
ATOM      3  C   LIG d   1      -7.146  78.493 117.513  0.00  0.00     0.038 C 
ATOM      4  C   LIG d   1      -8.091  77.464 117.644  0.00  0.00     0.028 C 
ATOM      5  C   LIG d   1      -7.861  76.304 116.681  0.00  0.00    -0.047 C 
ATOM      6  C   LIG d   1      -6.391  75.840 116.797  0.00  0.00     0.091 C 
ENDROOT
BRANCH   1   7
ATOM      7  O   LIG d   1      -4.108  76.680 117.095  0.00  0.00    -0.368 OA
BRANCH   7   8
ATOM      8  C   LIG d   1      -3.021  76.613 116.140  0.00  0.00     0.119 C 
BRANCH   8   9
ATOM      9  C   LIG d   1      -3.573  77.078 114.778  0.00  0.00     0.028 C 
ATOM     10  C   LIG d   1      -2.703  78.171 114.134  0.00  0.00     0.006 C 
ENDBRANCH   8   9
BRANCH   8  11
ATOM     11  C   LIG d   1      -2.561  75.169 115.919  0.00  0.00     0.028 C 
ATOM     12  C   LIG d   1      -1.268  74.833 116.680  0.00  0.00     0.006 C 
ENDBRANCH   8  11
ENDBRANCH   7   8
ENDBRANCH   1   7
BRANCH   6  13
ATOM     13  N   LIG d   1      -6.058  74.763 115.828  0.00  0.00    -0.311 N 
ATOM     14  C   LIG d   1      -6.106  73.466 116.128  0.00  0.00     0.210 C 
ATOM     15  C   LIG d   1      -5.705  72.524 114.989  0.00  0.00     0.109 C 
ATOM     16  O   LIG d   1      -6.474  73.006 117.219  0.00  0.00    -0.276 OA
ATOM     17  H   LIG d   1      -5.780  75.047 114.909  0.00  0.00     0.149 HD
ENDBRANCH   6  13
BRANCH   5  18
ATOM     18  N   LIG d   1      -8.830  75.245 117.019  0.00  0.00     0.381 N 
ATOM     19  H   LIG d   1      -9.394  75.536 117.792  0.00  0.00    -0.090 HD
ATOM     20  H   LIG d   1      -8.327  74.418 117.290  0.00  0.00    -0.090 HD
ATOM     21  H   LIG d   1      -9.408  75.048 116.232  0.00  0.00    -0.090 HD
ENDBRANCH   5  18
BRANCH   3  22
ATOM     22  C   LIG d   1      -7.540  79.789 117.807  0.00  0.00     0.382 C 
ATOM     23  O   LIG d   1      -8.598  79.993 118.451  0.00  0.00    -0.241 OA
ATOM     24  O   LIG d   1      -6.874  80.760 117.399  0.00  0.00    -0.241 OA
ENDBRANCH   3  22
TORSDOF 7
ENDMDL
