MODEL 1
REMARK VINA RESULT:      -4.6      0.000      0.000
REMARK  7 active torsions:
REMARK  status: ('A' for Active; 'I' for Inactive)
REMARK    1  A    between atoms: C_2  and  C_3 
REMARK    2  A    between atoms: C_3  and  O_6 
REMARK    3  A    between atoms: C_3  and  C_4 
REMARK    4  A    between atoms: C_7  and  O_6 
REMARK    5  A    between atoms: C_9  and  C_10 
REMARK    6  A    between atoms: N_15  and  C_14 
REMARK    7  A    between atoms: N_20  and  C_19 
REMARK       I    between atoms: C_22  and  N_20 
ROOT
ATOM      1  C   LIG d   1       1.989  87.320 115.431  0.00  0.00     0.161 C 
ATOM      2  C   LIG d   1       2.025  88.709 115.637  0.00  0.00     0.016 C 
ATOM      3  C   LIG d   1       2.927  89.340 116.524  0.00  0.00     0.038 C 
ATOM      4  C   LIG d   1       3.962  88.635 117.156  0.00  0.00     0.028 C 
ATOM      5  C   LIG d   1       3.646  87.158 117.369  0.00  0.00    -0.047 C 
ATOM      6  C   LIG d   1       3.183  86.546 116.027  0.00  0.00     0.091 C 
ENDROOT
BRANCH   1   7
ATOM      7  O   LIG d   1       1.862  87.038 114.023  0.00  0.00    -0.368 OA
BRANCH   7   8
ATOM      8  C   LIG d   1       3.095  86.755 113.316  0.00  0.00     0.119 C 
BRANCH   8   9
ATOM      9  C   LIG d   1       3.414  87.978 112.434  0.00  0.00     0.028 C 
ATOM     10  C   LIG d   1       4.598  88.797 112.973  0.00  0.00     0.006 C 
ENDBRANCH   8   9
BRANCH   8  11
ATOM     11  C   LIG d   1       2.922  85.586 112.342  0.00  0.00     0.028 C 
ATOM     12  C   LIG d   1       1.722  84.692 112.690  0.00  0.00     0.006 C 
ENDBRANCH   8  11
ENDBRANCH   7   8
ENDBRANCH   1   7
BRANCH   6  13
ATOM     13  N   LIG d   1       2.773  85.124 116.164  0.00  0.00    -0.311 N 
ATOM     14  C   LIG d   1       3.573  84.099 115.872  0.00  0.00     0.210 C 
ATOM     15  C   LIG d   1       2.946  82.715 116.065  0.00  0.00     0.109 C 
ATOM     16  O   LIG d   1       4.752  84.205 115.502  0.00  0.00    -0.276 OA
ATOM     17  H   LIG d   1       1.843  84.946 116.489  0.00  0.00     0.149 HD
ENDBRANCH   6  13
BRANCH   5  18
ATOM     18  N   LIG d   1       4.859  86.516 117.909  0.00  0.00     0.381 N 
ATOM     19  H   LIG d   1       5.391  86.115 117.163  0.00  0.00    -0.090 HD
ATOM     20  H   LIG d   1       4.586  85.777 118.533  0.00  0.00    -0.090 HD
ATOM     21  H   LIG d   1       5.411  87.186 118.398  0.00  0.00    -0.090 HD
ENDBRANCH   5  18
BRANCH   3  22
ATOM     22  C   LIG d   1       2.773  90.687 116.817  0.00  0.00     0.382 C 
ATOM     23  O   LIG d   1       1.664  91.120 117.212  0.00  0.00    -0.241 OA
ATOM     24  O   LIG d   1       3.718  91.482 116.650  0.00  0.00    -0.241 OA
ENDBRANCH   3  22
TORSDOF 7
ENDMDL
MODEL 2
REMARK VINA RESULT:      -4.6     13.135     16.479
REMARK  7 active torsions:
REMARK  status: ('A' for Active; 'I' for Inactive)
REMARK    1  A    between atoms: C_2  and  C_3 
REMARK    2  A    between atoms: C_3  and  O_6 
REMARK    3  A    between atoms: C_3  and  C_4 
REMARK    4  A    between atoms: C_7  and  O_6 
REMARK    5  A    between atoms: C_9  and  C_10 
REMARK    6  A    between atoms: N_15  and  C_14 
REMARK    7  A    between atoms: N_20  and  C_19 
REMARK       I    between atoms: C_22  and  N_20 
ROOT
ATOM      1  C   LIG d   1      -5.877  74.256 116.744  0.00  0.00     0.161 C 
ATOM      2  C   LIG d   1      -6.540  73.089 116.329  0.00  0.00     0.016 C 
ATOM      3  C   LIG d   1      -7.937  72.905 116.444  0.00  0.00     0.038 C 
ATOM      4  C   LIG d   1      -8.791  73.943 116.847  0.00  0.00     0.028 C 
ATOM      5  C   LIG d   1      -8.115  74.967 117.752  0.00  0.00    -0.047 C 
ATOM      6  C   LIG d   1      -6.805  75.442 117.083  0.00  0.00     0.091 C 
ENDROOT
BRANCH   1   7
ATOM      7  O   LIG d   1      -4.908  74.647 115.752  0.00  0.00    -0.368 OA
BRANCH   7   8
ATOM      8  C   LIG d   1      -3.518  74.419 116.094  0.00  0.00     0.119 C 
BRANCH   8   9
ATOM      9  C   LIG d   1      -3.468  74.010 117.579  0.00  0.00     0.028 C 
ATOM     10  C   LIG d   1      -2.045  74.074 118.158  0.00  0.00     0.006 C 
ENDBRANCH   8   9
BRANCH   8  11
ATOM     11  C   LIG d   1      -2.703  75.712 116.002  0.00  0.00     0.028 C 
ATOM     12  C   LIG d   1      -3.139  76.610 114.834  0.00  0.00     0.006 C 
ENDBRANCH   8  11
ENDBRANCH   7   8
ENDBRANCH   1   7
BRANCH   6  13
ATOM     13  N   LIG d   1      -6.039  76.382 117.941  0.00  0.00    -0.311 N 
ATOM     14  C   LIG d   1      -5.587  77.561 117.515  0.00  0.00     0.210 C 
ATOM     15  C   LIG d   1      -4.803  78.367 118.555  0.00  0.00     0.109 C 
ATOM     16  O   LIG d   1      -5.790  78.029 116.384  0.00  0.00    -0.276 OA
ATOM     17  H   LIG d   1      -5.856  76.096 118.882  0.00  0.00     0.149 HD
ENDBRANCH   6  13
BRANCH   5  18
ATOM     18  N   LIG d   1      -9.077  76.062 117.983  0.00  0.00     0.381 N 
ATOM     19  H   LIG d   1      -9.902  75.907 117.439  0.00  0.00    -0.090 HD
ATOM     20  H   LIG d   1      -8.661  76.927 117.686  0.00  0.00    -0.090 HD
ATOM     21  H   LIG d   1      -9.311  76.112 118.950  0.00  0.00    -0.090 HD
ENDBRANCH   5  18
BRANCH   3  22
ATOM     22  C   LIG d   1      -8.489  71.658 116.193  0.00  0.00     0.382 C 
ATOM     23  O   LIG d   1      -7.747  70.695 115.885  0.00  0.00    -0.241 OA
ATOM     24  O   LIG d   1      -9.723  71.495 116.228  0.00  0.00    -0.241 OA
ENDBRANCH   3  22
TORSDOF 7
ENDMDL
MODEL 3
REMARK VINA RESULT:      -4.3     28.397     31.256
REMARK  7 active torsions:
REMARK  status: ('A' for Active; 'I' for Inactive)
REMARK    1  A    between atoms: C_2  and  C_3 
REMARK    2  A    between atoms: C_3  and  O_6 
REMARK    3  A    between atoms: C_3  and  C_4 
REMARK    4  A    between atoms: C_7  and  O_6 
REMARK    5  A    between atoms: C_9  and  C_10 
REMARK    6  A    between atoms: N_15  and  C_14 
REMARK    7  A    between atoms: N_20  and  C_19 
REMARK       I    between atoms: C_22  and  N_20 
ROOT
ATOM      1  C   LIG d   1     -16.911  63.494 116.255  0.00  0.00     0.161 C 
ATOM      2  C   LIG d   1     -16.270  64.513 116.979  0.00  0.00     0.016 C 
ATOM      3  C   LIG d   1     -15.933  65.769 116.424  0.00  0.00     0.038 C 
ATOM      4  C   LIG d   1     -16.353  66.148 115.140  0.00  0.00     0.028 C 
ATOM      5  C   LIG d   1     -16.561  64.968 114.197  0.00  0.00    -0.047 C 
ATOM      6  C   LIG d   1     -17.476  63.931 114.887  0.00  0.00     0.091 C 
ENDROOT
BRANCH   1   7
ATOM      7  O   LIG d   1     -17.950  62.902 117.060  0.00  0.00    -0.368 OA
BRANCH   7   8
ATOM      8  C   LIG d   1     -17.645  61.613 117.647  0.00  0.00     0.119 C 
BRANCH   8   9
ATOM      9  C   LIG d   1     -16.194  61.262 117.265  0.00  0.00     0.028 C 
ATOM     10  C   LIG d   1     -15.265  61.191 118.489  0.00  0.00     0.006 C 
ENDBRANCH   8   9
BRANCH   8  11
ATOM     11  C   LIG d   1     -18.505  60.504 117.035  0.00  0.00     0.028 C 
ATOM     12  C   LIG d   1     -17.786  59.746 115.908  0.00  0.00     0.006 C 
ENDBRANCH   8  11
ENDBRANCH   7   8
ENDBRANCH   1   7
BRANCH   6  13
ATOM     13  N   LIG d   1     -17.663  62.706 114.066  0.00  0.00    -0.311 N 
ATOM     14  C   LIG d   1     -18.706  62.515 113.260  0.00  0.00     0.210 C 
ATOM     15  C   LIG d   1     -18.716  61.174 112.520  0.00  0.00     0.109 C 
ATOM     16  O   LIG d   1     -19.608  63.344 113.064  0.00  0.00    -0.276 OA
ATOM     17  H   LIG d   1     -16.962  61.995 114.141  0.00  0.00     0.149 HD
ENDBRANCH   6  13
BRANCH   5  18
ATOM     18  N   LIG d   1     -17.128  65.495 112.942  0.00  0.00     0.381 N 
ATOM     19  H   LIG d   1     -17.443  64.739 112.368  0.00  0.00    -0.090 HD
ATOM     20  H   LIG d   1     -16.411  65.992 112.444  0.00  0.00    -0.090 HD
ATOM     21  H   LIG d   1     -17.888  66.108 113.142  0.00  0.00    -0.090 HD
ENDBRANCH   5  18
BRANCH   3  22
ATOM     22  C   LIG d   1     -15.133  66.645 117.141  0.00  0.00     0.382 C 
ATOM     23  O   LIG d   1     -15.590  67.223 118.157  0.00  0.00    -0.241 OA
ATOM     24  O   LIG d   1     -13.974  66.899 116.760  0.00  0.00    -0.241 OA
ENDBRANCH   3  22
TORSDOF 7
ENDMDL
MODEL 4
REMARK VINA RESULT:      -4.2      2.041      3.064
REMARK  7 active torsions:
REMARK  status: ('A' for Active; 'I' for Inactive)
REMARK    1  A    between atoms: C_2  and  C_3 
REMARK    2  A    between atoms: C_3  and  O_6 
REMARK    3  A    between atoms: C_3  and  C_4 
REMARK    4  A    between atoms: C_7  and  O_6 
REMARK    5  A    between atoms: C_9  and  C_10 
REMARK    6  A    between atoms: N_15  and  C_14 
REMARK    7  A    between atoms: N_20  and  C_19 
REMARK       I    between atoms: C_22  and  N_20 
ROOT
ATOM      1  C   LIG d   1       3.457  87.104 115.744  0.00  0.00     0.161 C 
ATOM      2  C   LIG d   1       2.347  87.964 115.714  0.00  0.00     0.016 C 
ATOM      3  C   LIG d   1       2.308  89.209 116.384  0.00  0.00     0.038 C 
ATOM      4  C   LIG d   1       3.442  89.749 117.010  0.00  0.00     0.028 C 
ATOM      5  C   LIG d   1       4.428  88.692 117.495  0.00  0.00    -0.047 C 
ATOM      6  C   LIG d   1       4.742  87.726 116.329  0.00  0.00     0.091 C 
ENDROOT
BRANCH   1   7
ATOM      7  O   LIG d   1       3.708  86.584 114.423  0.00  0.00    -0.368 OA
BRANCH   7   8
ATOM      8  C   LIG d   1       2.960  87.197 113.344  0.00  0.00     0.119 C 
BRANCH   8   9
ATOM      9  C   LIG d   1       2.316  86.063 112.525  0.00  0.00     0.028 C 
ATOM     10  C   LIG d   1       0.968  85.609 113.109  0.00  0.00     0.006 C 
ENDBRANCH   8   9
BRANCH   8  11
ATOM     11  C   LIG d   1       3.888  87.927 112.368  0.00  0.00     0.028 C 
ATOM     12  C   LIG d   1       4.676  89.066 113.033  0.00  0.00     0.006 C 
ENDBRANCH   8  11
ENDBRANCH   7   8
ENDBRANCH   1   7
BRANCH   6  13
ATOM     13  N   LIG d   1       5.634  86.611 116.741  0.00  0.00    -0.311 N 
ATOM     14  C   LIG d   1       6.950  86.612 116.537  0.00  0.00     0.210 C 
ATOM     15  C   LIG d   1       7.680  85.356 117.021  0.00  0.00     0.109 C 
ATOM     16  O   LIG d   1       7.587  87.548 116.030  0.00  0.00    -0.276 OA
ATOM     17  H   LIG d   1       5.205  85.825 117.188  0.00  0.00     0.149 HD
ENDBRANCH   6  13
BRANCH   5  18
ATOM     18  N   LIG d   1       5.622  89.395 118.001  0.00  0.00     0.381 N 
ATOM     19  H   LIG d   1       6.342  88.732 118.210  0.00  0.00    -0.090 HD
ATOM     20  H   LIG d   1       5.380  89.876 118.849  0.00  0.00    -0.090 HD
ATOM     21  H   LIG d   1       5.947  90.047 117.322  0.00  0.00    -0.090 HD
ENDBRANCH   5  18
BRANCH   3  22
ATOM     22  C   LIG d   1       1.114  89.908 116.467  0.00  0.00     0.382 C 
ATOM     23  O   LIG d   1       1.068  90.999 117.085  0.00  0.00    -0.241 OA
ATOM     24  O   LIG d   1       0.072  89.441 115.969  0.00  0.00    -0.241 OA
ENDBRANCH   3  22
TORSDOF 7
ENDMDL
MODEL 5
REMARK VINA RESULT:      -4.1     12.232     15.805
REMARK  7 active torsions:
REMARK  status: ('A' for Active; 'I' for Inactive)
REMARK    1  A    between atoms: C_2  and  C_3 
REMARK    2  A    between atoms: C_3  and  O_6 
REMARK    3  A    between atoms: C_3  and  C_4 
REMARK    4  A    between atoms: C_7  and  O_6 
REMARK    5  A    between atoms: C_9  and  C_10 
REMARK    6  A    between atoms: N_15  and  C_14 
REMARK    7  A    between atoms: N_20  and  C_19 
REMARK       I    between atoms: C_22  and  N_20 
ROOT
ATOM      1  C   LIG d   1      -4.730  74.269 116.770  0.00  0.00     0.161 C 
ATOM      2  C   LIG d   1      -5.682  73.258 116.986  0.00  0.00     0.016 C 
ATOM      3  C   LIG d   1      -6.877  73.143 116.238  0.00  0.00     0.038 C 
ATOM      4  C   LIG d   1      -7.131  73.946 115.117  0.00  0.00     0.028 C 
ATOM      5  C   LIG d   1      -6.437  75.303 115.174  0.00  0.00    -0.047 C 
ATOM      6  C   LIG d   1      -4.937  75.087 115.479  0.00  0.00     0.091 C 
ENDROOT
BRANCH   1   7
ATOM      7  O   LIG d   1      -3.404  73.705 116.800  0.00  0.00    -0.368 OA
BRANCH   7   8
ATOM      8  C   LIG d   1      -2.350  74.580 117.270  0.00  0.00     0.119 C 
BRANCH   8   9
ATOM      9  C   LIG d   1      -1.154  73.693 117.667  0.00  0.00     0.028 C 
ATOM     10  C   LIG d   1       0.138  74.504 117.865  0.00  0.00     0.006 C 
ENDBRANCH   8   9
BRANCH   8  11
ATOM     11  C   LIG d   1      -2.760  75.307 118.555  0.00  0.00     0.028 C 
ATOM     12  C   LIG d   1      -2.441  76.810 118.517  0.00  0.00     0.006 C 
ENDBRANCH   8  11
ENDBRANCH   7   8
ENDBRANCH   1   7
BRANCH   6  13
ATOM     13  N   LIG d   1      -4.200  76.368 115.635  0.00  0.00    -0.311 N 
ATOM     14  C   LIG d   1      -3.628  77.014 114.620  0.00  0.00     0.210 C 
ATOM     15  C   LIG d   1      -2.902  78.307 115.004  0.00  0.00     0.109 C 
ATOM     16  O   LIG d   1      -3.681  76.655 113.434  0.00  0.00    -0.276 OA
ATOM     17  H   LIG d   1      -4.135  76.747 116.560  0.00  0.00     0.149 HD
ENDBRANCH   6  13
BRANCH   5  18
ATOM     18  N   LIG d   1      -6.674  75.980 113.885  0.00  0.00     0.381 N 
ATOM     19  H   LIG d   1      -7.628  75.858 113.609  0.00  0.00    -0.090 HD
ATOM     20  H   LIG d   1      -6.087  75.561 113.185  0.00  0.00    -0.090 HD
ATOM     21  H   LIG d   1      -6.465  76.950 113.966  0.00  0.00    -0.090 HD
ENDBRANCH   5  18
BRANCH   3  22
ATOM     22  C   LIG d   1      -7.852  72.240 116.636  0.00  0.00     0.382 C 
ATOM     23  O   LIG d   1      -8.038  71.188 115.979  0.00  0.00    -0.241 OA
ATOM     24  O   LIG d   1      -8.577  72.487 117.619  0.00  0.00    -0.241 OA
ENDBRANCH   3  22
TORSDOF 7
ENDMDL
MODEL 6
REMARK VINA RESULT:      -4.1      3.519      5.271
REMARK  7 active torsions:
REMARK  status: ('A' for Active; 'I' for Inactive)
REMARK    1  A    between atoms: C_2  and  C_3 
REMARK    2  A    between atoms: C_3  and  O_6 
REMARK    3  A    between atoms: C_3  and  C_4 
REMARK    4  A    between atoms: C_7  and  O_6 
REMARK    5  A    between atoms: C_9  and  C_10 
REMARK    6  A    between atoms: N_15  and  C_14 
REMARK    7  A    between atoms: N_20  and  C_19 
REMARK       I    between atoms: C_22  and  N_20 
ROOT
ATOM      1  C   LIG d   1       0.562  89.084 115.908  0.00  0.00     0.161 C 
ATOM      2  C   LIG d   1       1.930  89.346 116.093  0.00  0.00     0.016 C 
ATOM      3  C   LIG d   1       2.420  90.346 116.964  0.00  0.00     0.038 C 
ATOM      4  C   LIG d   1       1.574  91.055 117.829  0.00  0.00     0.028 C 
ATOM      5  C   LIG d   1       0.144  91.177 117.313  0.00  0.00    -0.047 C 
ATOM      6  C   LIG d   1      -0.371  89.772 116.926  0.00  0.00     0.091 C 
ENDROOT
BRANCH   1   7
ATOM      7  O   LIG d   1       0.334  87.661 115.900  0.00  0.00    -0.368 OA
BRANCH   7   8
ATOM      8  C   LIG d   1       1.397  86.842 116.446  0.00  0.00     0.119 C 
BRANCH   8   9
ATOM      9  C   LIG d   1       1.713  85.744 115.413  0.00  0.00     0.028 C 
ATOM     10  C   LIG d   1       2.852  86.144 114.461  0.00  0.00     0.006 C 
ENDBRANCH   8   9
BRANCH   8  11
ATOM     11  C   LIG d   1       0.937  86.097 117.702  0.00  0.00     0.028 C 
ATOM     12  C   LIG d   1       1.110  84.574 117.588  0.00  0.00     0.006 C 
ENDBRANCH   8  11
ENDBRANCH   7   8
ENDBRANCH   1   7
BRANCH   6  13
ATOM     13  N   LIG d   1      -1.733  89.812 116.332  0.00  0.00    -0.311 N 
ATOM     14  C   LIG d   1      -2.847  89.635 117.040  0.00  0.00     0.210 C 
ATOM     15  C   LIG d   1      -4.145  89.695 116.229  0.00  0.00     0.109 C 
ATOM     16  O   LIG d   1      -2.885  89.468 118.268  0.00  0.00    -0.276 OA
ATOM     17  H   LIG d   1      -1.796  89.974 115.346  0.00  0.00     0.149 HD
ENDBRANCH   6  13
BRANCH   5  18
ATOM     18  N   LIG d   1      -0.659  91.816 118.372  0.00  0.00     0.381 N 
ATOM     19  H   LIG d   1      -0.067  92.367 118.961  0.00  0.00    -0.090 HD
ATOM     20  H   LIG d   1      -1.084  91.100 118.935  0.00  0.00    -0.090 HD
ATOM     21  H   LIG d   1      -1.364  92.391 117.966  0.00  0.00    -0.090 HD
ENDBRANCH   5  18
BRANCH   3  22
ATOM     22  C   LIG d   1       3.768  90.672 116.947  0.00  0.00     0.382 C 
ATOM     23  O   LIG d   1       4.120  91.875 116.897  0.00  0.00    -0.241 OA
ATOM     24  O   LIG d   1       4.634  89.778 116.935  0.00  0.00    -0.241 OA
ENDBRANCH   3  22
TORSDOF 7
ENDMDL
MODEL 7
REMARK VINA RESULT:      -4.1     28.373     31.124
REMARK  7 active torsions:
REMARK  status: ('A' for Active; 'I' for Inactive)
REMARK    1  A    between atoms: C_2  and  C_3 
REMARK    2  A    between atoms: C_3  and  O_6 
REMARK    3  A    between atoms: C_3  and  C_4 
REMARK    4  A    between atoms: C_7  and  O_6 
REMARK    5  A    between atoms: C_9  and  C_10 
REMARK    6  A    between atoms: N_15  and  C_14 
REMARK    7  A    between atoms: N_20  and  C_19 
REMARK       I    between atoms: C_22  and  N_20 
ROOT
ATOM      1  C   LIG d   1     -17.565  65.025 114.932  0.00  0.00     0.161 C 
ATOM      2  C   LIG d   1     -16.391  65.074 115.703  0.00  0.00     0.016 C 
ATOM      3  C   LIG d   1     -16.278  65.815 116.902  0.00  0.00     0.038 C 
ATOM      4  C   LIG d   1     -17.385  66.439 117.495  0.00  0.00     0.028 C 
ATOM      5  C   LIG d   1     -18.464  66.837 116.494  0.00  0.00    -0.047 C 
ATOM      6  C   LIG d   1     -18.816  65.610 115.622  0.00  0.00     0.091 C 
ENDROOT
BRANCH   1   7
ATOM      7  O   LIG d   1     -17.815  63.671 114.507  0.00  0.00    -0.368 OA
BRANCH   7   8
ATOM      8  C   LIG d   1     -18.338  62.772 115.516  0.00  0.00     0.119 C 
BRANCH   8   9
ATOM      9  C   LIG d   1     -17.424  61.532 115.551  0.00  0.00     0.028 C 
ATOM     10  C   LIG d   1     -16.442  61.560 116.734  0.00  0.00     0.006 C 
ENDBRANCH   8   9
BRANCH   8  11
ATOM     11  C   LIG d   1     -19.723  62.245 115.128  0.00  0.00     0.028 C 
ATOM     12  C   LIG d   1     -20.001  62.353 113.620  0.00  0.00     0.006 C 
ENDBRANCH   8  11
ENDBRANCH   7   8
ENDBRANCH   1   7
BRANCH   6  13
ATOM     13  N   LIG d   1     -19.804  65.934 114.560  0.00  0.00    -0.311 N 
ATOM     14  C   LIG d   1     -21.115  65.741 114.696  0.00  0.00     0.210 C 
ATOM     15  C   LIG d   1     -21.955  66.124 113.473  0.00  0.00     0.109 C 
ATOM     16  O   LIG d   1     -21.666  65.320 115.725  0.00  0.00    -0.276 OA
ATOM     17  H   LIG d   1     -19.447  66.309 113.704  0.00  0.00     0.149 HD
ENDBRANCH   6  13
BRANCH   5  18
ATOM     18  N   LIG d   1     -19.616  67.350 117.261  0.00  0.00     0.381 N 
ATOM     19  H   LIG d   1     -19.443  68.295 117.540  0.00  0.00    -0.090 HD
ATOM     20  H   LIG d   1     -19.729  66.792 118.089  0.00  0.00    -0.090 HD
ATOM     21  H   LIG d   1     -20.442  67.305 116.706  0.00  0.00    -0.090 HD
ENDBRANCH   5  18
BRANCH   3  22
ATOM     22  C   LIG d   1     -15.036  65.969 117.499  0.00  0.00     0.382 C 
ATOM     23  O   LIG d   1     -14.766  65.346 118.554  0.00  0.00    -0.241 OA
ATOM     24  O   LIG d   1     -14.198  66.756 117.020  0.00  0.00    -0.241 OA
ENDBRANCH   3  22
TORSDOF 7
ENDMDL
MODEL 8
REMARK VINA RESULT:      -4.0     28.456     31.219
REMARK  7 active torsions:
REMARK  status: ('A' for Active; 'I' for Inactive)
REMARK    1  A    between atoms: C_2  and  C_3 
REMARK    2  A    between atoms: C_3  and  O_6 
REMARK    3  A    between atoms: C_3  and  C_4 
REMARK    4  A    between atoms: C_7  and  O_6 
REMARK    5  A    between atoms: C_9  and  C_10 
REMARK    6  A    between atoms: N_15  and  C_14 
REMARK    7  A    between atoms: N_20  and  C_19 
REMARK       I    between atoms: C_22  and  N_20 
ROOT
ATOM      1  C   LIG d   1     -16.927  63.461 116.311  0.00  0.00     0.161 C 
ATOM      2  C   LIG d   1     -16.277  64.478 117.030  0.00  0.00     0.016 C 
ATOM      3  C   LIG d   1     -15.917  65.723 116.466  0.00  0.00     0.038 C 
ATOM      4  C   LIG d   1     -16.321  66.096 115.175  0.00  0.00     0.028 C 
ATOM      5  C   LIG d   1     -16.539  64.910 114.242  0.00  0.00    -0.047 C 
ATOM      6  C   LIG d   1     -17.474  63.892 114.934  0.00  0.00     0.091 C 
ENDROOT
BRANCH   1   7
ATOM      7  O   LIG d   1     -17.981  62.892 117.113  0.00  0.00    -0.368 OA
BRANCH   7   8
ATOM      8  C   LIG d   1     -19.287  63.502 116.975  0.00  0.00     0.119 C 
BRANCH   8   9
ATOM      9  C   LIG d   1     -19.593  64.244 118.290  0.00  0.00     0.028 C 
ATOM     10  C   LIG d   1     -19.600  65.772 118.114  0.00  0.00     0.006 C 
ENDBRANCH   8   9
BRANCH   8  11
ATOM     11  C   LIG d   1     -20.386  62.443 116.842  0.00  0.00     0.028 C 
ATOM     12  C   LIG d   1     -21.518  62.874 115.895  0.00  0.00     0.006 C 
ENDBRANCH   8  11
ENDBRANCH   7   8
ENDBRANCH   1   7
BRANCH   6  13
ATOM     13  N   LIG d   1     -17.672  62.662 114.123  0.00  0.00    -0.311 N 
ATOM     14  C   LIG d   1     -18.688  62.497 113.278  0.00  0.00     0.210 C 
ATOM     15  C   LIG d   1     -18.716  61.146 112.557  0.00  0.00     0.109 C 
ATOM     16  O   LIG d   1     -19.551  63.354 113.033  0.00  0.00    -0.276 OA
ATOM     17  H   LIG d   1     -17.001  61.928 114.237  0.00  0.00     0.149 HD
ENDBRANCH   6  13
BRANCH   5  18
ATOM     18  N   LIG d   1     -17.088  65.433 112.977  0.00  0.00     0.381 N 
ATOM     19  H   LIG d   1     -16.343  65.619 112.335  0.00  0.00    -0.090 HD
ATOM     20  H   LIG d   1     -17.568  66.296 113.163  0.00  0.00    -0.090 HD
ATOM     21  H   LIG d   1     -17.720  64.773 112.580  0.00  0.00    -0.090 HD
ENDBRANCH   5  18
BRANCH   3  22
ATOM     22  C   LIG d   1     -15.111  66.595 117.181  0.00  0.00     0.382 C 
ATOM     23  O   LIG d   1     -15.529  67.101 118.250  0.00  0.00    -0.241 OA
ATOM     24  O   LIG d   1     -13.987  66.915 116.749  0.00  0.00    -0.241 OA
ENDBRANCH   3  22
TORSDOF 7
ENDMDL
MODEL 9
REMARK VINA RESULT:      -4.0     28.597     31.194
REMARK  7 active torsions:
REMARK  status: ('A' for Active; 'I' for Inactive)
REMARK    1  A    between atoms: C_2  and  C_3 
REMARK    2  A    between atoms: C_3  and  O_6 
REMARK    3  A    between atoms: C_3  and  C_4 
REMARK    4  A    between atoms: C_7  and  O_6 
REMARK    5  A    between atoms: C_9  and  C_10 
REMARK    6  A    between atoms: N_15  and  C_14 
REMARK    7  A    between atoms: N_20  and  C_19 
REMARK       I    between atoms: C_22  and  N_20 
ROOT
ATOM      1  C   LIG d   1     -18.072  65.062 114.885  0.00  0.00     0.161 C 
ATOM      2  C   LIG d   1     -16.855  64.951 115.578  0.00  0.00     0.016 C 
ATOM      3  C   LIG d   1     -16.596  65.607 116.804  0.00  0.00     0.038 C 
ATOM      4  C   LIG d   1     -17.597  66.302 117.499  0.00  0.00     0.028 C 
ATOM      5  C   LIG d   1     -18.688  66.860 116.592  0.00  0.00    -0.047 C 
ATOM      6  C   LIG d   1     -19.213  65.726 115.683  0.00  0.00     0.091 C 
ENDROOT
BRANCH   1   7
ATOM      7  O   LIG d   1     -18.482  63.765 114.408  0.00  0.00    -0.368 OA
BRANCH   7   8
ATOM      8  C   LIG d   1     -17.956  63.364 113.119  0.00  0.00     0.119 C 
BRANCH   8   9
ATOM      9  C   LIG d   1     -18.711  64.164 112.041  0.00  0.00     0.028 C 
ATOM     10  C   LIG d   1     -20.207  63.809 111.986  0.00  0.00     0.006 C 
ENDBRANCH   8   9
BRANCH   8  11
ATOM     11  C   LIG d   1     -18.265  61.893 112.824  0.00  0.00     0.028 C 
ATOM     12  C   LIG d   1     -18.325  61.030 114.095  0.00  0.00     0.006 C 
ENDBRANCH   8  11
ENDBRANCH   7   8
ENDBRANCH   1   7
BRANCH   6  13
ATOM     13  N   LIG d   1     -20.226  66.206 114.706  0.00  0.00    -0.311 N 
ATOM     14  C   LIG d   1     -21.539  66.135 114.916  0.00  0.00     0.210 C 
ATOM     15  C   LIG d   1     -22.407  66.667 113.771  0.00  0.00     0.109 C 
ATOM     16  O   LIG d   1     -22.067  65.711 115.955  0.00  0.00    -0.276 OA
ATOM     17  H   LIG d   1     -19.884  66.593 113.848  0.00  0.00     0.149 HD
ENDBRANCH   6  13
BRANCH   5  18
ATOM     18  N   LIG d   1     -19.734  67.439 117.457  0.00  0.00     0.381 N 
ATOM     19  H   LIG d   1     -19.327  67.758 118.313  0.00  0.00    -0.090 HD
ATOM     20  H   LIG d   1     -20.407  66.726 117.674  0.00  0.00    -0.090 HD
ATOM     21  H   LIG d   1     -20.181  68.197 116.991  0.00  0.00    -0.090 HD
ENDBRANCH   5  18
BRANCH   3  22
ATOM     22  C   LIG d   1     -15.312  65.604 117.326  0.00  0.00     0.382 C 
ATOM     23  O   LIG d   1     -14.614  66.647 117.282  0.00  0.00    -0.241 OA
ATOM     24  O   LIG d   1     -14.825  64.561 117.802  0.00  0.00    -0.241 OA
ENDBRANCH   3  22
TORSDOF 7
ENDMDL
