MODEL 1
REMARK VINA RESULT:      -5.4      0.000      0.000
REMARK  7 active torsions:
REMARK  status: ('A' for Active; 'I' for Inactive)
REMARK    1  A    between atoms: C_2  and  C_3 
REMARK    2  A    between atoms: C_3  and  O_6 
REMARK    3  A    between atoms: C_3  and  C_4 
REMARK    4  A    between atoms: C_7  and  O_6 
REMARK    5  A    between atoms: C_9  and  C_10 
REMARK    6  A    between atoms: N_15  and  C_14 
REMARK    7  A    between atoms: N_20  and  C_19 
REMARK       I    between atoms: C_22  and  N_20 
ROOT
ATOM      1  C   LIG d   1      -2.916  77.522 115.911  0.00  0.00     0.161 C 
ATOM      2  C   LIG d   1      -3.163  78.504 114.938  0.00  0.00     0.016 C 
ATOM      3  C   LIG d   1      -2.368  78.672 113.781  0.00  0.00     0.038 C 
ATOM      4  C   LIG d   1      -1.354  77.764 113.441  0.00  0.00     0.028 C 
ATOM      5  C   LIG d   1      -0.744  77.057 114.647  0.00  0.00    -0.047 C 
ATOM      6  C   LIG d   1      -1.881  76.452 115.501  0.00  0.00     0.091 C 
ENDROOT
BRANCH   1   7
ATOM      7  O   LIG d   1      -4.155  76.897 116.301  0.00  0.00    -0.368 OA
BRANCH   7   8
ATOM      8  C   LIG d   1      -4.492  75.667 115.613  0.00  0.00     0.119 C 
BRANCH   8   9
ATOM      9  C   LIG d   1      -5.686  75.968 114.686  0.00  0.00     0.028 C 
ATOM     10  C   LIG d   1      -5.262  76.124 113.216  0.00  0.00     0.006 C 
ENDBRANCH   8   9
BRANCH   8  11
ATOM     11  C   LIG d   1      -4.997  74.602 116.592  0.00  0.00     0.028 C 
ATOM     12  C   LIG d   1      -5.853  73.524 115.909  0.00  0.00     0.006 C 
ENDBRANCH   8  11
ENDBRANCH   7   8
ENDBRANCH   1   7
BRANCH   6  13
ATOM     13  N   LIG d   1      -1.377  75.815 116.746  0.00  0.00    -0.311 N 
ATOM     14  C   LIG d   1      -1.016  74.535 116.819  0.00  0.00     0.210 C 
ATOM     15  C   LIG d   1      -0.544  74.074 118.202  0.00  0.00     0.109 C 
ATOM     16  O   LIG d   1      -1.012  73.745 115.862  0.00  0.00    -0.276 OA
ATOM     17  H   LIG d   1      -1.319  76.391 117.562  0.00  0.00     0.149 HD
ENDBRANCH   6  13
BRANCH   5  18
ATOM     18  N   LIG d   1       0.199  76.043 114.139  0.00  0.00     0.381 N 
ATOM     19  H   LIG d   1       0.884  75.837 114.839  0.00  0.00    -0.090 HD
ATOM     20  H   LIG d   1       0.673  76.414 113.334  0.00  0.00    -0.090 HD
ATOM     21  H   LIG d   1      -0.293  75.213 113.890  0.00  0.00    -0.090 HD
ENDBRANCH   5  18
BRANCH   3  22
ATOM     22  C   LIG d   1      -2.558  79.780 112.970  0.00  0.00     0.382 C 
ATOM     23  O   LIG d   1      -2.093  79.793 111.805  0.00  0.00    -0.241 OA
ATOM     24  O   LIG d   1      -3.151  80.786 113.405  0.00  0.00    -0.241 OA
ENDBRANCH   3  22
TORSDOF 7
ENDMDL
MODEL 2
REMARK VINA RESULT:      -5.3      2.356      4.399
REMARK  7 active torsions:
REMARK  status: ('A' for Active; 'I' for Inactive)
REMARK    1  A    between atoms: C_2  and  C_3 
REMARK    2  A    between atoms: C_3  and  O_6 
REMARK    3  A    between atoms: C_3  and  C_4 
REMARK    4  A    between atoms: C_7  and  O_6 
REMARK    5  A    between atoms: C_9  and  C_10 
REMARK    6  A    between atoms: N_15  and  C_14 
REMARK    7  A    between atoms: N_20  and  C_19 
REMARK       I    between atoms: C_22  and  N_20 
ROOT
ATOM      1  C   LIG d   1      -1.587  77.346 115.045  0.00  0.00     0.161 C 
ATOM      2  C   LIG d   1      -2.906  77.039 114.670  0.00  0.00     0.016 C 
ATOM      3  C   LIG d   1      -3.541  75.817 114.988  0.00  0.00     0.038 C 
ATOM      4  C   LIG d   1      -2.948  74.872 115.839  0.00  0.00     0.028 C 
ATOM      5  C   LIG d   1      -1.423  74.918 115.825  0.00  0.00    -0.047 C 
ATOM      6  C   LIG d   1      -0.963  76.373 116.067  0.00  0.00     0.091 C 
ENDROOT
BRANCH   1   7
ATOM      7  O   LIG d   1      -1.520  78.699 115.535  0.00  0.00    -0.368 OA
BRANCH   7   8
ATOM      8  C   LIG d   1      -2.546  79.603 115.054  0.00  0.00     0.119 C 
BRANCH   8   9
ATOM      9  C   LIG d   1      -1.862  80.629 114.130  0.00  0.00     0.028 C 
ATOM     10  C   LIG d   1      -2.521  80.700 112.742  0.00  0.00     0.006 C 
ENDBRANCH   8   9
BRANCH   8  11
ATOM     11  C   LIG d   1      -3.146  80.424 116.199  0.00  0.00     0.028 C 
ATOM     12  C   LIG d   1      -4.424  79.796 116.777  0.00  0.00     0.006 C 
ENDBRANCH   8  11
ENDBRANCH   7   8
ENDBRANCH   1   7
BRANCH   6  13
ATOM     13  N   LIG d   1       0.514  76.522 115.986  0.00  0.00    -0.311 N 
ATOM     14  C   LIG d   1       1.273  76.878 117.020  0.00  0.00     0.210 C 
ATOM     15  C   LIG d   1       2.770  76.992 116.715  0.00  0.00     0.109 C 
ATOM     16  O   LIG d   1       0.853  77.079 118.170  0.00  0.00    -0.276 OA
ATOM     17  H   LIG d   1       0.941  76.347 115.097  0.00  0.00     0.149 HD
ENDBRANCH   6  13
BRANCH   5  18
ATOM     18  N   LIG d   1      -0.940  73.979 116.854  0.00  0.00     0.381 N 
ATOM     19  H   LIG d   1      -0.852  73.062 116.463  0.00  0.00    -0.090 HD
ATOM     20  H   LIG d   1      -1.612  73.940 117.601  0.00  0.00    -0.090 HD
ATOM     21  H   LIG d   1      -0.059  74.283 117.206  0.00  0.00    -0.090 HD
ENDBRANCH   5  18
BRANCH   3  22
ATOM     22  C   LIG d   1      -4.769  75.512 114.421  0.00  0.00     0.382 C 
ATOM     23  O   LIG d   1      -5.712  75.111 115.145  0.00  0.00    -0.241 OA
ATOM     24  O   LIG d   1      -4.932  75.591 113.188  0.00  0.00    -0.241 OA
ENDBRANCH   3  22
TORSDOF 7
ENDMDL
MODEL 3
REMARK VINA RESULT:      -5.0     11.315     13.581
REMARK  7 active torsions:
REMARK  status: ('A' for Active; 'I' for Inactive)
REMARK    1  A    between atoms: C_2  and  C_3 
REMARK    2  A    between atoms: C_3  and  O_6 
REMARK    3  A    between atoms: C_3  and  C_4 
REMARK    4  A    between atoms: C_7  and  O_6 
REMARK    5  A    between atoms: C_9  and  C_10 
REMARK    6  A    between atoms: N_15  and  C_14 
REMARK    7  A    between atoms: N_20  and  C_19 
REMARK       I    between atoms: C_22  and  N_20 
ROOT
ATOM      1  C   LIG d   1       3.531  88.194 115.777  0.00  0.00     0.161 C 
ATOM      2  C   LIG d   1       2.716  87.592 114.804  0.00  0.00     0.016 C 
ATOM      3  C   LIG d   1       3.048  87.546 113.431  0.00  0.00     0.038 C 
ATOM      4  C   LIG d   1       4.298  87.969 112.955  0.00  0.00     0.028 C 
ATOM      5  C   LIG d   1       4.945  89.042 113.825  0.00  0.00    -0.047 C 
ATOM      6  C   LIG d   1       4.950  88.562 115.294  0.00  0.00     0.091 C 
ENDROOT
BRANCH   1   7
ATOM      7  O   LIG d   1       3.602  87.352 116.944  0.00  0.00    -0.368 OA
BRANCH   7   8
ATOM      8  C   LIG d   1       2.782  87.751 118.070  0.00  0.00     0.119 C 
BRANCH   8   9
ATOM      9  C   LIG d   1       1.588  86.779 118.140  0.00  0.00     0.028 C 
ATOM     10  C   LIG d   1       1.969  85.350 117.719  0.00  0.00     0.006 C 
ENDBRANCH   8   9
BRANCH   8  11
ATOM     11  C   LIG d   1       2.165  89.135 117.846  0.00  0.00     0.028 C 
ATOM     12  C   LIG d   1       0.634  89.092 117.719  0.00  0.00     0.006 C 
ENDBRANCH   8  11
ENDBRANCH   7   8
ENDBRANCH   1   7
BRANCH   6  13
ATOM     13  N   LIG d   1       5.489  89.588 116.224  0.00  0.00    -0.311 N 
ATOM     14  C   LIG d   1       6.453  89.341 117.109  0.00  0.00     0.210 C 
ATOM     15  C   LIG d   1       6.848  90.535 117.985  0.00  0.00     0.109 C 
ATOM     16  O   LIG d   1       7.041  88.256 117.230  0.00  0.00    -0.276 OA
ATOM     17  H   LIG d   1       5.091  90.506 116.172  0.00  0.00     0.149 HD
ENDBRANCH   6  13
BRANCH   5  18
ATOM     18  N   LIG d   1       6.298  89.291 113.293  0.00  0.00     0.381 N 
ATOM     19  H   LIG d   1       6.570  88.538 112.693  0.00  0.00    -0.090 HD
ATOM     20  H   LIG d   1       6.946  89.332 114.060  0.00  0.00    -0.090 HD
ATOM     21  H   LIG d   1       6.314  90.149 112.788  0.00  0.00    -0.090 HD
ENDBRANCH   5  18
BRANCH   3  22
ATOM     22  C   LIG d   1       2.107  87.109 112.511  0.00  0.00     0.382 C 
ATOM     23  O   LIG d   1       1.470  87.941 111.821  0.00  0.00    -0.241 OA
ATOM     24  O   LIG d   1       1.856  85.895 112.393  0.00  0.00    -0.241 OA
ENDBRANCH   3  22
TORSDOF 7
ENDMDL
MODEL 4
REMARK VINA RESULT:      -4.7     11.148     13.456
REMARK  7 active torsions:
REMARK  status: ('A' for Active; 'I' for Inactive)
REMARK    1  A    between atoms: C_2  and  C_3 
REMARK    2  A    between atoms: C_3  and  O_6 
REMARK    3  A    between atoms: C_3  and  C_4 
REMARK    4  A    between atoms: C_7  and  O_6 
REMARK    5  A    between atoms: C_9  and  C_10 
REMARK    6  A    between atoms: N_15  and  C_14 
REMARK    7  A    between atoms: N_20  and  C_19 
REMARK       I    between atoms: C_22  and  N_20 
ROOT
ATOM      1  C   LIG d   1       2.684  88.095 115.947  0.00  0.00     0.161 C 
ATOM      2  C   LIG d   1       2.963  89.451 116.189  0.00  0.00     0.016 C 
ATOM      3  C   LIG d   1       3.985  89.891 117.061  0.00  0.00     0.038 C 
ATOM      4  C   LIG d   1       4.903  89.001 117.637  0.00  0.00     0.028 C 
ATOM      5  C   LIG d   1       4.346  87.593 117.822  0.00  0.00    -0.047 C 
ATOM      6  C   LIG d   1       3.746  87.111 116.481  0.00  0.00     0.091 C 
ENDROOT
BRANCH   1   7
ATOM      7  O   LIG d   1       2.469  87.884 114.538  0.00  0.00    -0.368 OA
BRANCH   7   8
ATOM      8  C   LIG d   1       3.648  87.580 113.752  0.00  0.00     0.119 C 
BRANCH   8   9
ATOM      9  C   LIG d   1       4.228  88.917 113.252  0.00  0.00     0.028 C 
ATOM     10  C   LIG d   1       5.710  89.090 113.626  0.00  0.00     0.006 C 
ENDBRANCH   8   9
BRANCH   8  11
ATOM     11  C   LIG d   1       3.287  86.797 112.487  0.00  0.00     0.028 C 
ATOM     12  C   LIG d   1       3.369  85.275 112.684  0.00  0.00     0.006 C 
ENDBRANCH   8  11
ENDBRANCH   7   8
ENDBRANCH   1   7
BRANCH   6  13
ATOM     13  N   LIG d   1       3.105  85.775 116.595  0.00  0.00    -0.311 N 
ATOM     14  C   LIG d   1       3.743  84.632 116.348  0.00  0.00     0.210 C 
ATOM     15  C   LIG d   1       2.890  83.369 116.505  0.00  0.00     0.109 C 
ATOM     16  O   LIG d   1       4.942  84.543 116.045  0.00  0.00    -0.276 OA
ATOM     17  H   LIG d   1       2.141  85.753 116.866  0.00  0.00     0.149 HD
ENDBRANCH   6  13
BRANCH   5  18
ATOM     18  N   LIG d   1       5.448  86.738 118.302  0.00  0.00     0.381 N 
ATOM     19  H   LIG d   1       5.714  87.014 119.226  0.00  0.00    -0.090 HD
ATOM     20  H   LIG d   1       6.241  86.858 117.697  0.00  0.00    -0.090 HD
ATOM     21  H   LIG d   1       5.164  85.783 118.302  0.00  0.00    -0.090 HD
ENDBRANCH   5  18
BRANCH   3  22
ATOM     22  C   LIG d   1       4.072  91.234 117.395  0.00  0.00     0.382 C 
ATOM     23  O   LIG d   1       4.970  91.629 118.177  0.00  0.00    -0.241 OA
ATOM     24  O   LIG d   1       3.237  92.049 116.959  0.00  0.00    -0.241 OA
ENDBRANCH   3  22
TORSDOF 7
ENDMDL
MODEL 5
REMARK VINA RESULT:      -4.6     13.175     15.193
REMARK  7 active torsions:
REMARK  status: ('A' for Active; 'I' for Inactive)
REMARK    1  A    between atoms: C_2  and  C_3 
REMARK    2  A    between atoms: C_3  and  O_6 
REMARK    3  A    between atoms: C_3  and  C_4 
REMARK    4  A    between atoms: C_7  and  O_6 
REMARK    5  A    between atoms: C_9  and  C_10 
REMARK    6  A    between atoms: N_15  and  C_14 
REMARK    7  A    between atoms: N_20  and  C_19 
REMARK       I    between atoms: C_22  and  N_20 
ROOT
ATOM      1  C   LIG d   1      11.693  76.193 114.889  0.00  0.00     0.161 C 
ATOM      2  C   LIG d   1      10.346  76.589 114.941  0.00  0.00     0.016 C 
ATOM      3  C   LIG d   1       9.921  77.925 114.763  0.00  0.00     0.038 C 
ATOM      4  C   LIG d   1      10.806  78.939 114.369  0.00  0.00     0.028 C 
ATOM      5  C   LIG d   1      12.247  78.685 114.800  0.00  0.00    -0.047 C 
ATOM      6  C   LIG d   1      12.662  77.266 114.351  0.00  0.00     0.091 C 
ENDROOT
BRANCH   1   7
ATOM      7  O   LIG d   1      11.816  74.977 114.124  0.00  0.00    -0.368 OA
BRANCH   7   8
ATOM      8  C   LIG d   1      11.953  73.754 114.889  0.00  0.00     0.119 C 
BRANCH   8   9
ATOM      9  C   LIG d   1      13.452  73.565 115.195  0.00  0.00     0.028 C 
ATOM     10  C   LIG d   1      14.283  73.317 113.925  0.00  0.00     0.006 C 
ENDBRANCH   8   9
BRANCH   8  11
ATOM     11  C   LIG d   1      11.551  72.531 114.060  0.00  0.00     0.028 C 
ATOM     12  C   LIG d   1      10.615  71.577 114.820  0.00  0.00     0.006 C 
ENDBRANCH   8  11
ENDBRANCH   7   8
ENDBRANCH   1   7
BRANCH   6  13
ATOM     13  N   LIG d   1      14.030  76.905 114.806  0.00  0.00    -0.311 N 
ATOM     14  C   LIG d   1      15.119  77.070 114.057  0.00  0.00     0.210 C 
ATOM     15  C   LIG d   1      16.428  76.614 114.709  0.00  0.00     0.109 C 
ATOM     16  O   LIG d   1      15.130  77.582 112.927  0.00  0.00    -0.276 OA
ATOM     17  H   LIG d   1      14.117  76.512 115.722  0.00  0.00     0.149 HD
ENDBRANCH   6  13
BRANCH   5  18
ATOM     18  N   LIG d   1      13.083  79.747 114.207  0.00  0.00     0.381 N 
ATOM     19  H   LIG d   1      13.655  79.362 113.481  0.00  0.00    -0.090 HD
ATOM     20  H   LIG d   1      13.686  80.121 114.918  0.00  0.00    -0.090 HD
ATOM     21  H   LIG d   1      12.505  80.469 113.836  0.00  0.00    -0.090 HD
ENDBRANCH   5  18
BRANCH   3  22
ATOM     22  C   LIG d   1       8.601  78.266 115.019  0.00  0.00     0.382 C 
ATOM     23  O   LIG d   1       7.676  77.490 114.680  0.00  0.00    -0.241 OA
ATOM     24  O   LIG d   1       8.322  79.360 115.545  0.00  0.00    -0.241 OA
ENDBRANCH   3  22
TORSDOF 7
ENDMDL
MODEL 6
REMARK VINA RESULT:      -4.5     11.898     14.363
REMARK  7 active torsions:
REMARK  status: ('A' for Active; 'I' for Inactive)
REMARK    1  A    between atoms: C_2  and  C_3 
REMARK    2  A    between atoms: C_3  and  O_6 
REMARK    3  A    between atoms: C_3  and  C_4 
REMARK    4  A    between atoms: C_7  and  O_6 
REMARK    5  A    between atoms: C_9  and  C_10 
REMARK    6  A    between atoms: N_15  and  C_14 
REMARK    7  A    between atoms: N_20  and  C_19 
REMARK       I    between atoms: C_22  and  N_20 
ROOT
ATOM      1  C   LIG d   1       3.466  88.247 116.148  0.00  0.00     0.161 C 
ATOM      2  C   LIG d   1       4.159  88.950 117.148  0.00  0.00     0.016 C 
ATOM      3  C   LIG d   1       5.373  89.637 116.917  0.00  0.00     0.038 C 
ATOM      4  C   LIG d   1       5.901  89.796 115.627  0.00  0.00     0.028 C 
ATOM      5  C   LIG d   1       5.503  88.679 114.668  0.00  0.00    -0.047 C 
ATOM      6  C   LIG d   1       3.968  88.503 114.712  0.00  0.00     0.091 C 
ENDROOT
BRANCH   1   7
ATOM      7  O   LIG d   1       2.055  88.528 116.243  0.00  0.00    -0.368 OA
BRANCH   7   8
ATOM      8  C   LIG d   1       1.618  89.191 117.455  0.00  0.00     0.119 C 
BRANCH   8   9
ATOM      9  C   LIG d   1       0.458  88.364 118.042  0.00  0.00     0.028 C 
ATOM     10  C   LIG d   1       0.918  86.989 118.555  0.00  0.00     0.006 C 
ENDBRANCH   8   9
BRANCH   8  11
ATOM     11  C   LIG d   1       1.020  90.568 117.151  0.00  0.00     0.028 C 
ATOM     12  C   LIG d   1      -0.403  90.736 117.706  0.00  0.00     0.006 C 
ENDBRANCH   8  11
ENDBRANCH   7   8
ENDBRANCH   1   7
BRANCH   6  13
ATOM     13  N   LIG d   1       3.503  87.373 113.865  0.00  0.00    -0.311 N 
ATOM     14  C   LIG d   1       2.732  87.531 112.791  0.00  0.00     0.210 C 
ATOM     15  C   LIG d   1       2.350  86.233 112.072  0.00  0.00     0.109 C 
ATOM     16  O   LIG d   1       2.354  88.626 112.347  0.00  0.00    -0.276 OA
ATOM     17  H   LIG d   1       3.789  86.452 114.136  0.00  0.00     0.149 HD
ENDBRANCH   6  13
BRANCH   5  18
ATOM     18  N   LIG d   1       6.005  89.041 113.329  0.00  0.00     0.381 N 
ATOM     19  H   LIG d   1       6.745  89.710 113.414  0.00  0.00    -0.090 HD
ATOM     20  H   LIG d   1       5.259  89.462 112.804  0.00  0.00    -0.090 HD
ATOM     21  H   LIG d   1       6.336  88.228 112.857  0.00  0.00    -0.090 HD
ENDBRANCH   5  18
BRANCH   3  22
ATOM     22  C   LIG d   1       6.093  90.140 117.990  0.00  0.00     0.382 C 
ATOM     23  O   LIG d   1       7.088  89.513 118.427  0.00  0.00    -0.241 OA
ATOM     24  O   LIG d   1       5.734  91.191 118.554  0.00  0.00    -0.241 OA
ENDBRANCH   3  22
TORSDOF 7
ENDMDL
MODEL 7
REMARK VINA RESULT:      -4.5      2.721      4.685
REMARK  7 active torsions:
REMARK  status: ('A' for Active; 'I' for Inactive)
REMARK    1  A    between atoms: C_2  and  C_3 
REMARK    2  A    between atoms: C_3  and  O_6 
REMARK    3  A    between atoms: C_3  and  C_4 
REMARK    4  A    between atoms: C_7  and  O_6 
REMARK    5  A    between atoms: C_9  and  C_10 
REMARK    6  A    between atoms: N_15  and  C_14 
REMARK    7  A    between atoms: N_20  and  C_19 
REMARK       I    between atoms: C_22  and  N_20 
ROOT
ATOM      1  C   LIG d   1      -1.954  77.059 116.713  0.00  0.00     0.161 C 
ATOM      2  C   LIG d   1      -0.745  77.643 117.127  0.00  0.00     0.016 C 
ATOM      3  C   LIG d   1       0.355  76.897 117.609  0.00  0.00     0.038 C 
ATOM      4  C   LIG d   1       0.376  75.495 117.567  0.00  0.00     0.028 C 
ATOM      5  C   LIG d   1      -1.013  74.867 117.630  0.00  0.00    -0.047 C 
ATOM      6  C   LIG d   1      -1.910  75.525 116.556  0.00  0.00     0.091 C 
ENDROOT
BRANCH   1   7
ATOM      7  O   LIG d   1      -2.401  77.675 115.490  0.00  0.00    -0.368 OA
BRANCH   7   8
ATOM      8  C   LIG d   1      -3.516  78.593 115.608  0.00  0.00     0.119 C 
BRANCH   8   9
ATOM      9  C   LIG d   1      -2.948  80.023 115.537  0.00  0.00     0.028 C 
ATOM     10  C   LIG d   1      -2.489  80.403 114.119  0.00  0.00     0.006 C 
ENDBRANCH   8   9
BRANCH   8  11
ATOM     11  C   LIG d   1      -4.180  78.488 116.985  0.00  0.00     0.028 C 
ATOM     12  C   LIG d   1      -5.697  78.727 116.934  0.00  0.00     0.006 C 
ENDBRANCH   8  11
ENDBRANCH   7   8
ENDBRANCH   1   7
BRANCH   6  13
ATOM     13  N   LIG d   1      -3.309  75.027 116.605  0.00  0.00    -0.311 N 
ATOM     14  C   LIG d   1      -4.026  74.747 115.518  0.00  0.00     0.210 C 
ATOM     15  C   LIG d   1      -5.455  74.266 115.792  0.00  0.00     0.109 C 
ATOM     16  O   LIG d   1      -3.604  74.821 114.354  0.00  0.00    -0.276 OA
ATOM     17  H   LIG d   1      -3.720  74.909 117.511  0.00  0.00     0.149 HD
ENDBRANCH   6  13
BRANCH   5  18
ATOM     18  N   LIG d   1      -0.853  73.413 117.439  0.00  0.00     0.381 N 
ATOM     19  H   LIG d   1      -0.667  73.217 116.476  0.00  0.00    -0.090 HD
ATOM     20  H   LIG d   1      -1.710  72.956 117.694  0.00  0.00    -0.090 HD
ATOM     21  H   LIG d   1      -0.106  73.075 118.005  0.00  0.00    -0.090 HD
ENDBRANCH   5  18
BRANCH   3  22
ATOM     22  C   LIG d   1       1.436  77.555 118.177  0.00  0.00     0.382 C 
ATOM     23  O   LIG d   1       1.414  78.803 118.303  0.00  0.00    -0.241 OA
ATOM     24  O   LIG d   1       2.450  76.921 118.524  0.00  0.00    -0.241 OA
ENDBRANCH   3  22
TORSDOF 7
ENDMDL
MODEL 8
REMARK VINA RESULT:      -4.5      2.499      4.964
REMARK  7 active torsions:
REMARK  status: ('A' for Active; 'I' for Inactive)
REMARK    1  A    between atoms: C_2  and  C_3 
REMARK    2  A    between atoms: C_3  and  O_6 
REMARK    3  A    between atoms: C_3  and  C_4 
REMARK    4  A    between atoms: C_7  and  O_6 
REMARK    5  A    between atoms: C_9  and  C_10 
REMARK    6  A    between atoms: N_15  and  C_14 
REMARK    7  A    between atoms: N_20  and  C_19 
REMARK       I    between atoms: C_22  and  N_20 
ROOT
ATOM      1  C   LIG d   1      -1.502  77.342 114.487  0.00  0.00     0.161 C 
ATOM      2  C   LIG d   1      -2.874  77.170 114.238  0.00  0.00     0.016 C 
ATOM      3  C   LIG d   1      -3.796  76.745 115.222  0.00  0.00     0.038 C 
ATOM      4  C   LIG d   1      -3.432  76.608 116.570  0.00  0.00     0.028 C 
ATOM      5  C   LIG d   1      -1.955  76.283 116.768  0.00  0.00    -0.047 C 
ATOM      6  C   LIG d   1      -1.106  77.304 115.978  0.00  0.00     0.091 C 
ENDROOT
BRANCH   1   7
ATOM      7  O   LIG d   1      -1.045  78.566 113.878  0.00  0.00    -0.368 OA
BRANCH   7   8
ATOM      8  C   LIG d   1      -1.219  79.772 114.661  0.00  0.00     0.119 C 
BRANCH   8   9
ATOM      9  C   LIG d   1      -2.550  80.417 114.227  0.00  0.00     0.028 C 
ATOM     10  C   LIG d   1      -2.489  80.983 112.799  0.00  0.00     0.006 C 
ENDBRANCH   8   9
BRANCH   8  11
ATOM     11  C   LIG d   1      -0.140  80.809 114.336  0.00  0.00     0.028 C 
ATOM     12  C   LIG d   1       0.856  81.014 115.488  0.00  0.00     0.006 C 
ENDBRANCH   8  11
ENDBRANCH   7   8
ENDBRANCH   1   7
BRANCH   6  13
ATOM     13  N   LIG d   1       0.349  77.008 116.049  0.00  0.00    -0.311 N 
ATOM     14  C   LIG d   1       1.163  77.546 116.955  0.00  0.00     0.210 C 
ATOM     15  C   LIG d   1       2.631  77.121 116.839  0.00  0.00     0.109 C 
ATOM     16  O   LIG d   1       0.804  78.310 117.864  0.00  0.00    -0.276 OA
ATOM     17  H   LIG d   1       0.719  76.374 115.368  0.00  0.00     0.149 HD
ENDBRANCH   6  13
BRANCH   5  18
ATOM     18  N   LIG d   1      -1.684  76.304 118.218  0.00  0.00     0.381 N 
ATOM     19  H   LIG d   1      -1.635  77.250 118.539  0.00  0.00    -0.090 HD
ATOM     20  H   LIG d   1      -0.796  75.866 118.389  0.00  0.00    -0.090 HD
ATOM     21  H   LIG d   1      -2.403  75.816 118.706  0.00  0.00    -0.090 HD
ENDBRANCH   5  18
BRANCH   3  22
ATOM     22  C   LIG d   1      -5.091  76.414 114.853  0.00  0.00     0.382 C 
ATOM     23  O   LIG d   1      -6.048  77.151 115.193  0.00  0.00    -0.241 OA
ATOM     24  O   LIG d   1      -5.320  75.365 114.223  0.00  0.00    -0.241 OA
ENDBRANCH   3  22
TORSDOF 7
ENDMDL
MODEL 9
REMARK VINA RESULT:      -4.4      2.441      5.116
REMARK  7 active torsions:
REMARK  status: ('A' for Active; 'I' for Inactive)
REMARK    1  A    between atoms: C_2  and  C_3 
REMARK    2  A    between atoms: C_3  and  O_6 
REMARK    3  A    between atoms: C_3  and  C_4 
REMARK    4  A    between atoms: C_7  and  O_6 
REMARK    5  A    between atoms: C_9  and  C_10 
REMARK    6  A    between atoms: N_15  and  C_14 
REMARK    7  A    between atoms: N_20  and  C_19 
REMARK       I    between atoms: C_22  and  N_20 
ROOT
ATOM      1  C   LIG d   1      -2.719  78.344 115.531  0.00  0.00     0.161 C 
ATOM      2  C   LIG d   1      -1.422  78.562 116.023  0.00  0.00     0.016 C 
ATOM      3  C   LIG d   1      -0.584  77.525 116.493  0.00  0.00     0.038 C 
ATOM      4  C   LIG d   1      -0.933  76.172 116.362  0.00  0.00     0.028 C 
ATOM      5  C   LIG d   1      -2.439  75.935 116.336  0.00  0.00    -0.047 C 
ATOM      6  C   LIG d   1      -3.075  76.864 115.277  0.00  0.00     0.091 C 
ENDROOT
BRANCH   1   7
ATOM      7  O   LIG d   1      -2.925  79.122 114.335  0.00  0.00    -0.368 OA
BRANCH   7   8
ATOM      8  C   LIG d   1      -1.729  79.592 113.667  0.00  0.00     0.119 C 
BRANCH   8   9
ATOM      9  C   LIG d   1      -1.932  81.087 113.353  0.00  0.00     0.028 C 
ATOM     10  C   LIG d   1      -0.993  81.586 112.242  0.00  0.00     0.006 C 
ENDBRANCH   8   9
BRANCH   8  11
ATOM     11  C   LIG d   1      -1.546  78.913 112.307  0.00  0.00     0.028 C 
ATOM     12  C   LIG d   1      -2.828  78.230 111.805  0.00  0.00     0.006 C 
ENDBRANCH   8  11
ENDBRANCH   7   8
ENDBRANCH   1   7
BRANCH   6  13
ATOM     13  N   LIG d   1      -4.557  76.757 115.245  0.00  0.00    -0.311 N 
ATOM     14  C   LIG d   1      -5.233  76.243 114.219  0.00  0.00     0.210 C 
ATOM     15  C   LIG d   1      -6.756  76.245 114.382  0.00  0.00     0.109 C 
ATOM     16  O   LIG d   1      -4.714  75.757 113.202  0.00  0.00    -0.276 OA
ATOM     17  H   LIG d   1      -5.056  77.099 116.042  0.00  0.00     0.149 HD
ENDBRANCH   6  13
BRANCH   5  18
ATOM     18  N   LIG d   1      -2.660  74.504 116.057  0.00  0.00     0.381 N 
ATOM     19  H   LIG d   1      -2.366  74.291 115.124  0.00  0.00    -0.090 HD
ATOM     20  H   LIG d   1      -3.642  74.306 116.131  0.00  0.00    -0.090 HD
ATOM     21  H   LIG d   1      -2.151  73.947 116.708  0.00  0.00    -0.090 HD
ENDBRANCH   5  18
BRANCH   3  22
ATOM     22  C   LIG d   1       0.602  77.839 117.140  0.00  0.00     0.382 C 
ATOM     23  O   LIG d   1       0.857  79.031 117.437  0.00  0.00    -0.241 OA
ATOM     24  O   LIG d   1       1.440  76.952 117.389  0.00  0.00    -0.241 OA
ENDBRANCH   3  22
TORSDOF 7
ENDMDL
