MODEL 1
REMARK VINA RESULT:      -5.1      0.000      0.000
REMARK  7 active torsions:
REMARK  status: ('A' for Active; 'I' for Inactive)
REMARK    1  A    between atoms: C_2  and  C_3 
REMARK    2  A    between atoms: C_3  and  O_6 
REMARK    3  A    between atoms: C_3  and  C_4 
REMARK    4  A    between atoms: C_7  and  O_6 
REMARK    5  A    between atoms: C_9  and  C_10 
REMARK    6  A    between atoms: N_15  and  C_14 
REMARK    7  A    between atoms: N_20  and  C_19 
REMARK       I    between atoms: C_22  and  N_20 
ROOT
ATOM      1  C   LIG d   1       1.943  86.781 114.809  0.00  0.00     0.161 C 
ATOM      2  C   LIG d   1       2.722  87.937 114.636  0.00  0.00     0.016 C 
ATOM      3  C   LIG d   1       3.681  88.081 113.607  0.00  0.00     0.038 C 
ATOM      4  C   LIG d   1       3.820  87.132 112.584  0.00  0.00     0.028 C 
ATOM      5  C   LIG d   1       3.410  85.725 113.003  0.00  0.00    -0.047 C 
ATOM      6  C   LIG d   1       2.001  85.780 113.636  0.00  0.00     0.091 C 
ENDROOT
BRANCH   1   7
ATOM      7  O   LIG d   1       0.577  87.150 115.085  0.00  0.00    -0.368 OA
BRANCH   7   8
ATOM      8  C   LIG d   1       0.201  87.200 116.484  0.00  0.00     0.119 C 
BRANCH   8   9
ATOM      9  C   LIG d   1       0.914  86.034 117.197  0.00  0.00     0.028 C 
ATOM     10  C   LIG d   1      -0.009  84.823 117.408  0.00  0.00     0.006 C 
ENDBRANCH   8   9
BRANCH   8  11
ATOM     11  C   LIG d   1      -1.296  86.933 116.668  0.00  0.00     0.028 C 
ATOM     12  C   LIG d   1      -2.015  88.065 117.418  0.00  0.00     0.006 C 
ENDBRANCH   8  11
ENDBRANCH   7   8
ENDBRANCH   1   7
BRANCH   6  13
ATOM     13  N   LIG d   1       1.558  84.458 114.151  0.00  0.00    -0.311 N 
ATOM     14  C   LIG d   1       0.832  83.599 113.437  0.00  0.00     0.210 C 
ATOM     15  C   LIG d   1       0.466  82.301 114.164  0.00  0.00     0.109 C 
ATOM     16  O   LIG d   1       0.484  83.775 112.260  0.00  0.00    -0.276 OA
ATOM     17  H   LIG d   1       1.824  84.220 115.086  0.00  0.00     0.149 HD
ENDBRANCH   6  13
BRANCH   5  18
ATOM     18  N   LIG d   1       3.473  84.866 111.805  0.00  0.00     0.381 N 
ATOM     19  H   LIG d   1       4.390  84.907 111.407  0.00  0.00    -0.090 HD
ATOM     20  H   LIG d   1       2.818  85.209 111.125  0.00  0.00    -0.090 HD
ATOM     21  H   LIG d   1       3.249  83.926 112.047  0.00  0.00    -0.090 HD
ENDBRANCH   5  18
BRANCH   3  22
ATOM     22  C   LIG d   1       4.543  89.168 113.619  0.00  0.00     0.382 C 
ATOM     23  O   LIG d   1       5.638  89.106 113.010  0.00  0.00    -0.241 OA
ATOM     24  O   LIG d   1       4.258  90.193 114.267  0.00  0.00    -0.241 OA
ENDBRANCH   3  22
TORSDOF 7
ENDMDL
MODEL 2
REMARK VINA RESULT:      -5.0     25.039     27.658
REMARK  7 active torsions:
REMARK  status: ('A' for Active; 'I' for Inactive)
REMARK    1  A    between atoms: C_2  and  C_3 
REMARK    2  A    between atoms: C_3  and  O_6 
REMARK    3  A    between atoms: C_3  and  C_4 
REMARK    4  A    between atoms: C_7  and  O_6 
REMARK    5  A    between atoms: C_9  and  C_10 
REMARK    6  A    between atoms: N_15  and  C_14 
REMARK    7  A    between atoms: N_20  and  C_19 
REMARK       I    between atoms: C_22  and  N_20 
ROOT
ATOM      1  C   LIG d   1     -25.782  85.076 113.570  0.00  0.00     0.161 C 
ATOM      2  C   LIG d   1     -24.760  86.035 113.659  0.00  0.00     0.016 C 
ATOM      3  C   LIG d   1     -23.384  85.711 113.637  0.00  0.00     0.038 C 
ATOM      4  C   LIG d   1     -22.933  84.409 113.370  0.00  0.00     0.028 C 
ATOM      5  C   LIG d   1     -23.929  83.328 113.775  0.00  0.00    -0.047 C 
ATOM      6  C   LIG d   1     -25.309  83.663 113.166  0.00  0.00     0.091 C 
ENDROOT
BRANCH   1   7
ATOM      7  O   LIG d   1     -26.808  85.537 112.669  0.00  0.00    -0.368 OA
BRANCH   7   8
ATOM      8  C   LIG d   1     -27.979  86.126 113.285  0.00  0.00     0.119 C 
BRANCH   8   9
ATOM      9  C   LIG d   1     -29.108  85.079 113.228  0.00  0.00     0.028 C 
ATOM     10  C   LIG d   1     -29.164  84.349 111.876  0.00  0.00     0.006 C 
ENDBRANCH   8   9
BRANCH   8  11
ATOM     11  C   LIG d   1     -28.493  87.321 112.476  0.00  0.00     0.028 C 
ATOM     12  C   LIG d   1     -27.376  88.304 112.090  0.00  0.00     0.006 C 
ENDBRANCH   8  11
ENDBRANCH   7   8
ENDBRANCH   1   7
BRANCH   6  13
ATOM     13  N   LIG d   1     -26.362  82.700 113.583  0.00  0.00    -0.311 N 
ATOM     14  C   LIG d   1     -26.700  81.628 112.869  0.00  0.00     0.210 C 
ATOM     15  C   LIG d   1     -27.823  80.778 113.470  0.00  0.00     0.109 C 
ATOM     16  O   LIG d   1     -26.154  81.283 111.811  0.00  0.00    -0.276 OA
ATOM     17  H   LIG d   1     -26.835  82.887 114.446  0.00  0.00     0.149 HD
ENDBRANCH   6  13
BRANCH   5  18
ATOM     18  N   LIG d   1     -23.393  82.033 113.316  0.00  0.00     0.381 N 
ATOM     19  H   LIG d   1     -22.974  82.141 112.414  0.00  0.00    -0.090 HD
ATOM     20  H   LIG d   1     -24.150  81.378 113.235  0.00  0.00    -0.090 HD
ATOM     21  H   LIG d   1     -22.718  81.694 113.965  0.00  0.00    -0.090 HD
ENDBRANCH   5  18
BRANCH   3  22
ATOM     22  C   LIG d   1     -22.442  86.688 113.923  0.00  0.00     0.382 C 
ATOM     23  O   LIG d   1     -22.756  87.669 114.640  0.00  0.00    -0.241 OA
ATOM     24  O   LIG d   1     -21.297  86.623 113.438  0.00  0.00    -0.241 OA
ENDBRANCH   3  22
TORSDOF 7
ENDMDL
MODEL 3
REMARK VINA RESULT:      -4.8     24.662     26.701
REMARK  7 active torsions:
REMARK  status: ('A' for Active; 'I' for Inactive)
REMARK    1  A    between atoms: C_2  and  C_3 
REMARK    2  A    between atoms: C_3  and  O_6 
REMARK    3  A    between atoms: C_3  and  C_4 
REMARK    4  A    between atoms: C_7  and  O_6 
REMARK    5  A    between atoms: C_9  and  C_10 
REMARK    6  A    between atoms: N_15  and  C_14 
REMARK    7  A    between atoms: N_20  and  C_19 
REMARK       I    between atoms: C_22  and  N_20 
ROOT
ATOM      1  C   LIG d   1     -23.752  83.242 113.319  0.00  0.00     0.161 C 
ATOM      2  C   LIG d   1     -22.903  84.304 113.670  0.00  0.00     0.016 C 
ATOM      3  C   LIG d   1     -23.340  85.644 113.789  0.00  0.00     0.038 C 
ATOM      4  C   LIG d   1     -24.698  85.990 113.712  0.00  0.00     0.028 C 
ATOM      5  C   LIG d   1     -25.521  85.029 112.861  0.00  0.00    -0.047 C 
ATOM      6  C   LIG d   1     -25.257  83.583 113.341  0.00  0.00     0.091 C 
ENDROOT
BRANCH   1   7
ATOM      7  O   LIG d   1     -23.484  82.104 114.162  0.00  0.00    -0.368 OA
BRANCH   7   8
ATOM      8  C   LIG d   1     -23.939  82.205 115.534  0.00  0.00     0.119 C 
BRANCH   8   9
ATOM      9  C   LIG d   1     -22.702  82.068 116.443  0.00  0.00     0.028 C 
ATOM     10  C   LIG d   1     -22.695  83.099 117.584  0.00  0.00     0.006 C 
ENDBRANCH   8   9
BRANCH   8  11
ATOM     11  C   LIG d   1     -24.850  81.032 115.907  0.00  0.00     0.028 C 
ATOM     12  C   LIG d   1     -24.865  79.926 114.840  0.00  0.00     0.006 C 
ENDBRANCH   8  11
ENDBRANCH   7   8
ENDBRANCH   1   7
BRANCH   6  13
ATOM     13  N   LIG d   1     -25.959  82.572 112.507  0.00  0.00    -0.311 N 
ATOM     14  C   LIG d   1     -27.132  82.036 112.837  0.00  0.00     0.210 C 
ATOM     15  C   LIG d   1     -27.671  80.999 111.847  0.00  0.00     0.109 C 
ATOM     16  O   LIG d   1     -27.793  82.345 113.840  0.00  0.00    -0.276 OA
ATOM     17  H   LIG d   1     -25.508  82.288 111.659  0.00  0.00     0.149 HD
ENDBRANCH   6  13
BRANCH   5  18
ATOM     18  N   LIG d   1     -26.936  85.428 112.980  0.00  0.00     0.381 N 
ATOM     19  H   LIG d   1     -27.379  85.375 112.085  0.00  0.00    -0.090 HD
ATOM     20  H   LIG d   1     -26.979  86.380 113.297  0.00  0.00    -0.090 HD
ATOM     21  H   LIG d   1     -27.405  84.833 113.627  0.00  0.00    -0.090 HD
ENDBRANCH   5  18
BRANCH   3  22
ATOM     22  C   LIG d   1     -22.410  86.659 113.948  0.00  0.00     0.382 C 
ATOM     23  O   LIG d   1     -22.697  87.672 114.630  0.00  0.00    -0.241 OA
ATOM     24  O   LIG d   1     -21.302  86.595 113.381  0.00  0.00    -0.241 OA
ENDBRANCH   3  22
TORSDOF 7
ENDMDL
MODEL 4
REMARK VINA RESULT:      -4.7      1.922      2.482
REMARK  7 active torsions:
REMARK  status: ('A' for Active; 'I' for Inactive)
REMARK    1  A    between atoms: C_2  and  C_3 
REMARK    2  A    between atoms: C_3  and  O_6 
REMARK    3  A    between atoms: C_3  and  C_4 
REMARK    4  A    between atoms: C_7  and  O_6 
REMARK    5  A    between atoms: C_9  and  C_10 
REMARK    6  A    between atoms: N_15  and  C_14 
REMARK    7  A    between atoms: N_20  and  C_19 
REMARK       I    between atoms: C_22  and  N_20 
ROOT
ATOM      1  C   LIG d   1       2.905  85.466 114.292  0.00  0.00     0.161 C 
ATOM      2  C   LIG d   1       3.784  86.561 114.329  0.00  0.00     0.016 C 
ATOM      3  C   LIG d   1       3.576  87.751 113.593  0.00  0.00     0.038 C 
ATOM      4  C   LIG d   1       2.389  87.985 112.883  0.00  0.00     0.028 C 
ATOM      5  C   LIG d   1       1.704  86.708 112.409  0.00  0.00    -0.047 C 
ATOM      6  C   LIG d   1       1.550  85.747 113.610  0.00  0.00     0.091 C 
ENDROOT
BRANCH   1   7
ATOM      7  O   LIG d   1       2.700  84.959 115.625  0.00  0.00    -0.368 OA
BRANCH   7   8
ATOM      8  C   LIG d   1       1.726  85.665 116.433  0.00  0.00     0.119 C 
BRANCH   8   9
ATOM      9  C   LIG d   1       2.438  86.127 117.719  0.00  0.00     0.028 C 
ATOM     10  C   LIG d   1       2.765  87.629 117.702  0.00  0.00     0.006 C 
ENDBRANCH   8   9
BRANCH   8  11
ATOM     11  C   LIG d   1       0.607  84.730 116.902  0.00  0.00     0.028 C 
ATOM     12  C   LIG d   1       0.933  83.247 116.667  0.00  0.00     0.006 C 
ENDBRANCH   8  11
ENDBRANCH   7   8
ENDBRANCH   1   7
BRANCH   6  13
ATOM     13  N   LIG d   1       0.964  84.438 113.217  0.00  0.00    -0.311 N 
ATOM     14  C   LIG d   1      -0.339  84.172 113.274  0.00  0.00     0.210 C 
ATOM     15  C   LIG d   1      -0.729  82.755 112.842  0.00  0.00     0.109 C 
ATOM     16  O   LIG d   1      -1.213  84.984 113.612  0.00  0.00    -0.276 OA
ATOM     17  H   LIG d   1       1.599  83.731 112.901  0.00  0.00     0.149 HD
ENDBRANCH   6  13
BRANCH   5  18
ATOM     18  N   LIG d   1       0.414  87.092 111.806  0.00  0.00     0.381 N 
ATOM     19  H   LIG d   1       0.431  88.061 111.557  0.00  0.00    -0.090 HD
ATOM     20  H   LIG d   1      -0.315  86.954 112.484  0.00  0.00    -0.090 HD
ATOM     21  H   LIG d   1       0.236  86.536 110.998  0.00  0.00    -0.090 HD
ENDBRANCH   5  18
BRANCH   3  22
ATOM     22  C   LIG d   1       4.580  88.705 113.531  0.00  0.00     0.382 C 
ATOM     23  O   LIG d   1       4.289  89.925 113.568  0.00  0.00    -0.241 OA
ATOM     24  O   LIG d   1       5.770  88.362 113.395  0.00  0.00    -0.241 OA
ENDBRANCH   3  22
TORSDOF 7
ENDMDL
MODEL 5
REMARK VINA RESULT:      -4.6     24.362     26.302
REMARK  7 active torsions:
REMARK  status: ('A' for Active; 'I' for Inactive)
REMARK    1  A    between atoms: C_2  and  C_3 
REMARK    2  A    between atoms: C_3  and  O_6 
REMARK    3  A    between atoms: C_3  and  C_4 
REMARK    4  A    between atoms: C_7  and  O_6 
REMARK    5  A    between atoms: C_9  and  C_10 
REMARK    6  A    between atoms: N_15  and  C_14 
REMARK    7  A    between atoms: N_20  and  C_19 
REMARK       I    between atoms: C_22  and  N_20 
ROOT
ATOM      1  C   LIG d   1     -23.899  83.451 115.532  0.00  0.00     0.161 C 
ATOM      2  C   LIG d   1     -23.283  84.702 115.363  0.00  0.00     0.016 C 
ATOM      3  C   LIG d   1     -23.268  85.402 114.135  0.00  0.00     0.038 C 
ATOM      4  C   LIG d   1     -24.004  84.965 113.023  0.00  0.00     0.028 C 
ATOM      5  C   LIG d   1     -24.225  83.456 112.998  0.00  0.00    -0.047 C 
ATOM      6  C   LIG d   1     -24.802  83.011 114.361  0.00  0.00     0.091 C 
ENDROOT
BRANCH   1   7
ATOM      7  O   LIG d   1     -24.639  83.434 116.769  0.00  0.00    -0.368 OA
BRANCH   7   8
ATOM      8  C   LIG d   1     -24.117  82.575 117.812  0.00  0.00     0.119 C 
BRANCH   8   9
ATOM      9  C   LIG d   1     -22.876  81.859 117.245  0.00  0.00     0.028 C 
ATOM     10  C   LIG d   1     -21.578  82.287 117.951  0.00  0.00     0.006 C 
ENDBRANCH   8   9
BRANCH   8  11
ATOM     11  C   LIG d   1     -25.106  81.458 118.161  0.00  0.00     0.028 C 
ATOM     12  C   LIG d   1     -24.602  80.066 117.748  0.00  0.00     0.006 C 
ENDBRANCH   8  11
ENDBRANCH   7   8
ENDBRANCH   1   7
BRANCH   6  13
ATOM     13  N   LIG d   1     -24.968  81.537 114.451  0.00  0.00    -0.311 N 
ATOM     14  C   LIG d   1     -26.113  80.911 114.184  0.00  0.00     0.210 C 
ATOM     15  C   LIG d   1     -26.074  79.389 114.358  0.00  0.00     0.109 C 
ATOM     16  O   LIG d   1     -27.148  81.468 113.788  0.00  0.00    -0.276 OA
ATOM     17  H   LIG d   1     -24.170  81.004 114.735  0.00  0.00     0.149 HD
ENDBRANCH   6  13
BRANCH   5  18
ATOM     18  N   LIG d   1     -25.120  83.156 111.865  0.00  0.00     0.381 N 
ATOM     19  H   LIG d   1     -25.964  82.737 112.202  0.00  0.00    -0.090 HD
ATOM     20  H   LIG d   1     -24.664  82.500 111.255  0.00  0.00    -0.090 HD
ATOM     21  H   LIG d   1     -25.332  83.992 111.366  0.00  0.00    -0.090 HD
ENDBRANCH   5  18
BRANCH   3  22
ATOM     22  C   LIG d   1     -22.478  86.534 113.998  0.00  0.00     0.382 C 
ATOM     23  O   LIG d   1     -21.405  86.474 113.351  0.00  0.00    -0.241 OA
ATOM     24  O   LIG d   1     -22.803  87.602 114.551  0.00  0.00    -0.241 OA
ENDBRANCH   3  22
TORSDOF 7
ENDMDL
MODEL 6
REMARK VINA RESULT:      -4.4      2.407      5.744
REMARK  7 active torsions:
REMARK  status: ('A' for Active; 'I' for Inactive)
REMARK    1  A    between atoms: C_2  and  C_3 
REMARK    2  A    between atoms: C_3  and  O_6 
REMARK    3  A    between atoms: C_3  and  C_4 
REMARK    4  A    between atoms: C_7  and  O_6 
REMARK    5  A    between atoms: C_9  and  C_10 
REMARK    6  A    between atoms: N_15  and  C_14 
REMARK    7  A    between atoms: N_20  and  C_19 
REMARK       I    between atoms: C_22  and  N_20 
ROOT
ATOM      1  C   LIG d   1       1.290  86.871 114.935  0.00  0.00     0.161 C 
ATOM      2  C   LIG d   1       0.198  86.814 115.817  0.00  0.00     0.016 C 
ATOM      3  C   LIG d   1       0.071  87.645 116.953  0.00  0.00     0.038 C 
ATOM      4  C   LIG d   1       0.960  88.702 117.202  0.00  0.00     0.028 C 
ATOM      5  C   LIG d   1       2.351  88.473 116.620  0.00  0.00    -0.047 C 
ATOM      6  C   LIG d   1       2.214  88.092 115.128  0.00  0.00     0.091 C 
ENDROOT
BRANCH   1   7
ATOM      7  O   LIG d   1       0.823  86.807 113.573  0.00  0.00    -0.368 OA
BRANCH   7   8
ATOM      8  C   LIG d   1       0.915  85.513 112.928  0.00  0.00     0.119 C 
BRANCH   8   9
ATOM      9  C   LIG d   1       1.963  85.629 111.805  0.00  0.00     0.028 C 
ATOM     10  C   LIG d   1       3.299  84.964 112.178  0.00  0.00     0.006 C 
ENDBRANCH   8   9
BRANCH   8  11
ATOM     11  C   LIG d   1      -0.395  85.147 112.224  0.00  0.00     0.028 C 
ATOM     12  C   LIG d   1      -0.488  83.653 111.875  0.00  0.00     0.006 C 
ENDBRANCH   8  11
ENDBRANCH   7   8
ENDBRANCH   1   7
BRANCH   6  13
ATOM     13  N   LIG d   1       3.523  87.769 114.503  0.00  0.00    -0.311 N 
ATOM     14  C   LIG d   1       4.261  88.661 113.845  0.00  0.00     0.210 C 
ATOM     15  C   LIG d   1       5.568  88.114 113.261  0.00  0.00     0.109 C 
ATOM     16  O   LIG d   1       3.973  89.860 113.716  0.00  0.00    -0.276 OA
ATOM     17  H   LIG d   1       3.848  86.826 114.587  0.00  0.00     0.149 HD
ENDBRANCH   6  13
BRANCH   5  18
ATOM     18  N   LIG d   1       3.131  89.706 116.833  0.00  0.00     0.381 N 
ATOM     19  H   LIG d   1       3.976  89.492 117.324  0.00  0.00    -0.090 HD
ATOM     20  H   LIG d   1       2.591  90.340 117.396  0.00  0.00    -0.090 HD
ATOM     21  H   LIG d   1       3.346  90.129 115.957  0.00  0.00    -0.090 HD
ENDBRANCH   5  18
BRANCH   3  22
ATOM     22  C   LIG d   1      -0.933  87.398 117.877  0.00  0.00     0.382 C 
ATOM     23  O   LIG d   1      -1.191  86.219 118.221  0.00  0.00    -0.241 OA
ATOM     24  O   LIG d   1      -1.614  88.334 118.336  0.00  0.00    -0.241 OA
ENDBRANCH   3  22
TORSDOF 7
ENDMDL
MODEL 7
REMARK VINA RESULT:      -4.4     24.595     27.643
REMARK  7 active torsions:
REMARK  status: ('A' for Active; 'I' for Inactive)
REMARK    1  A    between atoms: C_2  and  C_3 
REMARK    2  A    between atoms: C_3  and  O_6 
REMARK    3  A    between atoms: C_3  and  C_4 
REMARK    4  A    between atoms: C_7  and  O_6 
REMARK    5  A    between atoms: C_9  and  C_10 
REMARK    6  A    between atoms: N_15  and  C_14 
REMARK    7  A    between atoms: N_20  and  C_19 
REMARK       I    between atoms: C_22  and  N_20 
ROOT
ATOM      1  C   LIG d   1     -24.863  85.049 115.641  0.00  0.00     0.161 C 
ATOM      2  C   LIG d   1     -26.103  84.448 115.916  0.00  0.00     0.016 C 
ATOM      3  C   LIG d   1     -27.292  84.762 115.219  0.00  0.00     0.038 C 
ATOM      4  C   LIG d   1     -27.292  85.594 114.090  0.00  0.00     0.028 C 
ATOM      5  C   LIG d   1     -26.157  86.614 114.089  0.00  0.00    -0.047 C 
ATOM      6  C   LIG d   1     -24.821  85.878 114.339  0.00  0.00     0.091 C 
ENDROOT
BRANCH   1   7
ATOM      7  O   LIG d   1     -23.826  84.049 115.631  0.00  0.00    -0.368 OA
BRANCH   7   8
ATOM      8  C   LIG d   1     -24.231  82.714 115.238  0.00  0.00     0.119 C 
BRANCH   8   9
ATOM      9  C   LIG d   1     -23.340  81.716 116.002  0.00  0.00     0.028 C 
ATOM     10  C   LIG d   1     -23.789  80.258 115.805  0.00  0.00     0.006 C 
ENDBRANCH   8   9
BRANCH   8  11
ATOM     11  C   LIG d   1     -23.945  82.460 113.755  0.00  0.00     0.028 C 
ATOM     12  C   LIG d   1     -25.226  82.342 112.913  0.00  0.00     0.006 C 
ENDBRANCH   8  11
ENDBRANCH   7   8
ENDBRANCH   1   7
BRANCH   6  13
ATOM     13  N   LIG d   1     -23.669  86.812 114.438  0.00  0.00    -0.311 N 
ATOM     14  C   LIG d   1     -22.464  86.545 113.937  0.00  0.00     0.210 C 
ATOM     15  C   LIG d   1     -21.413  87.636 114.166  0.00  0.00     0.109 C 
ATOM     16  O   LIG d   1     -22.175  85.523 113.297  0.00  0.00    -0.276 OA
ATOM     17  H   LIG d   1     -23.824  87.678 114.915  0.00  0.00     0.149 HD
ENDBRANCH   6  13
BRANCH   5  18
ATOM     18  N   LIG d   1     -26.194  87.321 112.795  0.00  0.00     0.381 N 
ATOM     19  H   LIG d   1     -25.416  87.039 112.233  0.00  0.00    -0.090 HD
ATOM     20  H   LIG d   1     -26.121  88.309 112.962  0.00  0.00    -0.090 HD
ATOM     21  H   LIG d   1     -27.047  87.119 112.320  0.00  0.00    -0.090 HD
ENDBRANCH   5  18
BRANCH   3  22
ATOM     22  C   LIG d   1     -28.506  84.271 115.675  0.00  0.00     0.382 C 
ATOM     23  O   LIG d   1     -29.273  85.012 116.335  0.00  0.00    -0.241 OA
ATOM     24  O   LIG d   1     -28.823  83.084 115.473  0.00  0.00    -0.241 OA
ENDBRANCH   3  22
TORSDOF 7
ENDMDL
MODEL 8
REMARK VINA RESULT:      -4.3      2.880      6.268
REMARK  7 active torsions:
REMARK  status: ('A' for Active; 'I' for Inactive)
REMARK    1  A    between atoms: C_2  and  C_3 
REMARK    2  A    between atoms: C_3  and  O_6 
REMARK    3  A    between atoms: C_3  and  C_4 
REMARK    4  A    between atoms: C_7  and  O_6 
REMARK    5  A    between atoms: C_9  and  C_10 
REMARK    6  A    between atoms: N_15  and  C_14 
REMARK    7  A    between atoms: N_20  and  C_19 
REMARK       I    between atoms: C_22  and  N_20 
ROOT
ATOM      1  C   LIG d   1       2.088  87.436 116.432  0.00  0.00     0.161 C 
ATOM      2  C   LIG d   1       0.768  87.038 116.702  0.00  0.00     0.016 C 
ATOM      3  C   LIG d   1      -0.242  87.930 117.130  0.00  0.00     0.038 C 
ATOM      4  C   LIG d   1      -0.036  89.317 117.173  0.00  0.00     0.028 C 
ATOM      5  C   LIG d   1       1.421  89.707 117.395  0.00  0.00    -0.047 C 
ATOM      6  C   LIG d   1       2.302  88.963 116.366  0.00  0.00     0.091 C 
ENDROOT
BRANCH   1   7
ATOM      7  O   LIG d   1       2.547  86.812 115.217  0.00  0.00    -0.368 OA
BRANCH   7   8
ATOM      8  C   LIG d   1       1.699  86.978 114.055  0.00  0.00     0.119 C 
BRANCH   8   9
ATOM      9  C   LIG d   1       1.390  85.573 113.502  0.00  0.00     0.028 C 
ATOM     10  C   LIG d   1      -0.112  85.247 113.533  0.00  0.00     0.006 C 
ENDBRANCH   8   9
BRANCH   8  11
ATOM     11  C   LIG d   1       2.435  87.705 112.926  0.00  0.00     0.028 C 
ATOM     12  C   LIG d   1       3.868  87.189 112.720  0.00  0.00     0.006 C 
ENDBRANCH   8  11
ENDBRANCH   7   8
ENDBRANCH   1   7
BRANCH   6  13
ATOM     13  N   LIG d   1       3.751  89.223 116.567  0.00  0.00    -0.311 N 
ATOM     14  C   LIG d   1       4.529  89.790 115.647  0.00  0.00     0.210 C 
ATOM     15  C   LIG d   1       5.999  89.948 116.050  0.00  0.00     0.109 C 
ATOM     16  O   LIG d   1       4.135  90.207 114.547  0.00  0.00    -0.276 OA
ATOM     17  H   LIG d   1       4.147  88.944 117.443  0.00  0.00     0.149 HD
ENDBRANCH   6  13
BRANCH   5  18
ATOM     18  N   LIG d   1       1.512  91.175 117.279  0.00  0.00     0.381 N 
ATOM     19  H   LIG d   1       0.986  91.606 118.013  0.00  0.00    -0.090 HD
ATOM     20  H   LIG d   1       1.116  91.457 116.400  0.00  0.00    -0.090 HD
ATOM     21  H   LIG d   1       2.465  91.463 117.331  0.00  0.00    -0.090 HD
ENDBRANCH   5  18
BRANCH   3  22
ATOM     22  C   LIG d   1      -1.462  87.432 117.560  0.00  0.00     0.382 C 
ATOM     23  O   LIG d   1      -2.511  88.095 117.375  0.00  0.00    -0.241 OA
ATOM     24  O   LIG d   1      -1.522  86.348 118.171  0.00  0.00    -0.241 OA
ENDBRANCH   3  22
TORSDOF 7
ENDMDL
MODEL 9
REMARK VINA RESULT:      -4.2      2.264      5.051
REMARK  7 active torsions:
REMARK  status: ('A' for Active; 'I' for Inactive)
REMARK    1  A    between atoms: C_2  and  C_3 
REMARK    2  A    between atoms: C_3  and  O_6 
REMARK    3  A    between atoms: C_3  and  C_4 
REMARK    4  A    between atoms: C_7  and  O_6 
REMARK    5  A    between atoms: C_9  and  C_10 
REMARK    6  A    between atoms: N_15  and  C_14 
REMARK    7  A    between atoms: N_20  and  C_19 
REMARK       I    between atoms: C_22  and  N_20 
ROOT
ATOM      1  C   LIG d   1       1.903  87.157 115.412  0.00  0.00     0.161 C 
ATOM      2  C   LIG d   1       1.066  87.738 116.379  0.00  0.00     0.016 C 
ATOM      3  C   LIG d   1      -0.301  87.407 116.524  0.00  0.00     0.038 C 
ATOM      4  C   LIG d   1      -0.890  86.356 115.807  0.00  0.00     0.028 C 
ATOM      5  C   LIG d   1      -0.215  86.084 114.467  0.00  0.00    -0.047 C 
ATOM      6  C   LIG d   1       1.306  85.928 114.694  0.00  0.00     0.091 C 
ENDROOT
BRANCH   1   7
ATOM      7  O   LIG d   1       3.174  86.823 116.003  0.00  0.00    -0.368 OA
BRANCH   7   8
ATOM      8  C   LIG d   1       4.292  87.665 115.628  0.00  0.00     0.119 C 
BRANCH   8   9
ATOM      9  C   LIG d   1       4.421  88.766 116.697  0.00  0.00     0.028 C 
ATOM     10  C   LIG d   1       4.067  90.159 116.150  0.00  0.00     0.006 C 
ENDBRANCH   8   9
BRANCH   8  11
ATOM     11  C   LIG d   1       4.018  88.404 114.315  0.00  0.00     0.028 C 
ATOM     12  C   LIG d   1       4.986  88.002 113.191  0.00  0.00     0.006 C 
ENDBRANCH   8  11
ENDBRANCH   7   8
ENDBRANCH   1   7
BRANCH   6  13
ATOM     13  N   LIG d   1       2.053  85.743 113.422  0.00  0.00    -0.311 N 
ATOM     14  C   LIG d   1       2.948  84.775 113.232  0.00  0.00     0.210 C 
ATOM     15  C   LIG d   1       3.618  84.776 111.854  0.00  0.00     0.109 C 
ATOM     16  O   LIG d   1       3.228  83.897 114.062  0.00  0.00    -0.276 OA
ATOM     17  H   LIG d   1       1.865  86.393 112.684  0.00  0.00     0.149 HD
ENDBRANCH   6  13
BRANCH   5  18
ATOM     18  N   LIG d   1      -0.840  84.879 113.889  0.00  0.00     0.381 N 
ATOM     19  H   LIG d   1      -0.132  84.218 113.637  0.00  0.00    -0.090 HD
ATOM     20  H   LIG d   1      -1.340  85.139 113.057  0.00  0.00    -0.090 HD
ATOM     21  H   LIG d   1      -1.466  84.470 114.548  0.00  0.00    -0.090 HD
ENDBRANCH   5  18
BRANCH   3  22
ATOM     22  C   LIG d   1      -1.104  88.160 117.368  0.00  0.00     0.382 C 
ATOM     23  O   LIG d   1      -2.351  88.030 117.328  0.00  0.00    -0.241 OA
ATOM     24  O   LIG d   1      -0.599  88.998 118.139  0.00  0.00    -0.241 OA
ENDBRANCH   3  22
TORSDOF 7
ENDMDL
