MODEL 1
REMARK VINA RESULT:      -4.8      0.000      0.000
REMARK  7 active torsions:
REMARK  status: ('A' for Active; 'I' for Inactive)
REMARK    1  A    between atoms: C_2  and  C_3 
REMARK    2  A    between atoms: C_3  and  O_6 
REMARK    3  A    between atoms: C_3  and  C_4 
REMARK    4  A    between atoms: C_7  and  O_6 
REMARK    5  A    between atoms: C_9  and  C_10 
REMARK    6  A    between atoms: N_15  and  C_14 
REMARK    7  A    between atoms: N_20  and  C_19 
REMARK       I    between atoms: C_22  and  N_20 
ROOT
ATOM      1  C   LIG d   1      10.827  75.763 114.833  0.00  0.00     0.161 C 
ATOM      2  C   LIG d   1       9.473  76.099 115.003  0.00  0.00     0.016 C 
ATOM      3  C   LIG d   1       8.981  77.420 114.900  0.00  0.00     0.038 C 
ATOM      4  C   LIG d   1       9.791  78.482 114.469  0.00  0.00     0.028 C 
ATOM      5  C   LIG d   1      11.270  78.279 114.776  0.00  0.00    -0.047 C 
ATOM      6  C   LIG d   1      11.705  76.891 114.253  0.00  0.00     0.091 C 
ENDROOT
BRANCH   1   7
ATOM      7  O   LIG d   1      10.938  74.575 114.024  0.00  0.00    -0.368 OA
BRANCH   7   8
ATOM      8  C   LIG d   1      11.527  73.418 114.667  0.00  0.00     0.119 C 
BRANCH   8   9
ATOM      9  C   LIG d   1      12.467  72.750 113.646  0.00  0.00     0.028 C 
ATOM     10  C   LIG d   1      13.952  72.955 113.993  0.00  0.00     0.006 C 
ENDBRANCH   8   9
BRANCH   8  11
ATOM     11  C   LIG d   1      10.467  72.362 114.994  0.00  0.00     0.028 C 
ATOM     12  C   LIG d   1      10.601  71.804 116.419  0.00  0.00     0.006 C 
ENDBRANCH   8  11
ENDBRANCH   7   8
ENDBRANCH   1   7
BRANCH   6  13
ATOM     13  N   LIG d   1      13.119  76.577 114.587  0.00  0.00    -0.311 N 
ATOM     14  C   LIG d   1      14.141  76.845 113.776  0.00  0.00     0.210 C 
ATOM     15  C   LIG d   1      15.515  76.421 114.305  0.00  0.00     0.109 C 
ATOM     16  O   LIG d   1      14.044  77.423 112.683  0.00  0.00    -0.276 OA
ATOM     17  H   LIG d   1      13.292  76.135 115.468  0.00  0.00     0.149 HD
ENDBRANCH   6  13
BRANCH   5  18
ATOM     18  N   LIG d   1      12.012  79.390 114.152  0.00  0.00     0.381 N 
ATOM     19  H   LIG d   1      12.095  79.232 113.168  0.00  0.00    -0.090 HD
ATOM     20  H   LIG d   1      12.936  79.426 114.545  0.00  0.00    -0.090 HD
ATOM     21  H   LIG d   1      11.539  80.251 114.318  0.00  0.00    -0.090 HD
ENDBRANCH   5  18
BRANCH   3  22
ATOM     22  C   LIG d   1       7.674  77.697 115.270  0.00  0.00     0.382 C 
ATOM     23  O   LIG d   1       6.723  77.110 114.698  0.00  0.00    -0.241 OA
ATOM     24  O   LIG d   1       7.431  78.558 116.136  0.00  0.00    -0.241 OA
ENDBRANCH   3  22
TORSDOF 7
ENDMDL
MODEL 2
REMARK VINA RESULT:      -4.7     14.350     16.885
REMARK  7 active torsions:
REMARK  status: ('A' for Active; 'I' for Inactive)
REMARK    1  A    between atoms: C_2  and  C_3 
REMARK    2  A    between atoms: C_3  and  O_6 
REMARK    3  A    between atoms: C_3  and  C_4 
REMARK    4  A    between atoms: C_7  and  O_6 
REMARK    5  A    between atoms: C_9  and  C_10 
REMARK    6  A    between atoms: N_15  and  C_14 
REMARK    7  A    between atoms: N_20  and  C_19 
REMARK       I    between atoms: C_22  and  N_20 
ROOT
ATOM      1  C   LIG d   1       0.977  88.866 116.867  0.00  0.00     0.161 C 
ATOM      2  C   LIG d   1      -0.419  88.707 116.895  0.00  0.00     0.016 C 
ATOM      3  C   LIG d   1      -1.304  89.690 117.394  0.00  0.00     0.038 C 
ATOM      4  C   LIG d   1      -0.860  90.969 117.763  0.00  0.00     0.028 C 
ATOM      5  C   LIG d   1       0.593  90.996 118.225  0.00  0.00    -0.047 C 
ATOM      6  C   LIG d   1       1.471  90.298 117.162  0.00  0.00     0.091 C 
ENDROOT
BRANCH   1   7
ATOM      7  O   LIG d   1       1.496  88.407 115.603  0.00  0.00    -0.368 OA
BRANCH   7   8
ATOM      8  C   LIG d   1       2.566  87.433 115.669  0.00  0.00     0.119 C 
BRANCH   8   9
ATOM      9  C   LIG d   1       3.745  87.983 114.843  0.00  0.00     0.028 C 
ATOM     10  C   LIG d   1       5.105  87.698 115.501  0.00  0.00     0.006 C 
ENDBRANCH   8   9
BRANCH   8  11
ATOM     11  C   LIG d   1       2.169  86.121 114.984  0.00  0.00     0.028 C 
ATOM     12  C   LIG d   1       2.360  86.163 113.460  0.00  0.00     0.006 C 
ENDBRANCH   8  11
ENDBRANCH   7   8
ENDBRANCH   1   7
BRANCH   6  13
ATOM     13  N   LIG d   1       2.896  90.206 117.575  0.00  0.00    -0.311 N 
ATOM     14  C   LIG d   1       3.811  91.121 117.260  0.00  0.00     0.210 C 
ATOM     15  C   LIG d   1       5.225  90.823 117.768  0.00  0.00     0.109 C 
ATOM     16  O   LIG d   1       3.579  92.167 116.636  0.00  0.00    -0.276 OA
ATOM     17  H   LIG d   1       3.164  89.404 118.111  0.00  0.00     0.149 HD
ENDBRANCH   6  13
BRANCH   5  18
ATOM     18  N   LIG d   1       0.964  92.406 118.446  0.00  0.00     0.381 N 
ATOM     19  H   LIG d   1       0.173  92.915 118.787  0.00  0.00    -0.090 HD
ATOM     20  H   LIG d   1       1.245  92.810 117.569  0.00  0.00    -0.090 HD
ATOM     21  H   LIG d   1       1.713  92.463 119.101  0.00  0.00    -0.090 HD
ENDBRANCH   5  18
BRANCH   3  22
ATOM     22  C   LIG d   1      -2.645  89.383 117.566  0.00  0.00     0.382 C 
ATOM     23  O   LIG d   1      -3.495  89.808 116.747  0.00  0.00    -0.241 OA
ATOM     24  O   LIG d   1      -3.021  88.725 118.555  0.00  0.00    -0.241 OA
ENDBRANCH   3  22
TORSDOF 7
ENDMDL
MODEL 3
REMARK VINA RESULT:      -4.7      2.430      6.542
REMARK  7 active torsions:
REMARK  status: ('A' for Active; 'I' for Inactive)
REMARK    1  A    between atoms: C_2  and  C_3 
REMARK    2  A    between atoms: C_3  and  O_6 
REMARK    3  A    between atoms: C_3  and  C_4 
REMARK    4  A    between atoms: C_7  and  O_6 
REMARK    5  A    between atoms: C_9  and  C_10 
REMARK    6  A    between atoms: N_15  and  C_14 
REMARK    7  A    between atoms: N_20  and  C_19 
REMARK       I    between atoms: C_22  and  N_20 
ROOT
ATOM      1  C   LIG d   1      12.677  76.291 114.234  0.00  0.00     0.161 C 
ATOM      2  C   LIG d   1      13.887  75.589 114.107  0.00  0.00     0.016 C 
ATOM      3  C   LIG d   1      13.984  74.182 114.198  0.00  0.00     0.038 C 
ATOM      4  C   LIG d   1      12.847  73.364 114.274  0.00  0.00     0.028 C 
ATOM      5  C   LIG d   1      11.646  74.053 114.912  0.00  0.00    -0.047 C 
ATOM      6  C   LIG d   1      11.412  75.408 114.206  0.00  0.00     0.091 C 
ENDROOT
BRANCH   1   7
ATOM      7  O   LIG d   1      12.596  77.315 113.223  0.00  0.00    -0.368 OA
BRANCH   7   8
ATOM      8  C   LIG d   1      12.765  78.679 113.681  0.00  0.00     0.119 C 
BRANCH   8   9
ATOM      9  C   LIG d   1      11.419  79.403 113.487  0.00  0.00     0.028 C 
ATOM     10  C   LIG d   1      11.381  80.232 112.192  0.00  0.00     0.006 C 
ENDBRANCH   8   9
BRANCH   8  11
ATOM     11  C   LIG d   1      13.766  79.440 112.807  0.00  0.00     0.028 C 
ATOM     12  C   LIG d   1      14.562  78.518 111.870  0.00  0.00     0.006 C 
ENDBRANCH   8  11
ENDBRANCH   7   8
ENDBRANCH   1   7
BRANCH   6  13
ATOM     13  N   LIG d   1      10.307  76.186 114.825  0.00  0.00    -0.311 N 
ATOM     14  C   LIG d   1       9.025  76.026 114.499  0.00  0.00     0.210 C 
ATOM     15  C   LIG d   1       8.049  76.943 115.242  0.00  0.00     0.109 C 
ATOM     16  O   LIG d   1       8.601  75.189 113.688  0.00  0.00    -0.276 OA
ATOM     17  H   LIG d   1      10.558  76.866 115.516  0.00  0.00     0.149 HD
ENDBRANCH   6  13
BRANCH   5  18
ATOM     18  N   LIG d   1      10.495  73.137 114.802  0.00  0.00     0.381 N 
ATOM     19  H   LIG d   1       9.937  73.192 115.630  0.00  0.00    -0.090 HD
ATOM     20  H   LIG d   1      10.836  72.196 114.714  0.00  0.00    -0.090 HD
ATOM     21  H   LIG d   1       9.946  73.374 114.006  0.00  0.00    -0.090 HD
ENDBRANCH   5  18
BRANCH   3  22
ATOM     22  C   LIG d   1      15.233  73.581 114.255  0.00  0.00     0.382 C 
ATOM     23  O   LIG d   1      15.344  72.405 114.677  0.00  0.00    -0.241 OA
ATOM     24  O   LIG d   1      16.254  74.216 113.931  0.00  0.00    -0.241 OA
ENDBRANCH   3  22
TORSDOF 7
ENDMDL
MODEL 4
REMARK VINA RESULT:      -4.6      1.933      5.003
REMARK  7 active torsions:
REMARK  status: ('A' for Active; 'I' for Inactive)
REMARK    1  A    between atoms: C_2  and  C_3 
REMARK    2  A    between atoms: C_3  and  O_6 
REMARK    3  A    between atoms: C_3  and  C_4 
REMARK    4  A    between atoms: C_7  and  O_6 
REMARK    5  A    between atoms: C_9  and  C_10 
REMARK    6  A    between atoms: N_15  and  C_14 
REMARK    7  A    between atoms: N_20  and  C_19 
REMARK       I    between atoms: C_22  and  N_20 
ROOT
ATOM      1  C   LIG d   1       9.973  76.409 114.237  0.00  0.00     0.161 C 
ATOM      2  C   LIG d   1       9.754  75.132 114.781  0.00  0.00     0.016 C 
ATOM      3  C   LIG d   1      10.799  74.260 115.163  0.00  0.00     0.038 C 
ATOM      4  C   LIG d   1      12.141  74.668 115.169  0.00  0.00     0.028 C 
ATOM      5  C   LIG d   1      12.445  75.765 114.154  0.00  0.00    -0.047 C 
ATOM      6  C   LIG d   1      11.428  76.914 114.339  0.00  0.00     0.091 C 
ENDROOT
BRANCH   1   7
ATOM      7  O   LIG d   1       9.070  77.358 114.839  0.00  0.00    -0.368 OA
BRANCH   7   8
ATOM      8  C   LIG d   1       9.079  77.416 116.287  0.00  0.00     0.119 C 
BRANCH   8   9
ATOM      9  C   LIG d   1       7.645  77.744 116.745  0.00  0.00     0.028 C 
ATOM     10  C   LIG d   1       6.592  77.379 115.686  0.00  0.00     0.006 C 
ENDBRANCH   8   9
BRANCH   8  11
ATOM     11  C   LIG d   1       9.942  78.576 116.792  0.00  0.00     0.028 C 
ATOM     12  C   LIG d   1       9.690  79.884 116.026  0.00  0.00     0.006 C 
ENDBRANCH   8  11
ENDBRANCH   7   8
ENDBRANCH   1   7
BRANCH   6  13
ATOM     13  N   LIG d   1      11.601  77.992 113.331  0.00  0.00    -0.311 N 
ATOM     14  C   LIG d   1      12.314  79.095 113.552  0.00  0.00     0.210 C 
ATOM     15  C   LIG d   1      12.347  80.088 112.386  0.00  0.00     0.109 C 
ATOM     16  O   LIG d   1      12.949  79.331 114.591  0.00  0.00    -0.276 OA
ATOM     17  H   LIG d   1      11.145  77.868 112.448  0.00  0.00     0.149 HD
ENDBRANCH   6  13
BRANCH   5  18
ATOM     18  N   LIG d   1      13.842  76.190 114.362  0.00  0.00     0.381 N 
ATOM     19  H   LIG d   1      13.872  76.944 115.020  0.00  0.00    -0.090 HD
ATOM     20  H   LIG d   1      14.215  76.518 113.489  0.00  0.00    -0.090 HD
ATOM     21  H   LIG d   1      14.385  75.425 114.698  0.00  0.00    -0.090 HD
ENDBRANCH   5  18
BRANCH   3  22
ATOM     22  C   LIG d   1      10.508  72.949 115.509  0.00  0.00     0.382 C 
ATOM     23  O   LIG d   1      10.113  72.143 114.632  0.00  0.00    -0.241 OA
ATOM     24  O   LIG d   1      10.592  72.574 116.694  0.00  0.00    -0.241 OA
ENDBRANCH   3  22
TORSDOF 7
ENDMDL
MODEL 5
REMARK VINA RESULT:      -4.5     13.261     14.658
REMARK  7 active torsions:
REMARK  status: ('A' for Active; 'I' for Inactive)
REMARK    1  A    between atoms: C_2  and  C_3 
REMARK    2  A    between atoms: C_3  and  O_6 
REMARK    3  A    between atoms: C_3  and  C_4 
REMARK    4  A    between atoms: C_7  and  O_6 
REMARK    5  A    between atoms: C_9  and  C_10 
REMARK    6  A    between atoms: N_15  and  C_14 
REMARK    7  A    between atoms: N_20  and  C_19 
REMARK       I    between atoms: C_22  and  N_20 
ROOT
ATOM      1  C   LIG d   1       3.078  87.729 115.474  0.00  0.00     0.161 C 
ATOM      2  C   LIG d   1       2.547  86.840 114.525  0.00  0.00     0.016 C 
ATOM      3  C   LIG d   1       2.970  86.797 113.176  0.00  0.00     0.038 C 
ATOM      4  C   LIG d   1       4.068  87.542 112.720  0.00  0.00     0.028 C 
ATOM      5  C   LIG d   1       4.306  88.821 113.517  0.00  0.00    -0.047 C 
ATOM      6  C   LIG d   1       4.353  88.472 115.022  0.00  0.00     0.091 C 
ENDROOT
BRANCH   1   7
ATOM      7  O   LIG d   1       3.316  87.034 116.714  0.00  0.00    -0.368 OA
BRANCH   7   8
ATOM      8  C   LIG d   1       2.364  87.283 117.777  0.00  0.00     0.119 C 
BRANCH   8   9
ATOM      9  C   LIG d   1       1.448  86.047 117.877  0.00  0.00     0.028 C 
ATOM     10  C   LIG d   1       2.236  84.727 117.821  0.00  0.00     0.006 C 
ENDBRANCH   8   9
BRANCH   8  11
ATOM     11  C   LIG d   1       1.435  88.449 117.431  0.00  0.00     0.028 C 
ATOM     12  C   LIG d   1      -0.051  88.056 117.458  0.00  0.00     0.006 C 
ENDBRANCH   8  11
ENDBRANCH   7   8
ENDBRANCH   1   7
BRANCH   6  13
ATOM     13  N   LIG d   1       4.498  89.677 115.879  0.00  0.00    -0.311 N 
ATOM     14  C   LIG d   1       5.479  89.832 116.767  0.00  0.00     0.210 C 
ATOM     15  C   LIG d   1       5.432  91.141 117.561  0.00  0.00     0.109 C 
ATOM     16  O   LIG d   1       6.401  89.023 116.949  0.00  0.00    -0.276 OA
ATOM     17  H   LIG d   1       3.810  90.397 115.774  0.00  0.00     0.149 HD
ENDBRANCH   6  13
BRANCH   5  18
ATOM     18  N   LIG d   1       5.557  89.426 113.024  0.00  0.00     0.381 N 
ATOM     19  H   LIG d   1       5.964  89.993 113.742  0.00  0.00    -0.090 HD
ATOM     20  H   LIG d   1       5.346  90.016 112.239  0.00  0.00    -0.090 HD
ATOM     21  H   LIG d   1       6.197  88.713 112.751  0.00  0.00    -0.090 HD
ENDBRANCH   5  18
BRANCH   3  22
ATOM     22  C   LIG d   1       2.267  86.031 112.259  0.00  0.00     0.382 C 
ATOM     23  O   LIG d   1       2.772  84.976 111.805  0.00  0.00    -0.241 OA
ATOM     24  O   LIG d   1       1.153  86.405 111.846  0.00  0.00    -0.241 OA
ENDBRANCH   3  22
TORSDOF 7
ENDMDL
MODEL 6
REMARK VINA RESULT:      -4.5     11.931     13.959
REMARK  7 active torsions:
REMARK  status: ('A' for Active; 'I' for Inactive)
REMARK    1  A    between atoms: C_2  and  C_3 
REMARK    2  A    between atoms: C_3  and  O_6 
REMARK    3  A    between atoms: C_3  and  C_4 
REMARK    4  A    between atoms: C_7  and  O_6 
REMARK    5  A    between atoms: C_9  and  C_10 
REMARK    6  A    between atoms: N_15  and  C_14 
REMARK    7  A    between atoms: N_20  and  C_19 
REMARK       I    between atoms: C_22  and  N_20 
ROOT
ATOM      1  C   LIG d   1       3.185  87.583 115.456  0.00  0.00     0.161 C 
ATOM      2  C   LIG d   1       2.627  86.728 114.491  0.00  0.00     0.016 C 
ATOM      3  C   LIG d   1       2.993  86.752 113.126  0.00  0.00     0.038 C 
ATOM      4  C   LIG d   1       4.058  87.535 112.657  0.00  0.00     0.028 C 
ATOM      5  C   LIG d   1       4.311  88.781 113.499  0.00  0.00    -0.047 C 
ATOM      6  C   LIG d   1       4.428  88.368 114.984  0.00  0.00     0.091 C 
ENDROOT
BRANCH   1   7
ATOM      7  O   LIG d   1       3.487  86.839 116.653  0.00  0.00    -0.368 OA
BRANCH   7   8
ATOM      8  C   LIG d   1       3.034  85.463 116.679  0.00  0.00     0.119 C 
BRANCH   8   9
ATOM      9  C   LIG d   1       2.094  85.308 117.890  0.00  0.00     0.028 C 
ATOM     10  C   LIG d   1       1.058  86.441 117.977  0.00  0.00     0.006 C 
ENDBRANCH   8   9
BRANCH   8  11
ATOM     11  C   LIG d   1       4.195  84.499 116.940  0.00  0.00     0.028 C 
ATOM     12  C   LIG d   1       5.565  85.113 116.612  0.00  0.00     0.006 C 
ENDBRANCH   8  11
ENDBRANCH   7   8
ENDBRANCH   1   7
BRANCH   6  13
ATOM     13  N   LIG d   1       4.591  89.537 115.887  0.00  0.00    -0.311 N 
ATOM     14  C   LIG d   1       5.560  89.631 116.796  0.00  0.00     0.210 C 
ATOM     15  C   LIG d   1       5.535  90.912 117.637  0.00  0.00     0.109 C 
ATOM     16  O   LIG d   1       6.456  88.791 116.964  0.00  0.00    -0.276 OA
ATOM     17  H   LIG d   1       3.925  90.279 115.797  0.00  0.00     0.149 HD
ENDBRANCH   6  13
BRANCH   5  18
ATOM     18  N   LIG d   1       5.530  89.429 112.982  0.00  0.00     0.381 N 
ATOM     19  H   LIG d   1       6.312  88.815 113.089  0.00  0.00    -0.090 HD
ATOM     20  H   LIG d   1       5.708  90.261 113.517  0.00  0.00    -0.090 HD
ATOM     21  H   LIG d   1       5.411  89.663 112.021  0.00  0.00    -0.090 HD
ENDBRANCH   5  18
BRANCH   3  22
ATOM     22  C   LIG d   1       2.263  86.015 112.206  0.00  0.00     0.382 C 
ATOM     23  O   LIG d   1       1.152  86.436 111.805  0.00  0.00    -0.241 OA
ATOM     24  O   LIG d   1       2.682  84.912 111.805  0.00  0.00    -0.241 OA
ENDBRANCH   3  22
TORSDOF 7
ENDMDL
MODEL 7
REMARK VINA RESULT:      -4.4     34.501     36.617
REMARK  7 active torsions:
REMARK  status: ('A' for Active; 'I' for Inactive)
REMARK    1  A    between atoms: C_2  and  C_3 
REMARK    2  A    between atoms: C_3  and  O_6 
REMARK    3  A    between atoms: C_3  and  C_4 
REMARK    4  A    between atoms: C_7  and  O_6 
REMARK    5  A    between atoms: C_9  and  C_10 
REMARK    6  A    between atoms: N_15  and  C_14 
REMARK    7  A    between atoms: N_20  and  C_19 
REMARK       I    between atoms: C_22  and  N_20 
ROOT
ATOM      1  C   LIG d   1     -23.648  83.600 113.444  0.00  0.00     0.161 C 
ATOM      2  C   LIG d   1     -22.785  84.693 113.631  0.00  0.00     0.016 C 
ATOM      3  C   LIG d   1     -23.229  86.034 113.687  0.00  0.00     0.038 C 
ATOM      4  C   LIG d   1     -24.592  86.364 113.711  0.00  0.00     0.028 C 
ATOM      5  C   LIG d   1     -25.477  85.334 113.017  0.00  0.00    -0.047 C 
ATOM      6  C   LIG d   1     -25.149  83.931 113.580  0.00  0.00     0.091 C 
ENDROOT
BRANCH   1   7
ATOM      7  O   LIG d   1     -23.287  82.533 114.343  0.00  0.00    -0.368 OA
BRANCH   7   8
ATOM      8  C   LIG d   1     -23.444  82.810 115.757  0.00  0.00     0.119 C 
BRANCH   8   9
ATOM      9  C   LIG d   1     -22.120  82.437 116.451  0.00  0.00     0.028 C 
ATOM     10  C   LIG d   1     -22.147  82.726 117.961  0.00  0.00     0.006 C 
ENDBRANCH   8   9
BRANCH   8  11
ATOM     11  C   LIG d   1     -24.503  81.902 116.389  0.00  0.00     0.028 C 
ATOM     12  C   LIG d   1     -24.728  80.607 115.594  0.00  0.00     0.006 C 
ENDBRANCH   8  11
ENDBRANCH   7   8
ENDBRANCH   1   7
BRANCH   6  13
ATOM     13  N   LIG d   1     -25.911  82.854 112.895  0.00  0.00    -0.311 N 
ATOM     14  C   LIG d   1     -27.057  82.359 113.359  0.00  0.00     0.210 C 
ATOM     15  C   LIG d   1     -27.668  81.239 112.510  0.00  0.00     0.109 C 
ATOM     16  O   LIG d   1     -27.643  82.762 114.375  0.00  0.00    -0.276 OA
ATOM     17  H   LIG d   1     -25.524  82.490 112.047  0.00  0.00     0.149 HD
ENDBRANCH   6  13
BRANCH   5  18
ATOM     18  N   LIG d   1     -26.880  85.731 113.237  0.00  0.00     0.381 N 
ATOM     19  H   LIG d   1     -27.043  86.634 112.838  0.00  0.00    -0.090 HD
ATOM     20  H   LIG d   1     -27.051  85.787 114.225  0.00  0.00    -0.090 HD
ATOM     21  H   LIG d   1     -27.493  85.063 112.824  0.00  0.00    -0.090 HD
ENDBRANCH   5  18
BRANCH   3  22
ATOM     22  C   LIG d   1     -22.302  87.065 113.679  0.00  0.00     0.382 C 
ATOM     23  O   LIG d   1     -22.616  88.194 114.127  0.00  0.00    -0.241 OA
ATOM     24  O   LIG d   1     -21.169  86.893 113.190  0.00  0.00    -0.241 OA
ENDBRANCH   3  22
TORSDOF 7
ENDMDL
MODEL 8
REMARK VINA RESULT:      -4.3     35.287     37.590
REMARK  7 active torsions:
REMARK  status: ('A' for Active; 'I' for Inactive)
REMARK    1  A    between atoms: C_2  and  C_3 
REMARK    2  A    between atoms: C_3  and  O_6 
REMARK    3  A    between atoms: C_3  and  C_4 
REMARK    4  A    between atoms: C_7  and  O_6 
REMARK    5  A    between atoms: C_9  and  C_10 
REMARK    6  A    between atoms: N_15  and  C_14 
REMARK    7  A    between atoms: N_20  and  C_19 
REMARK       I    between atoms: C_22  and  N_20 
ROOT
ATOM      1  C   LIG d   1     -24.798  84.628 113.539  0.00  0.00     0.161 C 
ATOM      2  C   LIG d   1     -23.595  85.312 113.782  0.00  0.00     0.016 C 
ATOM      3  C   LIG d   1     -23.442  86.706 113.600  0.00  0.00     0.038 C 
ATOM      4  C   LIG d   1     -24.532  87.539 113.307  0.00  0.00     0.028 C 
ATOM      5  C   LIG d   1     -25.655  86.827 112.560  0.00  0.00    -0.047 C 
ATOM      6  C   LIG d   1     -26.026  85.536 113.325  0.00  0.00     0.091 C 
ENDROOT
BRANCH   1   7
ATOM      7  O   LIG d   1     -25.049  83.688 114.602  0.00  0.00    -0.368 OA
BRANCH   7   8
ATOM      8  C   LIG d   1     -24.273  83.872 115.812  0.00  0.00     0.119 C 
BRANCH   8   9
ATOM      9  C   LIG d   1     -23.914  82.473 116.349  0.00  0.00     0.028 C 
ATOM     10  C   LIG d   1     -23.258  81.584 115.280  0.00  0.00     0.006 C 
ENDBRANCH   8   9
BRANCH   8  11
ATOM     11  C   LIG d   1     -25.109  84.528 116.915  0.00  0.00     0.028 C 
ATOM     12  C   LIG d   1     -24.523  85.868 117.388  0.00  0.00     0.006 C 
ENDBRANCH   8  11
ENDBRANCH   7   8
ENDBRANCH   1   7
BRANCH   6  13
ATOM     13  N   LIG d   1     -27.060  84.736 112.617  0.00  0.00    -0.311 N 
ATOM     14  C   LIG d   1     -28.269  84.491 113.120  0.00  0.00     0.210 C 
ATOM     15  C   LIG d   1     -29.174  83.628 112.235  0.00  0.00     0.109 C 
ATOM     16  O   LIG d   1     -28.689  84.934 114.199  0.00  0.00    -0.276 OA
ATOM     17  H   LIG d   1     -26.814  84.364 111.720  0.00  0.00     0.149 HD
ENDBRANCH   6  13
BRANCH   5  18
ATOM     18  N   LIG d   1     -26.780  87.773 112.440  0.00  0.00     0.381 N 
ATOM     19  H   LIG d   1     -27.334  87.542 111.640  0.00  0.00    -0.090 HD
ATOM     20  H   LIG d   1     -26.414  88.700 112.314  0.00  0.00    -0.090 HD
ATOM     21  H   LIG d   1     -27.342  87.740 113.262  0.00  0.00    -0.090 HD
ENDBRANCH   5  18
BRANCH   3  22
ATOM     22  C   LIG d   1     -22.180  87.274 113.674  0.00  0.00     0.382 C 
ATOM     23  O   LIG d   1     -21.191  86.668 113.196  0.00  0.00    -0.241 OA
ATOM     24  O   LIG d   1     -22.010  88.364 114.252  0.00  0.00    -0.241 OA
ENDBRANCH   3  22
TORSDOF 7
ENDMDL
MODEL 9
REMARK VINA RESULT:      -4.2     28.819     31.183
REMARK  7 active torsions:
REMARK  status: ('A' for Active; 'I' for Inactive)
REMARK    1  A    between atoms: C_2  and  C_3 
REMARK    2  A    between atoms: C_3  and  O_6 
REMARK    3  A    between atoms: C_3  and  C_4 
REMARK    4  A    between atoms: C_7  and  O_6 
REMARK    5  A    between atoms: C_9  and  C_10 
REMARK    6  A    between atoms: N_15  and  C_14 
REMARK    7  A    between atoms: N_20  and  C_19 
REMARK       I    between atoms: C_22  and  N_20 
ROOT
ATOM      1  C   LIG d   1     -16.795  64.748 115.446  0.00  0.00     0.161 C 
ATOM      2  C   LIG d   1     -15.743  64.900 116.365  0.00  0.00     0.016 C 
ATOM      3  C   LIG d   1     -15.759  65.844 117.416  0.00  0.00     0.038 C 
ATOM      4  C   LIG d   1     -16.901  66.603 117.714  0.00  0.00     0.028 C 
ATOM      5  C   LIG d   1     -17.800  66.844 116.507  0.00  0.00    -0.047 C 
ATOM      6  C   LIG d   1     -18.095  65.490 115.822  0.00  0.00     0.091 C 
ENDROOT
BRANCH   1   7
ATOM      7  O   LIG d   1     -17.061  63.347 115.235  0.00  0.00    -0.368 OA
BRANCH   7   8
ATOM      8  C   LIG d   1     -17.997  62.730 116.153  0.00  0.00     0.119 C 
BRANCH   8   9
ATOM      9  C   LIG d   1     -17.202  61.746 117.033  0.00  0.00     0.028 C 
ATOM     10  C   LIG d   1     -17.051  62.243 118.481  0.00  0.00     0.006 C 
ENDBRANCH   8   9
BRANCH   8  11
ATOM     11  C   LIG d   1     -19.023  61.871 115.410  0.00  0.00     0.028 C 
ATOM     12  C   LIG d   1     -18.967  62.061 113.886  0.00  0.00     0.006 C 
ENDBRANCH   8  11
ENDBRANCH   7   8
ENDBRANCH   1   7
BRANCH   6  13
ATOM     13  N   LIG d   1     -18.900  65.644 114.583  0.00  0.00    -0.311 N 
ATOM     14  C   LIG d   1     -20.220  65.478 114.541  0.00  0.00     0.210 C 
ATOM     15  C   LIG d   1     -20.852  65.664 113.157  0.00  0.00     0.109 C 
ATOM     16  O   LIG d   1     -20.933  65.225 115.524  0.00  0.00    -0.276 OA
ATOM     17  H   LIG d   1     -18.405  65.879 113.744  0.00  0.00     0.149 HD
ENDBRANCH   6  13
BRANCH   5  18
ATOM     18  N   LIG d   1     -19.017  67.527 116.986  0.00  0.00     0.381 N 
ATOM     19  H   LIG d   1     -18.772  68.405 117.397  0.00  0.00    -0.090 HD
ATOM     20  H   LIG d   1     -19.452  66.958 117.691  0.00  0.00    -0.090 HD
ATOM     21  H   LIG d   1     -19.648  67.670 116.229  0.00  0.00    -0.090 HD
ENDBRANCH   5  18
BRANCH   3  22
ATOM     22  C   LIG d   1     -14.609  66.066 118.159  0.00  0.00     0.382 C 
ATOM     23  O   LIG d   1     -14.236  67.239 118.402  0.00  0.00    -0.241 OA
ATOM     24  O   LIG d   1     -13.915  65.108 118.550  0.00  0.00    -0.241 OA
ENDBRANCH   3  22
TORSDOF 7
ENDMDL
