MODEL 1
REMARK VINA RESULT:      -5.8      0.000      0.000
REMARK  7 active torsions:
REMARK  status: ('A' for Active; 'I' for Inactive)
REMARK    1  A    between atoms: C_2  and  C_3 
REMARK    2  A    between atoms: C_3  and  O_6 
REMARK    3  A    between atoms: C_3  and  C_4 
REMARK    4  A    between atoms: C_7  and  O_6 
REMARK    5  A    between atoms: C_9  and  C_10 
REMARK    6  A    between atoms: N_15  and  C_14 
REMARK    7  A    between atoms: N_20  and  C_19 
REMARK       I    between atoms: C_22  and  N_20 
ROOT
ATOM      1  C   LIG d   1      -3.132  77.344 114.345  0.00  0.00     0.161 C 
ATOM      2  C   LIG d   1      -3.236  78.554 113.638  0.00  0.00     0.016 C 
ATOM      3  C   LIG d   1      -2.118  79.323 113.242  0.00  0.00     0.038 C 
ATOM      4  C   LIG d   1      -0.805  78.853 113.394  0.00  0.00     0.028 C 
ATOM      5  C   LIG d   1      -0.641  77.875 114.552  0.00  0.00    -0.047 C 
ATOM      6  C   LIG d   1      -1.706  76.761 114.422  0.00  0.00     0.091 C 
ENDROOT
BRANCH   1   7
ATOM      7  O   LIG d   1      -4.041  76.373 113.788  0.00  0.00    -0.368 OA
BRANCH   7   8
ATOM      8  C   LIG d   1      -5.103  75.919 114.662  0.00  0.00     0.119 C 
BRANCH   8   9
ATOM      9  C   LIG d   1      -4.978  74.388 114.784  0.00  0.00     0.028 C 
ATOM     10  C   LIG d   1      -6.064  73.782 115.690  0.00  0.00     0.006 C 
ENDBRANCH   8   9
BRANCH   8  11
ATOM     11  C   LIG d   1      -6.480  76.166 114.040  0.00  0.00     0.028 C 
ATOM     12  C   LIG d   1      -6.398  76.691 112.598  0.00  0.00     0.006 C 
ENDBRANCH   8  11
ENDBRANCH   7   8
ENDBRANCH   1   7
BRANCH   6  13
ATOM     13  N   LIG d   1      -1.670  75.807 115.561  0.00  0.00    -0.311 N 
ATOM     14  C   LIG d   1      -1.003  74.655 115.532  0.00  0.00     0.210 C 
ATOM     15  C   LIG d   1      -1.115  73.811 116.805  0.00  0.00     0.109 C 
ATOM     16  O   LIG d   1      -0.303  74.267 114.585  0.00  0.00    -0.276 OA
ATOM     17  H   LIG d   1      -2.186  76.058 116.382  0.00  0.00     0.149 HD
ENDBRANCH   6  13
BRANCH   5  18
ATOM     18  N   LIG d   1       0.741  77.361 114.510  0.00  0.00     0.381 N 
ATOM     19  H   LIG d   1       0.971  77.084 113.577  0.00  0.00    -0.090 HD
ATOM     20  H   LIG d   1       0.806  76.553 115.104  0.00  0.00    -0.090 HD
ATOM     21  H   LIG d   1       1.375  78.063 114.821  0.00  0.00    -0.090 HD
ENDBRANCH   5  18
BRANCH   3  22
ATOM     22  C   LIG d   1      -2.307  80.594 112.722  0.00  0.00     0.382 C 
ATOM     23  O   LIG d   1      -1.320  81.269 112.343  0.00  0.00    -0.241 OA
ATOM     24  O   LIG d   1      -3.448  81.091 112.668  0.00  0.00    -0.241 OA
ENDBRANCH   3  22
TORSDOF 7
ENDMDL
MODEL 2
REMARK VINA RESULT:      -5.0     12.301     14.410
REMARK  7 active torsions:
REMARK  status: ('A' for Active; 'I' for Inactive)
REMARK    1  A    between atoms: C_2  and  C_3 
REMARK    2  A    between atoms: C_3  and  O_6 
REMARK    3  A    between atoms: C_3  and  C_4 
REMARK    4  A    between atoms: C_7  and  O_6 
REMARK    5  A    between atoms: C_9  and  C_10 
REMARK    6  A    between atoms: N_15  and  C_14 
REMARK    7  A    between atoms: N_20  and  C_19 
REMARK       I    between atoms: C_22  and  N_20 
ROOT
ATOM      1  C   LIG d   1      11.063  77.532 114.963  0.00  0.00     0.161 C 
ATOM      2  C   LIG d   1      11.276  78.765 114.324  0.00  0.00     0.016 C 
ATOM      3  C   LIG d   1      12.487  79.110 113.681  0.00  0.00     0.038 C 
ATOM      4  C   LIG d   1      13.522  78.180 113.502  0.00  0.00     0.028 C 
ATOM      5  C   LIG d   1      13.549  77.090 114.568  0.00  0.00    -0.047 C 
ATOM      6  C   LIG d   1      12.141  76.464 114.682  0.00  0.00     0.091 C 
ENDROOT
BRANCH   1   7
ATOM      7  O   LIG d   1       9.756  77.026 114.627  0.00  0.00    -0.368 OA
BRANCH   7   8
ATOM      8  C   LIG d   1       8.727  77.202 115.632  0.00  0.00     0.119 C 
BRANCH   8   9
ATOM      9  C   LIG d   1       7.861  78.402 115.202  0.00  0.00     0.028 C 
ATOM     10  C   LIG d   1       7.845  79.522 116.257  0.00  0.00     0.006 C 
ENDBRANCH   8   9
BRANCH   8  11
ATOM     11  C   LIG d   1       9.329  77.600 116.983  0.00  0.00     0.028 C 
ATOM     12  C   LIG d   1       9.226  76.483 118.033  0.00  0.00     0.006 C 
ENDBRANCH   8  11
ENDBRANCH   7   8
ENDBRANCH   1   7
BRANCH   6  13
ATOM     13  N   LIG d   1      12.058  75.446 115.762  0.00  0.00    -0.311 N 
ATOM     14  C   LIG d   1      12.323  74.154 115.574  0.00  0.00     0.210 C 
ATOM     15  C   LIG d   1      12.158  73.273 116.816  0.00  0.00     0.109 C 
ATOM     16  O   LIG d   1      12.710  73.660 114.504  0.00  0.00    -0.276 OA
ATOM     17  H   LIG d   1      11.781  75.766 116.669  0.00  0.00     0.149 HD
ENDBRANCH   6  13
BRANCH   5  18
ATOM     18  N   LIG d   1      14.586  76.115 114.183  0.00  0.00     0.381 N 
ATOM     19  H   LIG d   1      14.156  75.280 113.840  0.00  0.00    -0.090 HD
ATOM     20  H   LIG d   1      15.129  75.880 114.995  0.00  0.00    -0.090 HD
ATOM     21  H   LIG d   1      15.177  76.505 113.481  0.00  0.00    -0.090 HD
ENDBRANCH   5  18
BRANCH   3  22
ATOM     22  C   LIG d   1      12.687  80.410 113.245  0.00  0.00     0.382 C 
ATOM     23  O   LIG d   1      12.191  80.790 112.156  0.00  0.00    -0.241 OA
ATOM     24  O   LIG d   1      13.394  81.196 113.903  0.00  0.00    -0.241 OA
ENDBRANCH   3  22
TORSDOF 7
ENDMDL
MODEL 3
REMARK VINA RESULT:      -4.7     12.412     15.159
REMARK  7 active torsions:
REMARK  status: ('A' for Active; 'I' for Inactive)
REMARK    1  A    between atoms: C_2  and  C_3 
REMARK    2  A    between atoms: C_3  and  O_6 
REMARK    3  A    between atoms: C_3  and  C_4 
REMARK    4  A    between atoms: C_7  and  O_6 
REMARK    5  A    between atoms: C_9  and  C_10 
REMARK    6  A    between atoms: N_15  and  C_14 
REMARK    7  A    between atoms: N_20  and  C_19 
REMARK       I    between atoms: C_22  and  N_20 
ROOT
ATOM      1  C   LIG d   1      10.898  78.683 114.569  0.00  0.00     0.161 C 
ATOM      2  C   LIG d   1       9.701  78.500 115.283  0.00  0.00     0.016 C 
ATOM      3  C   LIG d   1       9.263  77.243 115.758  0.00  0.00     0.038 C 
ATOM      4  C   LIG d   1      10.071  76.099 115.682  0.00  0.00     0.028 C 
ATOM      5  C   LIG d   1      11.063  76.133 114.524  0.00  0.00    -0.047 C 
ATOM      6  C   LIG d   1      11.846  77.465 114.574  0.00  0.00     0.091 C 
ENDROOT
BRANCH   1   7
ATOM      7  O   LIG d   1      11.583  79.853 115.057  0.00  0.00    -0.368 OA
BRANCH   7   8
ATOM      8  C   LIG d   1      12.549  79.633 116.114  0.00  0.00     0.119 C 
BRANCH   8   9
ATOM      9  C   LIG d   1      11.984  80.272 117.398  0.00  0.00     0.028 C 
ATOM     10  C   LIG d   1      11.564  79.223 118.441  0.00  0.00     0.006 C 
ENDBRANCH   8   9
BRANCH   8  11
ATOM     11  C   LIG d   1      13.860  80.373 115.836  0.00  0.00     0.028 C 
ATOM     12  C   LIG d   1      13.923  80.959 114.416  0.00  0.00     0.006 C 
ENDBRANCH   8  11
ENDBRANCH   7   8
ENDBRANCH   1   7
BRANCH   6  13
ATOM     13  N   LIG d   1      12.779  77.618 113.427  0.00  0.00    -0.311 N 
ATOM     14  C   LIG d   1      14.071  77.302 113.487  0.00  0.00     0.210 C 
ATOM     15  C   LIG d   1      14.859  77.556 112.197  0.00  0.00     0.109 C 
ATOM     16  O   LIG d   1      14.634  76.807 114.475  0.00  0.00    -0.276 OA
ATOM     17  H   LIG d   1      12.399  77.984 112.576  0.00  0.00     0.149 HD
ENDBRANCH   6  13
BRANCH   5  18
ATOM     18  N   LIG d   1      11.931  74.947 114.646  0.00  0.00     0.381 N 
ATOM     19  H   LIG d   1      12.839  75.153 114.279  0.00  0.00    -0.090 HD
ATOM     20  H   LIG d   1      11.536  74.198 114.105  0.00  0.00    -0.090 HD
ATOM     21  H   LIG d   1      12.005  74.675 115.601  0.00  0.00    -0.090 HD
ENDBRANCH   5  18
BRANCH   3  22
ATOM     22  C   LIG d   1       7.985  77.113 116.281  0.00  0.00     0.382 C 
ATOM     23  O   LIG d   1       6.994  77.509 115.621  0.00  0.00    -0.241 OA
ATOM     24  O   LIG d   1       7.815  76.647 117.423  0.00  0.00    -0.241 OA
ENDBRANCH   3  22
TORSDOF 7
ENDMDL
MODEL 4
REMARK VINA RESULT:      -4.6     21.933     24.469
REMARK  7 active torsions:
REMARK  status: ('A' for Active; 'I' for Inactive)
REMARK    1  A    between atoms: C_2  and  C_3 
REMARK    2  A    between atoms: C_3  and  O_6 
REMARK    3  A    between atoms: C_3  and  C_4 
REMARK    4  A    between atoms: C_7  and  O_6 
REMARK    5  A    between atoms: C_9  and  C_10 
REMARK    6  A    between atoms: N_15  and  C_14 
REMARK    7  A    between atoms: N_20  and  C_19 
REMARK       I    between atoms: C_22  and  N_20 
ROOT
ATOM      1  C   LIG d   1     -25.526  85.729 113.272  0.00  0.00     0.161 C 
ATOM      2  C   LIG d   1     -24.477  86.663 113.326  0.00  0.00     0.016 C 
ATOM      3  C   LIG d   1     -23.157  86.328 113.706  0.00  0.00     0.038 C 
ATOM      4  C   LIG d   1     -22.759  84.999 113.914  0.00  0.00     0.028 C 
ATOM      5  C   LIG d   1     -23.898  84.090 114.363  0.00  0.00    -0.047 C 
ATOM      6  C   LIG d   1     -25.086  84.255 113.389  0.00  0.00     0.091 C 
ENDROOT
BRANCH   1   7
ATOM      7  O   LIG d   1     -26.297  85.929 112.071  0.00  0.00    -0.368 OA
BRANCH   7   8
ATOM      8  C   LIG d   1     -27.586  86.570 112.240  0.00  0.00     0.119 C 
BRANCH   8   9
ATOM      9  C   LIG d   1     -27.430  88.042 111.813  0.00  0.00     0.028 C 
ATOM     10  C   LIG d   1     -27.381  89.000 113.016  0.00  0.00     0.006 C 
ENDBRANCH   8   9
BRANCH   8  11
ATOM     11  C   LIG d   1     -27.996  86.616 113.715  0.00  0.00     0.028 C 
ATOM     12  C   LIG d   1     -29.388  86.015 113.965  0.00  0.00     0.006 C 
ENDBRANCH   8  11
ENDBRANCH   7   8
ENDBRANCH   1   7
BRANCH   6  13
ATOM     13  N   LIG d   1     -26.274  83.463 113.803  0.00  0.00    -0.311 N 
ATOM     14  C   LIG d   1     -26.934  82.648 112.982  0.00  0.00     0.210 C 
ATOM     15  C   LIG d   1     -28.142  81.941 113.606  0.00  0.00     0.109 C 
ATOM     16  O   LIG d   1     -26.615  82.418 111.806  0.00  0.00    -0.276 OA
ATOM     17  H   LIG d   1     -26.582  83.565 114.750  0.00  0.00     0.149 HD
ENDBRANCH   6  13
BRANCH   5  18
ATOM     18  N   LIG d   1     -23.375  82.711 114.409  0.00  0.00     0.381 N 
ATOM     19  H   LIG d   1     -24.051  82.080 114.026  0.00  0.00    -0.090 HD
ATOM     20  H   LIG d   1     -23.214  82.457 115.368  0.00  0.00    -0.090 HD
ATOM     21  H   LIG d   1     -22.525  82.652 113.894  0.00  0.00    -0.090 HD
ENDBRANCH   5  18
BRANCH   3  22
ATOM     22  C   LIG d   1     -22.228  87.335 113.920  0.00  0.00     0.382 C 
ATOM     23  O   LIG d   1     -22.506  88.293 114.681  0.00  0.00    -0.241 OA
ATOM     24  O   LIG d   1     -21.133  87.320 113.328  0.00  0.00    -0.241 OA
ENDBRANCH   3  22
TORSDOF 7
ENDMDL
MODEL 5
REMARK VINA RESULT:      -4.6     12.092     14.860
REMARK  7 active torsions:
REMARK  status: ('A' for Active; 'I' for Inactive)
REMARK    1  A    between atoms: C_2  and  C_3 
REMARK    2  A    between atoms: C_3  and  O_6 
REMARK    3  A    between atoms: C_3  and  C_4 
REMARK    4  A    between atoms: C_7  and  O_6 
REMARK    5  A    between atoms: C_9  and  C_10 
REMARK    6  A    between atoms: N_15  and  C_14 
REMARK    7  A    between atoms: N_20  and  C_19 
REMARK       I    between atoms: C_22  and  N_20 
ROOT
ATOM      1  C   LIG d   1      11.048  76.207 114.639  0.00  0.00     0.161 C 
ATOM      2  C   LIG d   1      11.084  75.097 115.498  0.00  0.00     0.016 C 
ATOM      3  C   LIG d   1      12.104  74.885 116.454  0.00  0.00     0.038 C 
ATOM      4  C   LIG d   1      13.084  75.853 116.720  0.00  0.00     0.028 C 
ATOM      5  C   LIG d   1      13.379  76.760 115.529  0.00  0.00    -0.047 C 
ATOM      6  C   LIG d   1      12.047  77.330 114.991  0.00  0.00     0.091 C 
ENDROOT
BRANCH   1   7
ATOM      7  O   LIG d   1       9.707  76.732 114.574  0.00  0.00    -0.368 OA
BRANCH   7   8
ATOM      8  C   LIG d   1       9.313  77.609 115.657  0.00  0.00     0.119 C 
BRANCH   8   9
ATOM      9  C   LIG d   1       8.144  76.933 116.399  0.00  0.00     0.028 C 
ATOM     10  C   LIG d   1       8.476  76.634 117.871  0.00  0.00     0.006 C 
ENDBRANCH   8   9
BRANCH   8  11
ATOM     11  C   LIG d   1       8.747  78.930 115.127  0.00  0.00     0.028 C 
ATOM     12  C   LIG d   1       7.218  79.018 115.257  0.00  0.00     0.006 C 
ENDBRANCH   8  11
ENDBRANCH   7   8
ENDBRANCH   1   7
BRANCH   6  13
ATOM     13  N   LIG d   1      12.237  78.160 113.773  0.00  0.00    -0.311 N 
ATOM     14  C   LIG d   1      12.306  79.490 113.796  0.00  0.00     0.210 C 
ATOM     15  C   LIG d   1      12.485  80.153 112.427  0.00  0.00     0.109 C 
ATOM     16  O   LIG d   1      12.267  80.183 114.824  0.00  0.00    -0.276 OA
ATOM     17  H   LIG d   1      12.309  77.678 112.899  0.00  0.00     0.149 HD
ENDBRANCH   6  13
BRANCH   5  18
ATOM     18  N   LIG d   1      14.313  77.806 115.986  0.00  0.00     0.381 N 
ATOM     19  H   LIG d   1      13.887  78.706 115.890  0.00  0.00    -0.090 HD
ATOM     20  H   LIG d   1      15.135  77.783 115.409  0.00  0.00    -0.090 HD
ATOM     21  H   LIG d   1      14.562  77.648 116.938  0.00  0.00    -0.090 HD
ENDBRANCH   5  18
BRANCH   3  22
ATOM     22  C   LIG d   1      12.175  73.675 117.127  0.00  0.00     0.382 C 
ATOM     23  O   LIG d   1      12.154  72.597 116.484  0.00  0.00    -0.241 OA
ATOM     24  O   LIG d   1      12.214  73.646 118.372  0.00  0.00    -0.241 OA
ENDBRANCH   3  22
TORSDOF 7
ENDMDL
MODEL 6
REMARK VINA RESULT:      -4.5     13.373     15.985
REMARK  7 active torsions:
REMARK  status: ('A' for Active; 'I' for Inactive)
REMARK    1  A    between atoms: C_2  and  C_3 
REMARK    2  A    between atoms: C_3  and  O_6 
REMARK    3  A    between atoms: C_3  and  C_4 
REMARK    4  A    between atoms: C_7  and  O_6 
REMARK    5  A    between atoms: C_9  and  C_10 
REMARK    6  A    between atoms: N_15  and  C_14 
REMARK    7  A    between atoms: N_20  and  C_19 
REMARK       I    between atoms: C_22  and  N_20 
ROOT
ATOM      1  C   LIG d   1      12.270  78.044 114.225  0.00  0.00     0.161 C 
ATOM      2  C   LIG d   1      11.029  78.636 114.513  0.00  0.00     0.016 C 
ATOM      3  C   LIG d   1       9.934  77.924 115.054  0.00  0.00     0.038 C 
ATOM      4  C   LIG d   1      10.055  76.596 115.488  0.00  0.00     0.028 C 
ATOM      5  C   LIG d   1      11.138  75.815 114.752  0.00  0.00    -0.047 C 
ATOM      6  C   LIG d   1      12.455  76.622 114.795  0.00  0.00     0.091 C 
ENDROOT
BRANCH   1   7
ATOM      7  O   LIG d   1      13.337  78.905 114.669  0.00  0.00    -0.368 OA
BRANCH   7   8
ATOM      8  C   LIG d   1      13.873  79.818 113.679  0.00  0.00     0.119 C 
BRANCH   8   9
ATOM      9  C   LIG d   1      14.013  79.037 112.358  0.00  0.00     0.028 C 
ATOM     10  C   LIG d   1      15.424  78.456 112.166  0.00  0.00     0.006 C 
ENDBRANCH   8   9
BRANCH   8  11
ATOM     11  C   LIG d   1      15.294  80.260 114.041  0.00  0.00     0.028 C 
ATOM     12  C   LIG d   1      15.330  81.614 114.768  0.00  0.00     0.006 C 
ENDBRANCH   8  11
ENDBRANCH   7   8
ENDBRANCH   1   7
BRANCH   6  13
ATOM     13  N   LIG d   1      13.546  75.968 114.026  0.00  0.00    -0.311 N 
ATOM     14  C   LIG d   1      14.492  75.219 114.588  0.00  0.00     0.210 C 
ATOM     15  C   LIG d   1      15.534  74.655 113.616  0.00  0.00     0.109 C 
ATOM     16  O   LIG d   1      14.550  74.940 115.795  0.00  0.00    -0.276 OA
ATOM     17  H   LIG d   1      13.558  76.116 113.035  0.00  0.00     0.149 HD
ENDBRANCH   6  13
BRANCH   5  18
ATOM     18  N   LIG d   1      11.249  74.492 115.397  0.00  0.00     0.381 N 
ATOM     19  H   LIG d   1      12.187  74.153 115.314  0.00  0.00    -0.090 HD
ATOM     20  H   LIG d   1      10.639  73.849 114.925  0.00  0.00    -0.090 HD
ATOM     21  H   LIG d   1      10.996  74.559 116.358  0.00  0.00    -0.090 HD
ENDBRANCH   5  18
BRANCH   3  22
ATOM     22  C   LIG d   1       8.689  78.531 115.129  0.00  0.00     0.382 C 
ATOM     23  O   LIG d   1       8.597  79.733 115.476  0.00  0.00    -0.241 OA
ATOM     24  O   LIG d   1       7.653  77.879 114.897  0.00  0.00    -0.241 OA
ENDBRANCH   3  22
TORSDOF 7
ENDMDL
MODEL 7
REMARK VINA RESULT:      -4.5      8.114     10.009
REMARK  7 active torsions:
REMARK  status: ('A' for Active; 'I' for Inactive)
REMARK    1  A    between atoms: C_2  and  C_3 
REMARK    2  A    between atoms: C_3  and  O_6 
REMARK    3  A    between atoms: C_3  and  C_4 
REMARK    4  A    between atoms: C_7  and  O_6 
REMARK    5  A    between atoms: C_9  and  C_10 
REMARK    6  A    between atoms: N_15  and  C_14 
REMARK    7  A    between atoms: N_20  and  C_19 
REMARK       I    between atoms: C_22  and  N_20 
ROOT
ATOM      1  C   LIG d   1       2.125  84.323 113.964  0.00  0.00     0.161 C 
ATOM      2  C   LIG d   1       2.515  85.367 113.110  0.00  0.00     0.016 C 
ATOM      3  C   LIG d   1       2.968  86.624 113.574  0.00  0.00     0.038 C 
ATOM      4  C   LIG d   1       3.206  86.870 114.934  0.00  0.00     0.028 C 
ATOM      5  C   LIG d   1       2.349  86.018 115.863  0.00  0.00    -0.047 C 
ATOM      6  C   LIG d   1       2.483  84.534 115.450  0.00  0.00     0.091 C 
ENDROOT
BRANCH   1   7
ATOM      7  O   LIG d   1       2.668  83.075 113.490  0.00  0.00    -0.368 OA
BRANCH   7   8
ATOM      8  C   LIG d   1       3.963  82.700 114.023  0.00  0.00     0.119 C 
BRANCH   8   9
ATOM      9  C   LIG d   1       4.934  82.574 112.833  0.00  0.00     0.028 C 
ATOM     10  C   LIG d   1       4.472  81.526 111.807  0.00  0.00     0.006 C 
ENDBRANCH   8   9
BRANCH   8  11
ATOM     11  C   LIG d   1       3.921  81.309 114.662  0.00  0.00     0.028 C 
ATOM     12  C   LIG d   1       5.176  80.997 115.493  0.00  0.00     0.006 C 
ENDBRANCH   8  11
ENDBRANCH   7   8
ENDBRANCH   1   7
BRANCH   6  13
ATOM     13  N   LIG d   1       1.610  83.640 116.255  0.00  0.00    -0.311 N 
ATOM     14  C   LIG d   1       2.036  82.966 117.321  0.00  0.00     0.210 C 
ATOM     15  C   LIG d   1       0.979  82.086 117.995  0.00  0.00     0.109 C 
ATOM     16  O   LIG d   1       3.181  83.038 117.793  0.00  0.00    -0.276 OA
ATOM     17  H   LIG d   1       0.658  83.548 115.962  0.00  0.00     0.149 HD
ENDBRANCH   6  13
BRANCH   5  18
ATOM     18  N   LIG d   1       2.796  86.276 117.245  0.00  0.00     0.381 N 
ATOM     19  H   LIG d   1       2.343  85.642 117.872  0.00  0.00    -0.090 HD
ATOM     20  H   LIG d   1       2.537  87.212 117.501  0.00  0.00    -0.090 HD
ATOM     21  H   LIG d   1       3.785  86.168 117.309  0.00  0.00    -0.090 HD
ENDBRANCH   5  18
BRANCH   3  22
ATOM     22  C   LIG d   1       3.150  87.663 112.674  0.00  0.00     0.382 C 
ATOM     23  O   LIG d   1       4.163  88.397 112.761  0.00  0.00    -0.241 OA
ATOM     24  O   LIG d   1       2.290  87.904 111.805  0.00  0.00    -0.241 OA
ENDBRANCH   3  22
TORSDOF 7
ENDMDL
MODEL 8
REMARK VINA RESULT:      -4.4      8.607     11.182
REMARK  7 active torsions:
REMARK  status: ('A' for Active; 'I' for Inactive)
REMARK    1  A    between atoms: C_2  and  C_3 
REMARK    2  A    between atoms: C_3  and  O_6 
REMARK    3  A    between atoms: C_3  and  C_4 
REMARK    4  A    between atoms: C_7  and  O_6 
REMARK    5  A    between atoms: C_9  and  C_10 
REMARK    6  A    between atoms: N_15  and  C_14 
REMARK    7  A    between atoms: N_20  and  C_19 
REMARK       I    between atoms: C_22  and  N_20 
ROOT
ATOM      1  C   LIG d   1       2.098  86.908 115.642  0.00  0.00     0.161 C 
ATOM      2  C   LIG d   1       2.913  87.922 115.113  0.00  0.00     0.016 C 
ATOM      3  C   LIG d   1       4.284  88.063 115.427  0.00  0.00     0.038 C 
ATOM      4  C   LIG d   1       4.974  87.101 116.181  0.00  0.00     0.028 C 
ATOM      5  C   LIG d   1       4.080  86.335 117.150  0.00  0.00    -0.047 C 
ATOM      6  C   LIG d   1       2.859  85.785 116.378  0.00  0.00     0.091 C 
ENDROOT
BRANCH   1   7
ATOM      7  O   LIG d   1       1.270  86.353 114.601  0.00  0.00    -0.368 OA
BRANCH   7   8
ATOM      8  C   LIG d   1       1.903  85.382 113.732  0.00  0.00     0.119 C 
BRANCH   8   9
ATOM      9  C   LIG d   1       1.894  85.964 112.305  0.00  0.00     0.028 C 
ATOM     10  C   LIG d   1       3.305  86.317 111.805  0.00  0.00     0.006 C 
ENDBRANCH   8   9
BRANCH   8  11
ATOM     11  C   LIG d   1       1.085  84.090 113.649  0.00  0.00     0.028 C 
ATOM     12  C   LIG d   1      -0.064  84.177 112.632  0.00  0.00     0.006 C 
ENDBRANCH   8  11
ENDBRANCH   7   8
ENDBRANCH   1   7
BRANCH   6  13
ATOM     13  N   LIG d   1       1.890  85.094 117.268  0.00  0.00    -0.311 N 
ATOM     14  C   LIG d   1       1.867  83.773 117.442  0.00  0.00     0.210 C 
ATOM     15  C   LIG d   1       0.774  83.264 118.387  0.00  0.00     0.109 C 
ATOM     16  O   LIG d   1       2.669  82.978 116.928  0.00  0.00    -0.276 OA
ATOM     17  H   LIG d   1       1.223  85.666 117.748  0.00  0.00     0.149 HD
ENDBRANCH   6  13
BRANCH   5  18
ATOM     18  N   LIG d   1       4.898  85.275 117.768  0.00  0.00     0.381 N 
ATOM     19  H   LIG d   1       4.371  84.814 118.483  0.00  0.00    -0.090 HD
ATOM     20  H   LIG d   1       5.706  85.695 118.193  0.00  0.00    -0.090 HD
ATOM     21  H   LIG d   1       5.181  84.616 117.077  0.00  0.00    -0.090 HD
ENDBRANCH   5  18
BRANCH   3  22
ATOM     22  C   LIG d   1       4.970  89.196 115.019  0.00  0.00     0.382 C 
ATOM     23  O   LIG d   1       5.727  89.794 115.822  0.00  0.00    -0.241 OA
ATOM     24  O   LIG d   1       4.808  89.655 113.873  0.00  0.00    -0.241 OA
ENDBRANCH   3  22
TORSDOF 7
ENDMDL
MODEL 9
REMARK VINA RESULT:      -4.4     15.567     19.372
REMARK  7 active torsions:
REMARK  status: ('A' for Active; 'I' for Inactive)
REMARK    1  A    between atoms: C_2  and  C_3 
REMARK    2  A    between atoms: C_3  and  O_6 
REMARK    3  A    between atoms: C_3  and  C_4 
REMARK    4  A    between atoms: C_7  and  O_6 
REMARK    5  A    between atoms: C_9  and  C_10 
REMARK    6  A    between atoms: N_15  and  C_14 
REMARK    7  A    between atoms: N_20  and  C_19 
REMARK       I    between atoms: C_22  and  N_20 
ROOT
ATOM      1  C   LIG d   1     -16.492  64.383 115.106  0.00  0.00     0.161 C 
ATOM      2  C   LIG d   1     -16.823  63.267 115.892  0.00  0.00     0.016 C 
ATOM      3  C   LIG d   1     -16.440  63.129 117.246  0.00  0.00     0.038 C 
ATOM      4  C   LIG d   1     -15.825  64.173 117.954  0.00  0.00     0.028 C 
ATOM      5  C   LIG d   1     -15.024  65.117 117.064  0.00  0.00    -0.047 C 
ATOM      6  C   LIG d   1     -15.918  65.581 115.891  0.00  0.00     0.091 C 
ENDROOT
BRANCH   1   7
ATOM      7  O   LIG d   1     -17.637  64.794 114.333  0.00  0.00    -0.368 OA
BRANCH   7   8
ATOM      8  C   LIG d   1     -18.930  64.389 114.846  0.00  0.00     0.119 C 
BRANCH   8   9
ATOM      9  C   LIG d   1     -19.837  64.093 113.636  0.00  0.00     0.028 C 
ATOM     10  C   LIG d   1     -20.631  65.330 113.181  0.00  0.00     0.006 C 
ENDBRANCH   8   9
BRANCH   8  11
ATOM     11  C   LIG d   1     -19.616  65.535 115.596  0.00  0.00     0.028 C 
ATOM     12  C   LIG d   1     -19.650  65.316 117.117  0.00  0.00     0.006 C 
ENDBRANCH   8  11
ENDBRANCH   7   8
ENDBRANCH   1   7
BRANCH   6  13
ATOM     13  N   LIG d   1     -15.185  66.442 114.926  0.00  0.00    -0.311 N 
ATOM     14  C   LIG d   1     -15.113  67.768 115.035  0.00  0.00     0.210 C 
ATOM     15  C   LIG d   1     -14.325  68.466 113.922  0.00  0.00     0.109 C 
ATOM     16  O   LIG d   1     -15.600  68.429 115.964  0.00  0.00    -0.276 OA
ATOM     17  H   LIG d   1     -14.734  65.985 114.158  0.00  0.00     0.149 HD
ENDBRANCH   6  13
BRANCH   5  18
ATOM     18  N   LIG d   1     -14.553  66.232 117.908  0.00  0.00     0.381 N 
ATOM     19  H   LIG d   1     -13.653  66.014 118.287  0.00  0.00    -0.090 HD
ATOM     20  H   LIG d   1     -15.195  66.356 118.671  0.00  0.00    -0.090 HD
ATOM     21  H   LIG d   1     -14.501  67.069 117.370  0.00  0.00    -0.090 HD
ENDBRANCH   5  18
BRANCH   3  22
ATOM     22  C   LIG d   1     -16.636  61.919 117.895  0.00  0.00     0.382 C 
ATOM     23  O   LIG d   1     -15.701  61.401 118.551  0.00  0.00    -0.241 OA
ATOM     24  O   LIG d   1     -17.723  61.319 117.797  0.00  0.00    -0.241 OA
ENDBRANCH   3  22
TORSDOF 7
ENDMDL
