MODEL 1
REMARK VINA RESULT:      -5.8      0.000      0.000
REMARK  7 active torsions:
REMARK  status: ('A' for Active; 'I' for Inactive)
REMARK    1  A    between atoms: C_2  and  C_3 
REMARK    2  A    between atoms: C_3  and  O_6 
REMARK    3  A    between atoms: C_3  and  C_4 
REMARK    4  A    between atoms: C_7  and  O_6 
REMARK    5  A    between atoms: C_9  and  C_10 
REMARK    6  A    between atoms: N_15  and  C_14 
REMARK    7  A    between atoms: N_20  and  C_19 
REMARK       I    between atoms: C_22  and  N_20 
ROOT
ATOM      1  C   LIG d   1       1.587  88.383 115.403  0.00  0.00     0.161 C 
ATOM      2  C   LIG d   1       0.306  88.587 115.941  0.00  0.00     0.016 C 
ATOM      3  C   LIG d   1      -0.022  89.678 116.778  0.00  0.00     0.038 C 
ATOM      4  C   LIG d   1       0.877  90.729 117.012  0.00  0.00     0.028 C 
ATOM      5  C   LIG d   1       2.340  90.312 116.901  0.00  0.00    -0.047 C 
ATOM      6  C   LIG d   1       2.551  89.578 115.557  0.00  0.00     0.091 C 
ENDROOT
BRANCH   1   7
ATOM      7  O   LIG d   1       1.480  88.001 114.017  0.00  0.00    -0.368 OA
BRANCH   7   8
ATOM      8  C   LIG d   1       2.083  86.733 113.657  0.00  0.00     0.119 C 
BRANCH   8   9
ATOM      9  C   LIG d   1       2.529  86.834 112.186  0.00  0.00     0.028 C 
ATOM     10  C   LIG d   1       3.951  86.290 111.965  0.00  0.00     0.006 C 
ENDBRANCH   8   9
BRANCH   8  11
ATOM     11  C   LIG d   1       1.055  85.598 113.692  0.00  0.00     0.028 C 
ATOM     12  C   LIG d   1      -0.337  86.039 113.212  0.00  0.00     0.006 C 
ENDBRANCH   8  11
ENDBRANCH   7   8
ENDBRANCH   1   7
BRANCH   6  13
ATOM     13  N   LIG d   1       3.936  89.061 115.405  0.00  0.00    -0.311 N 
ATOM     14  C   LIG d   1       4.670  89.242 114.308  0.00  0.00     0.210 C 
ATOM     15  C   LIG d   1       6.065  88.610 114.352  0.00  0.00     0.109 C 
ATOM     16  O   LIG d   1       4.310  89.893 113.316  0.00  0.00    -0.276 OA
ATOM     17  H   LIG d   1       4.319  88.548 116.175  0.00  0.00     0.149 HD
ENDBRANCH   6  13
BRANCH   5  18
ATOM     18  N   LIG d   1       3.162  91.529 117.031  0.00  0.00     0.381 N 
ATOM     19  H   LIG d   1       4.043  91.300 117.447  0.00  0.00    -0.090 HD
ATOM     20  H   LIG d   1       2.688  92.179 117.633  0.00  0.00    -0.090 HD
ATOM     21  H   LIG d   1       3.307  91.940 116.135  0.00  0.00    -0.090 HD
ENDBRANCH   5  18
BRANCH   3  22
ATOM     22  C   LIG d   1      -1.249  89.705 117.423  0.00  0.00     0.382 C 
ATOM     23  O   LIG d   1      -1.351  90.237 118.555  0.00  0.00    -0.241 OA
ATOM     24  O   LIG d   1      -2.246  89.166 116.907  0.00  0.00    -0.241 OA
ENDBRANCH   3  22
TORSDOF 7
ENDMDL
MODEL 2
REMARK VINA RESULT:      -5.3     12.043     14.065
REMARK  7 active torsions:
REMARK  status: ('A' for Active; 'I' for Inactive)
REMARK    1  A    between atoms: C_2  and  C_3 
REMARK    2  A    between atoms: C_3  and  O_6 
REMARK    3  A    between atoms: C_3  and  C_4 
REMARK    4  A    between atoms: C_7  and  O_6 
REMARK    5  A    between atoms: C_9  and  C_10 
REMARK    6  A    between atoms: N_15  and  C_14 
REMARK    7  A    between atoms: N_20  and  C_19 
REMARK       I    between atoms: C_22  and  N_20 
ROOT
ATOM      1  C   LIG d   1      -6.457  77.209 116.451  0.00  0.00     0.161 C 
ATOM      2  C   LIG d   1      -7.760  76.691 116.365  0.00  0.00     0.016 C 
ATOM      3  C   LIG d   1      -8.886  77.313 116.952  0.00  0.00     0.038 C 
ATOM      4  C   LIG d   1      -8.807  78.584 117.541  0.00  0.00     0.028 C 
ATOM      5  C   LIG d   1      -7.424  78.911 118.094  0.00  0.00    -0.047 C 
ATOM      6  C   LIG d   1      -6.369  78.651 116.994  0.00  0.00     0.091 C 
ENDROOT
BRANCH   1   7
ATOM      7  O   LIG d   1      -5.809  77.116 115.167  0.00  0.00    -0.368 OA
BRANCH   7   8
ATOM      8  C   LIG d   1      -4.825  76.062 115.025  0.00  0.00     0.119 C 
BRANCH   8   9
ATOM      9  C   LIG d   1      -3.502  76.720 114.587  0.00  0.00     0.028 C 
ATOM     10  C   LIG d   1      -3.601  77.366 113.195  0.00  0.00     0.006 C 
ENDBRANCH   8   9
BRANCH   8  11
ATOM     11  C   LIG d   1      -5.196  75.103 113.890  0.00  0.00     0.028 C 
ATOM     12  C   LIG d   1      -5.556  73.696 114.393  0.00  0.00     0.006 C 
ENDBRANCH   8  11
ENDBRANCH   7   8
ENDBRANCH   1   7
BRANCH   6  13
ATOM     13  N   LIG d   1      -4.981  78.865 117.478  0.00  0.00    -0.311 N 
ATOM     14  C   LIG d   1      -4.101  79.649 116.857  0.00  0.00     0.210 C 
ATOM     15  C   LIG d   1      -2.718  79.715 117.513  0.00  0.00     0.109 C 
ATOM     16  O   LIG d   1      -4.344  80.322 115.844  0.00  0.00    -0.276 OA
ATOM     17  H   LIG d   1      -4.708  78.382 118.311  0.00  0.00     0.149 HD
ENDBRANCH   6  13
BRANCH   5  18
ATOM     18  N   LIG d   1      -7.447  80.313 118.552  0.00  0.00     0.381 N 
ATOM     19  H   LIG d   1      -6.939  80.397 119.410  0.00  0.00    -0.090 HD
ATOM     20  H   LIG d   1      -8.400  80.584 118.722  0.00  0.00    -0.090 HD
ATOM     21  H   LIG d   1      -7.044  80.905 117.859  0.00  0.00    -0.090 HD
ENDBRANCH   5  18
BRANCH   3  22
ATOM     22  C   LIG d   1     -10.100  76.645 116.989  0.00  0.00     0.382 C 
ATOM     23  O   LIG d   1     -11.112  77.209 117.468  0.00  0.00    -0.241 OA
ATOM     24  O   LIG d   1     -10.185  75.468 116.589  0.00  0.00    -0.241 OA
ENDBRANCH   3  22
TORSDOF 7
ENDMDL
MODEL 3
REMARK VINA RESULT:      -5.0     10.503     13.056
REMARK  7 active torsions:
REMARK  status: ('A' for Active; 'I' for Inactive)
REMARK    1  A    between atoms: C_2  and  C_3 
REMARK    2  A    between atoms: C_3  and  O_6 
REMARK    3  A    between atoms: C_3  and  C_4 
REMARK    4  A    between atoms: C_7  and  O_6 
REMARK    5  A    between atoms: C_9  and  C_10 
REMARK    6  A    between atoms: N_15  and  C_14 
REMARK    7  A    between atoms: N_20  and  C_19 
REMARK       I    between atoms: C_22  and  N_20 
ROOT
ATOM      1  C   LIG d   1      -2.724  77.258 114.148  0.00  0.00     0.161 C 
ATOM      2  C   LIG d   1      -2.355  76.047 114.758  0.00  0.00     0.016 C 
ATOM      3  C   LIG d   1      -1.212  75.906 115.579  0.00  0.00     0.038 C 
ATOM      4  C   LIG d   1      -0.440  77.010 115.971  0.00  0.00     0.028 C 
ATOM      5  C   LIG d   1      -0.481  78.163 114.974  0.00  0.00    -0.047 C 
ATOM      6  C   LIG d   1      -1.956  78.497 114.654  0.00  0.00     0.091 C 
ENDROOT
BRANCH   1   7
ATOM      7  O   LIG d   1      -4.145  77.459 114.283  0.00  0.00    -0.368 OA
BRANCH   7   8
ATOM      8  C   LIG d   1      -4.818  76.623 115.255  0.00  0.00     0.119 C 
BRANCH   8   9
ATOM      9  C   LIG d   1      -5.918  75.841 114.511  0.00  0.00     0.028 C 
ATOM     10  C   LIG d   1      -5.676  74.322 114.534  0.00  0.00     0.006 C 
ENDBRANCH   8   9
BRANCH   8  11
ATOM     11  C   LIG d   1      -5.556  77.465 116.300  0.00  0.00     0.028 C 
ATOM     12  C   LIG d   1      -7.074  77.227 116.293  0.00  0.00     0.006 C 
ENDBRANCH   8  11
ENDBRANCH   7   8
ENDBRANCH   1   7
BRANCH   6  13
ATOM     13  N   LIG d   1      -2.086  79.559 113.622  0.00  0.00    -0.311 N 
ATOM     14  C   LIG d   1      -2.833  80.649 113.782  0.00  0.00     0.210 C 
ATOM     15  C   LIG d   1      -2.843  81.607 112.587  0.00  0.00     0.109 C 
ATOM     16  O   LIG d   1      -3.464  80.930 114.813  0.00  0.00    -0.276 OA
ATOM     17  H   LIG d   1      -1.583  79.427 112.767  0.00  0.00     0.149 HD
ENDBRANCH   6  13
BRANCH   5  18
ATOM     18  N   LIG d   1       0.252  79.295 115.571  0.00  0.00     0.381 N 
ATOM     19  H   LIG d   1       1.130  78.978 115.932  0.00  0.00    -0.090 HD
ATOM     20  H   LIG d   1      -0.287  79.665 116.335  0.00  0.00    -0.090 HD
ATOM     21  H   LIG d   1       0.402  80.003 114.887  0.00  0.00    -0.090 HD
ENDBRANCH   5  18
BRANCH   3  22
ATOM     22  C   LIG d   1      -0.809  74.643 115.985  0.00  0.00     0.382 C 
ATOM     23  O   LIG d   1      -0.141  73.919 115.208  0.00  0.00    -0.241 OA
ATOM     24  O   LIG d   1      -1.143  74.201 117.100  0.00  0.00    -0.241 OA
ENDBRANCH   3  22
TORSDOF 7
ENDMDL
MODEL 4
REMARK VINA RESULT:      -4.9      4.012      5.478
REMARK  7 active torsions:
REMARK  status: ('A' for Active; 'I' for Inactive)
REMARK    1  A    between atoms: C_2  and  C_3 
REMARK    2  A    between atoms: C_3  and  O_6 
REMARK    3  A    between atoms: C_3  and  C_4 
REMARK    4  A    between atoms: C_7  and  O_6 
REMARK    5  A    between atoms: C_9  and  C_10 
REMARK    6  A    between atoms: N_15  and  C_14 
REMARK    7  A    between atoms: N_20  and  C_19 
REMARK       I    between atoms: C_22  and  N_20 
ROOT
ATOM      1  C   LIG d   1       3.097  86.005 114.033  0.00  0.00     0.161 C 
ATOM      2  C   LIG d   1       3.657  87.182 113.509  0.00  0.00     0.016 C 
ATOM      3  C   LIG d   1       4.584  87.984 114.215  0.00  0.00     0.038 C 
ATOM      4  C   LIG d   1       5.130  87.579 115.442  0.00  0.00     0.028 C 
ATOM      5  C   LIG d   1       4.216  86.653 116.237  0.00  0.00    -0.047 C 
ATOM      6  C   LIG d   1       3.765  85.489 115.324  0.00  0.00     0.091 C 
ENDROOT
BRANCH   1   7
ATOM      7  O   LIG d   1       3.093  84.975 113.024  0.00  0.00    -0.368 OA
BRANCH   7   8
ATOM      8  C   LIG d   1       1.849  84.794 112.303  0.00  0.00     0.119 C 
BRANCH   8   9
ATOM      9  C   LIG d   1       0.698  85.018 113.302  0.00  0.00     0.028 C 
ATOM     10  C   LIG d   1      -0.498  85.747 112.667  0.00  0.00     0.006 C 
ENDBRANCH   8   9
BRANCH   8  11
ATOM     11  C   LIG d   1       1.691  83.350 111.819  0.00  0.00     0.028 C 
ATOM     12  C   LIG d   1       1.339  82.376 112.954  0.00  0.00     0.006 C 
ENDBRANCH   8  11
ENDBRANCH   7   8
ENDBRANCH   1   7
BRANCH   6  13
ATOM     13  N   LIG d   1       2.801  84.581 115.998  0.00  0.00    -0.311 N 
ATOM     14  C   LIG d   1       2.980  83.265 116.099  0.00  0.00     0.210 C 
ATOM     15  C   LIG d   1       1.855  82.512 116.815  0.00  0.00     0.109 C 
ATOM     16  O   LIG d   1       3.980  82.655 115.691  0.00  0.00    -0.276 OA
ATOM     17  H   LIG d   1       1.976  84.997 116.385  0.00  0.00     0.149 HD
ENDBRANCH   6  13
BRANCH   5  18
ATOM     18  N   LIG d   1       4.964  86.199 117.424  0.00  0.00     0.381 N 
ATOM     19  H   LIG d   1       5.946  86.317 117.271  0.00  0.00    -0.090 HD
ATOM     20  H   LIG d   1       4.783  85.222 117.569  0.00  0.00    -0.090 HD
ATOM     21  H   LIG d   1       4.681  86.720 118.225  0.00  0.00    -0.090 HD
ENDBRANCH   5  18
BRANCH   3  22
ATOM     22  C   LIG d   1       4.942  89.225 113.712  0.00  0.00     0.382 C 
ATOM     23  O   LIG d   1       6.115  89.426 113.315  0.00  0.00    -0.241 OA
ATOM     24  O   LIG d   1       4.118  90.160 113.691  0.00  0.00    -0.241 OA
ENDBRANCH   3  22
TORSDOF 7
ENDMDL
MODEL 5
REMARK VINA RESULT:      -4.9     10.029     12.426
REMARK  7 active torsions:
REMARK  status: ('A' for Active; 'I' for Inactive)
REMARK    1  A    between atoms: C_2  and  C_3 
REMARK    2  A    between atoms: C_3  and  O_6 
REMARK    3  A    between atoms: C_3  and  C_4 
REMARK    4  A    between atoms: C_7  and  O_6 
REMARK    5  A    between atoms: C_9  and  C_10 
REMARK    6  A    between atoms: N_15  and  C_14 
REMARK    7  A    between atoms: N_20  and  C_19 
REMARK       I    between atoms: C_22  and  N_20 
ROOT
ATOM      1  C   LIG d   1      -3.057  78.063 114.802  0.00  0.00     0.161 C 
ATOM      2  C   LIG d   1      -3.349  79.271 114.146  0.00  0.00     0.016 C 
ATOM      3  C   LIG d   1      -2.399  80.299 113.950  0.00  0.00     0.038 C 
ATOM      4  C   LIG d   1      -1.043  80.126 114.266  0.00  0.00     0.028 C 
ATOM      5  C   LIG d   1      -0.806  79.121 115.387  0.00  0.00    -0.047 C 
ATOM      6  C   LIG d   1      -1.556  77.811 115.054  0.00  0.00     0.091 C 
ENDROOT
BRANCH   1   7
ATOM      7  O   LIG d   1      -3.636  76.961 114.075  0.00  0.00    -0.368 OA
BRANCH   7   8
ATOM      8  C   LIG d   1      -4.534  76.105 114.824  0.00  0.00     0.119 C 
BRANCH   8   9
ATOM      9  C   LIG d   1      -4.455  74.696 114.205  0.00  0.00     0.028 C 
ATOM     10  C   LIG d   1      -5.681  73.834 114.550  0.00  0.00     0.006 C 
ENDBRANCH   8   9
BRANCH   8  11
ATOM     11  C   LIG d   1      -5.992  76.543 114.653  0.00  0.00     0.028 C 
ATOM     12  C   LIG d   1      -6.584  77.156 115.931  0.00  0.00     0.006 C 
ENDBRANCH   8  11
ENDBRANCH   7   8
ENDBRANCH   1   7
BRANCH   6  13
ATOM     13  N   LIG d   1      -1.445  76.802 116.140  0.00  0.00    -0.311 N 
ATOM     14  C   LIG d   1      -1.022  75.555 115.941  0.00  0.00     0.210 C 
ATOM     15  C   LIG d   1      -1.003  74.672 117.193  0.00  0.00     0.109 C 
ATOM     16  O   LIG d   1      -0.630  75.105 114.854  0.00  0.00    -0.276 OA
ATOM     17  H   LIG d   1      -1.714  77.092 117.060  0.00  0.00     0.149 HD
ENDBRANCH   6  13
BRANCH   5  18
ATOM     18  N   LIG d   1       0.652  78.935 115.518  0.00  0.00     0.381 N 
ATOM     19  H   LIG d   1       1.024  79.614 116.151  0.00  0.00    -0.090 HD
ATOM     20  H   LIG d   1       1.079  79.074 114.619  0.00  0.00    -0.090 HD
ATOM     21  H   LIG d   1       0.850  78.017 115.850  0.00  0.00    -0.090 HD
ENDBRANCH   5  18
BRANCH   3  22
ATOM     22  C   LIG d   1      -2.811  81.533 113.470  0.00  0.00     0.382 C 
ATOM     23  O   LIG d   1      -2.804  81.759 112.236  0.00  0.00    -0.241 OA
ATOM     24  O   LIG d   1      -3.148  82.438 114.257  0.00  0.00    -0.241 OA
ENDBRANCH   3  22
TORSDOF 7
ENDMDL
MODEL 6
REMARK VINA RESULT:      -4.7      6.110      8.530
REMARK  7 active torsions:
REMARK  status: ('A' for Active; 'I' for Inactive)
REMARK    1  A    between atoms: C_2  and  C_3 
REMARK    2  A    between atoms: C_3  and  O_6 
REMARK    3  A    between atoms: C_3  and  C_4 
REMARK    4  A    between atoms: C_7  and  O_6 
REMARK    5  A    between atoms: C_9  and  C_10 
REMARK    6  A    between atoms: N_15  and  C_14 
REMARK    7  A    between atoms: N_20  and  C_19 
REMARK       I    between atoms: C_22  and  N_20 
ROOT
ATOM      1  C   LIG d   1      -0.487  82.604 114.755  0.00  0.00     0.161 C 
ATOM      2  C   LIG d   1      -1.640  81.982 114.248  0.00  0.00     0.016 C 
ATOM      3  C   LIG d   1      -1.668  81.271 113.027  0.00  0.00     0.038 C 
ATOM      4  C   LIG d   1      -0.499  81.002 112.298  0.00  0.00     0.028 C 
ATOM      5  C   LIG d   1       0.599  82.039 112.512  0.00  0.00    -0.047 C 
ATOM      6  C   LIG d   1       0.822  82.228 114.030  0.00  0.00     0.091 C 
ENDROOT
BRANCH   1   7
ATOM      7  O   LIG d   1      -0.371  82.341 116.167  0.00  0.00    -0.368 OA
BRANCH   7   8
ATOM      8  C   LIG d   1      -1.127  81.212 116.670  0.00  0.00     0.119 C 
BRANCH   8   9
ATOM      9  C   LIG d   1      -1.724  81.623 118.029  0.00  0.00     0.028 C 
ATOM     10  C   LIG d   1      -3.140  82.209 117.895  0.00  0.00     0.006 C 
ENDBRANCH   8   9
BRANCH   8  11
ATOM     11  C   LIG d   1      -0.213  80.020 116.971  0.00  0.00     0.028 C 
ATOM     12  C   LIG d   1      -0.295  78.920 115.901  0.00  0.00     0.006 C 
ENDBRANCH   8  11
ENDBRANCH   7   8
ENDBRANCH   1   7
BRANCH   6  13
ATOM     13  N   LIG d   1       1.821  83.287 114.328  0.00  0.00    -0.311 N 
ATOM     14  C   LIG d   1       2.982  83.049 114.936  0.00  0.00     0.210 C 
ATOM     15  C   LIG d   1       3.857  84.285 115.166  0.00  0.00     0.109 C 
ATOM     16  O   LIG d   1       3.384  81.927 115.279  0.00  0.00    -0.276 OA
ATOM     17  H   LIG d   1       1.590  84.222 114.056  0.00  0.00     0.149 HD
ENDBRANCH   6  13
BRANCH   5  18
ATOM     18  N   LIG d   1       1.804  81.564 111.805  0.00  0.00     0.381 N 
ATOM     19  H   LIG d   1       2.428  82.330 111.648  0.00  0.00    -0.090 HD
ATOM     20  H   LIG d   1       1.531  81.192 110.913  0.00  0.00    -0.090 HD
ATOM     21  H   LIG d   1       2.259  80.860 112.343  0.00  0.00    -0.090 HD
ENDBRANCH   5  18
BRANCH   3  22
ATOM     22  C   LIG d   1      -2.881  80.853 112.502  0.00  0.00     0.382 C 
ATOM     23  O   LIG d   1      -3.749  81.699 112.179  0.00  0.00    -0.241 OA
ATOM     24  O   LIG d   1      -3.136  79.639 112.388  0.00  0.00    -0.241 OA
ENDBRANCH   3  22
TORSDOF 7
ENDMDL
MODEL 7
REMARK VINA RESULT:      -4.7     11.192     13.402
REMARK  7 active torsions:
REMARK  status: ('A' for Active; 'I' for Inactive)
REMARK    1  A    between atoms: C_2  and  C_3 
REMARK    2  A    between atoms: C_3  and  O_6 
REMARK    3  A    between atoms: C_3  and  C_4 
REMARK    4  A    between atoms: C_7  and  O_6 
REMARK    5  A    between atoms: C_9  and  C_10 
REMARK    6  A    between atoms: N_15  and  C_14 
REMARK    7  A    between atoms: N_20  and  C_19 
REMARK       I    between atoms: C_22  and  N_20 
ROOT
ATOM      1  C   LIG d   1       9.980  78.458 116.171  0.00  0.00     0.161 C 
ATOM      2  C   LIG d   1       9.820  79.852 116.238  0.00  0.00     0.016 C 
ATOM      3  C   LIG d   1      10.363  80.743 115.285  0.00  0.00     0.038 C 
ATOM      4  C   LIG d   1      10.980  80.288 114.110  0.00  0.00     0.028 C 
ATOM      5  C   LIG d   1      11.606  78.904 114.252  0.00  0.00    -0.047 C 
ATOM      6  C   LIG d   1      10.554  77.935 114.838  0.00  0.00     0.091 C 
ENDROOT
BRANCH   1   7
ATOM      7  O   LIG d   1       8.727  77.808 116.467  0.00  0.00    -0.368 OA
BRANCH   7   8
ATOM      8  C   LIG d   1       7.537  78.620 116.317  0.00  0.00     0.119 C 
BRANCH   8   9
ATOM      9  C   LIG d   1       6.653  78.379 117.556  0.00  0.00     0.028 C 
ATOM     10  C   LIG d   1       6.696  79.555 118.546  0.00  0.00     0.006 C 
ENDBRANCH   8   9
BRANCH   8  11
ATOM     11  C   LIG d   1       6.695  78.161 115.123  0.00  0.00     0.028 C 
ATOM     12  C   LIG d   1       5.203  78.493 115.283  0.00  0.00     0.006 C 
ENDBRANCH   8  11
ENDBRANCH   7   8
ENDBRANCH   1   7
BRANCH   6  13
ATOM     13  N   LIG d   1      11.109  76.579 115.088  0.00  0.00    -0.311 N 
ATOM     14  C   LIG d   1      10.426  75.456 114.871  0.00  0.00     0.210 C 
ATOM     15  C   LIG d   1      11.178  74.166 115.214  0.00  0.00     0.109 C 
ATOM     16  O   LIG d   1       9.281  75.405 114.398  0.00  0.00    -0.276 OA
ATOM     17  H   LIG d   1      12.043  76.528 115.443  0.00  0.00     0.149 HD
ENDBRANCH   6  13
BRANCH   5  18
ATOM     18  N   LIG d   1      12.089  78.495 112.919  0.00  0.00     0.381 N 
ATOM     19  H   LIG d   1      11.480  78.856 112.212  0.00  0.00    -0.090 HD
ATOM     20  H   LIG d   1      12.079  77.492 112.864  0.00  0.00    -0.090 HD
ATOM     21  H   LIG d   1      13.015  78.834 112.774  0.00  0.00    -0.090 HD
ENDBRANCH   5  18
BRANCH   3  22
ATOM     22  C   LIG d   1      10.328  82.109 115.523  0.00  0.00     0.382 C 
ATOM     23  O   LIG d   1      11.039  82.606 116.429  0.00  0.00    -0.241 OA
ATOM     24  O   LIG d   1       9.561  82.844 114.872  0.00  0.00    -0.241 OA
ENDBRANCH   3  22
TORSDOF 7
ENDMDL
MODEL 8
REMARK VINA RESULT:      -4.7     12.573     14.961
REMARK  7 active torsions:
REMARK  status: ('A' for Active; 'I' for Inactive)
REMARK    1  A    between atoms: C_2  and  C_3 
REMARK    2  A    between atoms: C_3  and  O_6 
REMARK    3  A    between atoms: C_3  and  C_4 
REMARK    4  A    between atoms: C_7  and  O_6 
REMARK    5  A    between atoms: C_9  and  C_10 
REMARK    6  A    between atoms: N_15  and  C_14 
REMARK    7  A    between atoms: N_20  and  C_19 
REMARK       I    between atoms: C_22  and  N_20 
ROOT
ATOM      1  C   LIG d   1       9.896  77.183 114.623  0.00  0.00     0.161 C 
ATOM      2  C   LIG d   1       9.766  75.958 115.297  0.00  0.00     0.016 C 
ATOM      3  C   LIG d   1      10.868  75.152 115.665  0.00  0.00     0.038 C 
ATOM      4  C   LIG d   1      12.192  75.594 115.517  0.00  0.00     0.028 C 
ATOM      5  C   LIG d   1      12.372  76.599 114.385  0.00  0.00    -0.047 C 
ATOM      6  C   LIG d   1      11.335  77.734 114.552  0.00  0.00     0.091 C 
ENDROOT
BRANCH   1   7
ATOM      7  O   LIG d   1       9.014  78.160 115.211  0.00  0.00    -0.368 OA
BRANCH   7   8
ATOM      8  C   LIG d   1       7.739  77.663 115.688  0.00  0.00     0.119 C 
BRANCH   8   9
ATOM      9  C   LIG d   1       6.647  78.224 114.757  0.00  0.00     0.028 C 
ATOM     10  C   LIG d   1       5.322  78.482 115.496  0.00  0.00     0.006 C 
ENDBRANCH   8   9
BRANCH   8  11
ATOM     11  C   LIG d   1       7.410  78.214 117.078  0.00  0.00     0.028 C 
ATOM     12  C   LIG d   1       8.545  77.993 118.091  0.00  0.00     0.006 C 
ENDBRANCH   8  11
ENDBRANCH   7   8
ENDBRANCH   1   7
BRANCH   6  13
ATOM     13  N   LIG d   1      11.387  78.717 113.439  0.00  0.00    -0.311 N 
ATOM     14  C   LIG d   1      11.442  80.035 113.626  0.00  0.00     0.210 C 
ATOM     15  C   LIG d   1      11.468  80.870 112.342  0.00  0.00     0.109 C 
ATOM     16  O   LIG d   1      11.505  80.589 114.734  0.00  0.00    -0.276 OA
ATOM     17  H   LIG d   1      11.372  78.352 112.507  0.00  0.00     0.149 HD
ENDBRANCH   6  13
BRANCH   5  18
ATOM     18  N   LIG d   1      13.766  77.079 114.432  0.00  0.00     0.381 N 
ATOM     19  H   LIG d   1      13.942  77.687 113.658  0.00  0.00    -0.090 HD
ATOM     20  H   LIG d   1      14.384  76.289 114.360  0.00  0.00    -0.090 HD
ATOM     21  H   LIG d   1      13.932  77.562 115.288  0.00  0.00    -0.090 HD
ENDBRANCH   5  18
BRANCH   3  22
ATOM     22  C   LIG d   1      10.652  73.872 116.152  0.00  0.00     0.382 C 
ATOM     23  O   LIG d   1      10.066  73.021 115.440  0.00  0.00    -0.241 OA
ATOM     24  O   LIG d   1      10.995  73.570 117.311  0.00  0.00    -0.241 OA
ENDBRANCH   3  22
TORSDOF 7
ENDMDL
MODEL 9
REMARK VINA RESULT:      -4.6     11.141     13.803
REMARK  7 active torsions:
REMARK  status: ('A' for Active; 'I' for Inactive)
REMARK    1  A    between atoms: C_2  and  C_3 
REMARK    2  A    between atoms: C_3  and  O_6 
REMARK    3  A    between atoms: C_3  and  C_4 
REMARK    4  A    between atoms: C_7  and  O_6 
REMARK    5  A    between atoms: C_9  and  C_10 
REMARK    6  A    between atoms: N_15  and  C_14 
REMARK    7  A    between atoms: N_20  and  C_19 
REMARK       I    between atoms: C_22  and  N_20 
ROOT
ATOM      1  C   LIG d   1      11.351  79.305 115.237  0.00  0.00     0.161 C 
ATOM      2  C   LIG d   1      11.345  77.971 114.797  0.00  0.00     0.016 C 
ATOM      3  C   LIG d   1      10.232  77.111 114.937  0.00  0.00     0.038 C 
ATOM      4  C   LIG d   1       8.989  77.574 115.395  0.00  0.00     0.028 C 
ATOM      5  C   LIG d   1       9.096  78.782 116.320  0.00  0.00    -0.047 C 
ATOM      6  C   LIG d   1       9.968  79.861 115.637  0.00  0.00     0.091 C 
ENDROOT
BRANCH   1   7
ATOM      7  O   LIG d   1      11.959  80.147 114.237  0.00  0.00    -0.368 OA
BRANCH   7   8
ATOM      8  C   LIG d   1      12.715  79.467 113.205  0.00  0.00     0.119 C 
BRANCH   8   9
ATOM      9  C   LIG d   1      14.157  80.006 113.257  0.00  0.00     0.028 C 
ATOM     10  C   LIG d   1      14.257  81.343 114.011  0.00  0.00     0.006 C 
ENDBRANCH   8   9
BRANCH   8  11
ATOM     11  C   LIG d   1      12.198  79.824 111.809  0.00  0.00     0.028 C 
ATOM     12  C   LIG d   1      11.307  81.077 111.805  0.00  0.00     0.006 C 
ENDBRANCH   8  11
ENDBRANCH   7   8
ENDBRANCH   1   7
BRANCH   6  13
ATOM     13  N   LIG d   1      10.193  81.043 116.510  0.00  0.00    -0.311 N 
ATOM     14  C   LIG d   1      10.059  82.300 116.091  0.00  0.00     0.210 C 
ATOM     15  C   LIG d   1      10.358  83.369 117.146  0.00  0.00     0.109 C 
ATOM     16  O   LIG d   1       9.690  82.630 114.954  0.00  0.00    -0.276 OA
ATOM     17  H   LIG d   1      10.466  80.865 117.457  0.00  0.00     0.149 HD
ENDBRANCH   6  13
BRANCH   5  18
ATOM     18  N   LIG d   1       7.726  79.244 116.610  0.00  0.00     0.381 N 
ATOM     19  H   LIG d   1       7.757  80.029 117.229  0.00  0.00    -0.090 HD
ATOM     20  H   LIG d   1       7.222  78.503 117.065  0.00  0.00    -0.090 HD
ATOM     21  H   LIG d   1       7.265  79.498 115.763  0.00  0.00    -0.090 HD
ENDBRANCH   5  18
BRANCH   3  22
ATOM     22  C   LIG d   1      10.367  75.760 114.656  0.00  0.00     0.382 C 
ATOM     23  O   LIG d   1       9.348  75.041 114.523  0.00  0.00    -0.241 OA
ATOM     24  O   LIG d   1      11.497  75.242 114.576  0.00  0.00    -0.241 OA
ENDBRANCH   3  22
TORSDOF 7
ENDMDL
