MODEL 1
REMARK VINA RESULT:      -5.2      0.000      0.000
REMARK  7 active torsions:
REMARK  status: ('A' for Active; 'I' for Inactive)
REMARK    1  A    between atoms: C_2  and  C_3 
REMARK    2  A    between atoms: C_3  and  O_6 
REMARK    3  A    between atoms: C_3  and  C_4 
REMARK    4  A    between atoms: C_7  and  O_6 
REMARK    5  A    between atoms: C_9  and  C_10 
REMARK    6  A    between atoms: N_15  and  C_14 
REMARK    7  A    between atoms: N_20  and  C_19 
REMARK       I    between atoms: C_22  and  N_20 
ROOT
ATOM      1  C   LIG d   1      -7.206  75.795 116.519  0.00  0.00     0.161 C 
ATOM      2  C   LIG d   1      -8.568  75.788 116.863  0.00  0.00     0.016 C 
ATOM      3  C   LIG d   1      -9.360  74.617 116.884  0.00  0.00     0.038 C 
ATOM      4  C   LIG d   1      -8.803  73.342 116.706  0.00  0.00     0.028 C 
ATOM      5  C   LIG d   1      -7.534  73.348 115.860  0.00  0.00    -0.047 C 
ATOM      6  C   LIG d   1      -6.555  74.398 116.431  0.00  0.00     0.091 C 
ENDROOT
BRANCH   1   7
ATOM      7  O   LIG d   1      -6.474  76.631 117.436  0.00  0.00    -0.368 OA
BRANCH   7   8
ATOM      8  C   LIG d   1      -6.047  77.918 116.924  0.00  0.00     0.119 C 
BRANCH   8   9
ATOM      9  C   LIG d   1      -4.507  77.919 116.900  0.00  0.00     0.028 C 
ATOM     10  C   LIG d   1      -3.900  77.255 118.148  0.00  0.00     0.006 C 
ENDBRANCH   8   9
BRANCH   8  11
ATOM     11  C   LIG d   1      -6.440  79.054 117.874  0.00  0.00     0.028 C 
ATOM     12  C   LIG d   1      -7.956  79.298 117.917  0.00  0.00     0.006 C 
ENDBRANCH   8  11
ENDBRANCH   7   8
ENDBRANCH   1   7
BRANCH   6  13
ATOM     13  N   LIG d   1      -5.322  74.528 115.611  0.00  0.00    -0.311 N 
ATOM     14  C   LIG d   1      -4.107  74.217 116.060  0.00  0.00     0.210 C 
ATOM     15  C   LIG d   1      -2.970  74.444 115.059  0.00  0.00     0.109 C 
ATOM     16  O   LIG d   1      -3.867  73.744 117.181  0.00  0.00    -0.276 OA
ATOM     17  H   LIG d   1      -5.429  74.875 114.678  0.00  0.00     0.149 HD
ENDBRANCH   6  13
BRANCH   5  18
ATOM     18  N   LIG d   1      -6.985  71.979 115.871  0.00  0.00     0.381 N 
ATOM     19  H   LIG d   1      -6.582  71.783 116.765  0.00  0.00    -0.090 HD
ATOM     20  H   LIG d   1      -6.261  71.914 115.177  0.00  0.00    -0.090 HD
ATOM     21  H   LIG d   1      -7.706  71.321 115.671  0.00  0.00    -0.090 HD
ENDBRANCH   5  18
BRANCH   3  22
ATOM     22  C   LIG d   1     -10.733  74.720 117.044  0.00  0.00     0.382 C 
ATOM     23  O   LIG d   1     -11.227  75.740 117.581  0.00  0.00    -0.241 OA
ATOM     24  O   LIG d   1     -11.481  73.785 116.699  0.00  0.00    -0.241 OA
ENDBRANCH   3  22
TORSDOF 7
ENDMDL
MODEL 2
REMARK VINA RESULT:      -5.0      2.145      4.046
REMARK  7 active torsions:
REMARK  status: ('A' for Active; 'I' for Inactive)
REMARK    1  A    between atoms: C_2  and  C_3 
REMARK    2  A    between atoms: C_3  and  O_6 
REMARK    3  A    between atoms: C_3  and  C_4 
REMARK    4  A    between atoms: C_7  and  O_6 
REMARK    5  A    between atoms: C_9  and  C_10 
REMARK    6  A    between atoms: N_15  and  C_14 
REMARK    7  A    between atoms: N_20  and  C_19 
REMARK       I    between atoms: C_22  and  N_20 
ROOT
ATOM      1  C   LIG d   1      -5.841  74.539 116.325  0.00  0.00     0.161 C 
ATOM      2  C   LIG d   1      -6.686  73.460 116.017  0.00  0.00     0.016 C 
ATOM      3  C   LIG d   1      -8.066  73.440 116.325  0.00  0.00     0.038 C 
ATOM      4  C   LIG d   1      -8.729  74.568 116.831  0.00  0.00     0.028 C 
ATOM      5  C   LIG d   1      -7.820  75.500 117.624  0.00  0.00    -0.047 C 
ATOM      6  C   LIG d   1      -6.568  75.822 116.776  0.00  0.00     0.091 C 
ENDROOT
BRANCH   1   7
ATOM      7  O   LIG d   1      -4.978  74.819 115.205  0.00  0.00    -0.368 OA
BRANCH   7   8
ATOM      8  C   LIG d   1      -3.591  74.427 115.355  0.00  0.00     0.119 C 
BRANCH   8   9
ATOM      9  C   LIG d   1      -3.384  74.011 116.824  0.00  0.00     0.028 C 
ATOM     10  C   LIG d   1      -2.045  73.287 117.046  0.00  0.00     0.006 C 
ENDBRANCH   8   9
BRANCH   8  11
ATOM     11  C   LIG d   1      -2.650  75.615 115.133  0.00  0.00     0.028 C 
ATOM     12  C   LIG d   1      -3.294  76.740 114.308  0.00  0.00     0.006 C 
ENDBRANCH   8  11
ENDBRANCH   7   8
ENDBRANCH   1   7
BRANCH   6  13
ATOM     13  N   LIG d   1      -5.586  76.662 117.510  0.00  0.00    -0.311 N 
ATOM     14  C   LIG d   1      -5.264  77.902 117.146  0.00  0.00     0.210 C 
ATOM     15  C   LIG d   1      -4.215  78.583 118.030  0.00  0.00     0.109 C 
ATOM     16  O   LIG d   1      -5.771  78.513 116.194  0.00  0.00    -0.276 OA
ATOM     17  H   LIG d   1      -5.150  76.255 118.314  0.00  0.00     0.149 HD
ENDBRANCH   6  13
BRANCH   5  18
ATOM     18  N   LIG d   1      -8.606  76.698 117.973  0.00  0.00     0.381 N 
ATOM     19  H   LIG d   1      -9.096  76.544 118.831  0.00  0.00    -0.090 HD
ATOM     20  H   LIG d   1      -9.282  76.866 117.249  0.00  0.00    -0.090 HD
ATOM     21  H   LIG d   1      -8.004  77.487 118.064  0.00  0.00    -0.090 HD
ENDBRANCH   5  18
BRANCH   3  22
ATOM     22  C   LIG d   1      -8.789  72.267 116.165  0.00  0.00     0.382 C 
ATOM     23  O   LIG d   1      -8.189  71.183 115.967  0.00  0.00    -0.241 OA
ATOM     24  O   LIG d   1     -10.034  72.287 116.171  0.00  0.00    -0.241 OA
ENDBRANCH   3  22
TORSDOF 7
ENDMDL
MODEL 3
REMARK VINA RESULT:      -4.7      2.820      5.665
REMARK  7 active torsions:
REMARK  status: ('A' for Active; 'I' for Inactive)
REMARK    1  A    between atoms: C_2  and  C_3 
REMARK    2  A    between atoms: C_3  and  O_6 
REMARK    3  A    between atoms: C_3  and  C_4 
REMARK    4  A    between atoms: C_7  and  O_6 
REMARK    5  A    between atoms: C_9  and  C_10 
REMARK    6  A    between atoms: N_15  and  C_14 
REMARK    7  A    between atoms: N_20  and  C_19 
REMARK       I    between atoms: C_22  and  N_20 
ROOT
ATOM      1  C   LIG d   1      -4.907  77.160 116.534  0.00  0.00     0.161 C 
ATOM      2  C   LIG d   1      -5.485  78.401 116.851  0.00  0.00     0.016 C 
ATOM      3  C   LIG d   1      -4.813  79.635 116.695  0.00  0.00     0.038 C 
ATOM      4  C   LIG d   1      -3.563  79.724 116.065  0.00  0.00     0.028 C 
ATOM      5  C   LIG d   1      -2.730  78.453 116.189  0.00  0.00    -0.047 C 
ATOM      6  C   LIG d   1      -3.586  77.247 115.741  0.00  0.00     0.091 C 
ENDROOT
BRANCH   1   7
ATOM      7  O   LIG d   1      -5.862  76.343 115.829  0.00  0.00    -0.368 OA
BRANCH   7   8
ATOM      8  C   LIG d   1      -6.458  75.262 116.587  0.00  0.00     0.119 C 
BRANCH   8   9
ATOM      9  C   LIG d   1      -6.255  73.964 115.782  0.00  0.00     0.028 C 
ATOM     10  C   LIG d   1      -5.679  74.227 114.380  0.00  0.00     0.006 C 
ENDBRANCH   8   9
BRANCH   8  11
ATOM     11  C   LIG d   1      -7.975  75.433 116.704  0.00  0.00     0.028 C 
ATOM     12  C   LIG d   1      -8.710  74.103 116.934  0.00  0.00     0.006 C 
ENDBRANCH   8  11
ENDBRANCH   7   8
ENDBRANCH   1   7
BRANCH   6  13
ATOM     13  N   LIG d   1      -2.875  75.953 115.910  0.00  0.00    -0.311 N 
ATOM     14  C   LIG d   1      -2.165  75.374 114.943  0.00  0.00     0.210 C 
ATOM     15  C   LIG d   1      -1.529  74.033 115.322  0.00  0.00     0.109 C 
ATOM     16  O   LIG d   1      -1.975  75.860 113.818  0.00  0.00    -0.276 OA
ATOM     17  H   LIG d   1      -2.950  75.504 116.802  0.00  0.00     0.149 HD
ENDBRANCH   6  13
BRANCH   5  18
ATOM     18  N   LIG d   1      -1.515  78.635 115.372  0.00  0.00     0.381 N 
ATOM     19  H   LIG d   1      -1.712  78.410 114.418  0.00  0.00    -0.090 HD
ATOM     20  H   LIG d   1      -0.803  78.008 115.704  0.00  0.00    -0.090 HD
ATOM     21  H   LIG d   1      -1.197  79.577 115.440  0.00  0.00    -0.090 HD
ENDBRANCH   5  18
BRANCH   3  22
ATOM     22  C   LIG d   1      -5.376  80.793 117.209  0.00  0.00     0.382 C 
ATOM     23  O   LIG d   1      -6.543  81.120 116.887  0.00  0.00    -0.241 OA
ATOM     24  O   LIG d   1      -4.715  81.539 117.957  0.00  0.00    -0.241 OA
ENDBRANCH   3  22
TORSDOF 7
ENDMDL
MODEL 4
REMARK VINA RESULT:      -4.7     18.834     21.215
REMARK  7 active torsions:
REMARK  status: ('A' for Active; 'I' for Inactive)
REMARK    1  A    between atoms: C_2  and  C_3 
REMARK    2  A    between atoms: C_3  and  O_6 
REMARK    3  A    between atoms: C_3  and  C_4 
REMARK    4  A    between atoms: C_7  and  O_6 
REMARK    5  A    between atoms: C_9  and  C_10 
REMARK    6  A    between atoms: N_15  and  C_14 
REMARK    7  A    between atoms: N_20  and  C_19 
REMARK       I    between atoms: C_22  and  N_20 
ROOT
ATOM      1  C   LIG d   1     -24.863  85.464 115.062  0.00  0.00     0.161 C 
ATOM      2  C   LIG d   1     -23.885  86.459 114.895  0.00  0.00     0.016 C 
ATOM      3  C   LIG d   1     -22.760  86.310 114.052  0.00  0.00     0.038 C 
ATOM      4  C   LIG d   1     -22.615  85.208 113.196  0.00  0.00     0.028 C 
ATOM      5  C   LIG d   1     -23.316  83.952 113.703  0.00  0.00    -0.047 C 
ATOM      6  C   LIG d   1     -24.781  84.300 114.052  0.00  0.00     0.091 C 
ENDROOT
BRANCH   1   7
ATOM      7  O   LIG d   1     -26.176  86.060 115.033  0.00  0.00    -0.368 OA
BRANCH   7   8
ATOM      8  C   LIG d   1     -26.277  87.347 114.377  0.00  0.00     0.119 C 
BRANCH   8   9
ATOM      9  C   LIG d   1     -27.184  88.240 115.247  0.00  0.00     0.028 C 
ATOM     10  C   LIG d   1     -27.548  89.562 114.551  0.00  0.00     0.006 C 
ENDBRANCH   8   9
BRANCH   8  11
ATOM     11  C   LIG d   1     -26.995  87.231 113.030  0.00  0.00     0.028 C 
ATOM     12  C   LIG d   1     -26.028  87.252 111.835  0.00  0.00     0.006 C 
ENDBRANCH   8  11
ENDBRANCH   7   8
ENDBRANCH   1   7
BRANCH   6  13
ATOM     13  N   LIG d   1     -25.515  83.147 114.634  0.00  0.00    -0.311 N 
ATOM     14  C   LIG d   1     -26.250  82.305 113.910  0.00  0.00     0.210 C 
ATOM     15  C   LIG d   1     -26.940  81.195 114.711  0.00  0.00     0.109 C 
ATOM     16  O   LIG d   1     -26.372  82.352 112.677  0.00  0.00    -0.276 OA
ATOM     17  H   LIG d   1     -25.446  83.015 115.624  0.00  0.00     0.149 HD
ENDBRANCH   6  13
BRANCH   5  18
ATOM     18  N   LIG d   1     -23.201  82.923 112.651  0.00  0.00     0.381 N 
ATOM     19  H   LIG d   1     -22.854  83.336 111.809  0.00  0.00    -0.090 HD
ATOM     20  H   LIG d   1     -24.114  82.546 112.465  0.00  0.00    -0.090 HD
ATOM     21  H   LIG d   1     -22.588  82.197 112.951  0.00  0.00    -0.090 HD
ENDBRANCH   5  18
BRANCH   3  22
ATOM     22  C   LIG d   1     -21.744  87.253 114.089  0.00  0.00     0.382 C 
ATOM     23  O   LIG d   1     -21.851  88.261 114.829  0.00  0.00    -0.241 OA
ATOM     24  O   LIG d   1     -20.742  87.131 113.359  0.00  0.00    -0.241 OA
ENDBRANCH   3  22
TORSDOF 7
ENDMDL
MODEL 5
REMARK VINA RESULT:      -4.5     12.754     15.775
REMARK  7 active torsions:
REMARK  status: ('A' for Active; 'I' for Inactive)
REMARK    1  A    between atoms: C_2  and  C_3 
REMARK    2  A    between atoms: C_3  and  O_6 
REMARK    3  A    between atoms: C_3  and  C_4 
REMARK    4  A    between atoms: C_7  and  O_6 
REMARK    5  A    between atoms: C_9  and  C_10 
REMARK    6  A    between atoms: N_15  and  C_14 
REMARK    7  A    between atoms: N_20  and  C_19 
REMARK       I    between atoms: C_22  and  N_20 
ROOT
ATOM      1  C   LIG d   1       1.710  87.665 114.748  0.00  0.00     0.161 C 
ATOM      2  C   LIG d   1       2.773  88.453 114.276  0.00  0.00     0.016 C 
ATOM      3  C   LIG d   1       3.590  88.084 113.183  0.00  0.00     0.038 C 
ATOM      4  C   LIG d   1       3.303  86.965 112.388  0.00  0.00     0.028 C 
ATOM      5  C   LIG d   1       2.545  85.870 113.132  0.00  0.00    -0.047 C 
ATOM      6  C   LIG d   1       1.312  86.495 113.824  0.00  0.00     0.091 C 
ENDROOT
BRANCH   1   7
ATOM      7  O   LIG d   1       0.567  88.499 115.022  0.00  0.00    -0.368 OA
BRANCH   7   8
ATOM      8  C   LIG d   1       0.045  88.443 116.372  0.00  0.00     0.119 C 
BRANCH   8   9
ATOM      9  C   LIG d   1      -0.564  89.822 116.691  0.00  0.00     0.028 C 
ATOM     10  C   LIG d   1      -1.892  89.714 117.458  0.00  0.00     0.006 C 
ENDBRANCH   8   9
BRANCH   8  11
ATOM     11  C   LIG d   1       1.168  88.249 117.396  0.00  0.00     0.028 C 
ATOM     12  C   LIG d   1       1.768  89.579 117.880  0.00  0.00     0.006 C 
ENDBRANCH   8  11
ENDBRANCH   7   8
ENDBRANCH   1   7
BRANCH   6  13
ATOM     13  N   LIG d   1       0.562  85.509 114.644  0.00  0.00    -0.311 N 
ATOM     14  C   LIG d   1      -0.511  84.854 114.203  0.00  0.00     0.210 C 
ATOM     15  C   LIG d   1      -1.146  83.897 115.217  0.00  0.00     0.109 C 
ATOM     16  O   LIG d   1      -0.977  84.950 113.058  0.00  0.00    -0.276 OA
ATOM     17  H   LIG d   1       0.891  85.346 115.576  0.00  0.00     0.149 HD
ENDBRANCH   6  13
BRANCH   5  18
ATOM     18  N   LIG d   1       2.191  84.827 112.152  0.00  0.00     0.381 N 
ATOM     19  H   LIG d   1       2.641  85.016 111.278  0.00  0.00    -0.090 HD
ATOM     20  H   LIG d   1       1.198  84.843 112.004  0.00  0.00    -0.090 HD
ATOM     21  H   LIG d   1       2.470  83.932 112.490  0.00  0.00    -0.090 HD
ENDBRANCH   5  18
BRANCH   3  22
ATOM     22  C   LIG d   1       4.733  88.817 112.901  0.00  0.00     0.382 C 
ATOM     23  O   LIG d   1       5.781  88.229 112.539  0.00  0.00    -0.241 OA
ATOM     24  O   LIG d   1       4.742  90.054 113.047  0.00  0.00    -0.241 OA
ENDBRANCH   3  22
TORSDOF 7
ENDMDL
MODEL 6
REMARK VINA RESULT:      -4.4      2.907      6.712
REMARK  7 active torsions:
REMARK  status: ('A' for Active; 'I' for Inactive)
REMARK    1  A    between atoms: C_2  and  C_3 
REMARK    2  A    between atoms: C_3  and  O_6 
REMARK    3  A    between atoms: C_3  and  C_4 
REMARK    4  A    between atoms: C_7  and  O_6 
REMARK    5  A    between atoms: C_9  and  C_10 
REMARK    6  A    between atoms: N_15  and  C_14 
REMARK    7  A    between atoms: N_20  and  C_19 
REMARK       I    between atoms: C_22  and  N_20 
ROOT
ATOM      1  C   LIG d   1      -4.053  75.020 115.832  0.00  0.00     0.161 C 
ATOM      2  C   LIG d   1      -3.142  74.281 115.059  0.00  0.00     0.016 C 
ATOM      3  C   LIG d   1      -1.744  74.486 115.097  0.00  0.00     0.038 C 
ATOM      4  C   LIG d   1      -1.145  75.346 116.030  0.00  0.00     0.028 C 
ATOM      5  C   LIG d   1      -2.059  76.481 116.480  0.00  0.00    -0.047 C 
ATOM      6  C   LIG d   1      -3.411  75.885 116.937  0.00  0.00     0.091 C 
ENDROOT
BRANCH   1   7
ATOM      7  O   LIG d   1      -5.041  74.137 116.399  0.00  0.00    -0.368 OA
BRANCH   7   8
ATOM      8  C   LIG d   1      -6.338  74.133 115.752  0.00  0.00     0.119 C 
BRANCH   8   9
ATOM      9  C   LIG d   1      -7.381  74.561 116.802  0.00  0.00     0.028 C 
ATOM     10  C   LIG d   1      -7.990  75.939 116.497  0.00  0.00     0.006 C 
ENDBRANCH   8   9
BRANCH   8  11
ATOM     11  C   LIG d   1      -6.745  72.718 115.329  0.00  0.00     0.028 C 
ATOM     12  C   LIG d   1      -8.054  72.253 115.987  0.00  0.00     0.006 C 
ENDBRANCH   8  11
ENDBRANCH   7   8
ENDBRANCH   1   7
BRANCH   6  13
ATOM     13  N   LIG d   1      -4.393  76.934 117.315  0.00  0.00    -0.311 N 
ATOM     14  C   LIG d   1      -4.774  77.912 116.494  0.00  0.00     0.210 C 
ATOM     15  C   LIG d   1      -5.782  78.900 117.090  0.00  0.00     0.109 C 
ATOM     16  O   LIG d   1      -4.398  78.036 115.319  0.00  0.00    -0.276 OA
ATOM     17  H   LIG d   1      -4.773  76.892 118.240  0.00  0.00     0.149 HD
ENDBRANCH   6  13
BRANCH   5  18
ATOM     18  N   LIG d   1      -1.360  77.217 117.551  0.00  0.00     0.381 N 
ATOM     19  H   LIG d   1      -1.567  78.193 117.481  0.00  0.00    -0.090 HD
ATOM     20  H   LIG d   1      -0.370  77.095 117.436  0.00  0.00    -0.090 HD
ATOM     21  H   LIG d   1      -1.643  76.873 118.442  0.00  0.00    -0.090 HD
ENDBRANCH   5  18
BRANCH   3  22
ATOM     22  C   LIG d   1      -0.931  73.855 114.167  0.00  0.00     0.382 C 
ATOM     23  O   LIG d   1      -1.277  72.751 113.680  0.00  0.00    -0.241 OA
ATOM     24  O   LIG d   1       0.163  74.353 113.843  0.00  0.00    -0.241 OA
ENDBRANCH   3  22
TORSDOF 7
ENDMDL
MODEL 7
REMARK VINA RESULT:      -4.4     12.222     15.598
REMARK  7 active torsions:
REMARK  status: ('A' for Active; 'I' for Inactive)
REMARK    1  A    between atoms: C_2  and  C_3 
REMARK    2  A    between atoms: C_3  and  O_6 
REMARK    3  A    between atoms: C_3  and  C_4 
REMARK    4  A    between atoms: C_7  and  O_6 
REMARK    5  A    between atoms: C_9  and  C_10 
REMARK    6  A    between atoms: N_15  and  C_14 
REMARK    7  A    between atoms: N_20  and  C_19 
REMARK       I    between atoms: C_22  and  N_20 
ROOT
ATOM      1  C   LIG d   1     -16.896  64.100 114.615  0.00  0.00     0.161 C 
ATOM      2  C   LIG d   1     -17.165  62.931 115.346  0.00  0.00     0.016 C 
ATOM      3  C   LIG d   1     -16.583  62.648 116.603  0.00  0.00     0.038 C 
ATOM      4  C   LIG d   1     -15.803  63.592 117.289  0.00  0.00     0.028 C 
ATOM      5  C   LIG d   1     -15.097  64.579 116.366  0.00  0.00    -0.047 C 
ATOM      6  C   LIG d   1     -16.135  65.191 115.397  0.00  0.00     0.091 C 
ENDROOT
BRANCH   1   7
ATOM      7  O   LIG d   1     -18.123  64.633 114.077  0.00  0.00    -0.368 OA
BRANCH   7   8
ATOM      8  C   LIG d   1     -19.329  64.334 114.823  0.00  0.00     0.119 C 
BRANCH   8   9
ATOM      9  C   LIG d   1     -20.470  64.152 113.804  0.00  0.00     0.028 C 
ATOM     10  C   LIG d   1     -20.714  65.417 112.964  0.00  0.00     0.006 C 
ENDBRANCH   8   9
BRANCH   8  11
ATOM     11  C   LIG d   1     -19.751  65.519 115.697  0.00  0.00     0.028 C 
ATOM     12  C   LIG d   1     -19.470  65.288 117.190  0.00  0.00     0.006 C 
ENDBRANCH   8  11
ENDBRANCH   7   8
ENDBRANCH   1   7
BRANCH   6  13
ATOM     13  N   LIG d   1     -15.514  66.106 114.404  0.00  0.00    -0.311 N 
ATOM     14  C   LIG d   1     -15.534  67.433 114.517  0.00  0.00     0.210 C 
ATOM     15  C   LIG d   1     -14.852  68.189 113.372  0.00  0.00     0.109 C 
ATOM     16  O   LIG d   1     -16.023  68.054 115.472  0.00  0.00    -0.276 OA
ATOM     17  H   LIG d   1     -15.068  65.684 113.613  0.00  0.00     0.149 HD
ENDBRANCH   6  13
BRANCH   5  18
ATOM     18  N   LIG d   1     -14.434  65.587 117.215  0.00  0.00     0.381 N 
ATOM     19  H   LIG d   1     -13.524  65.790 116.851  0.00  0.00    -0.090 HD
ATOM     20  H   LIG d   1     -14.328  65.212 118.141  0.00  0.00    -0.090 HD
ATOM     21  H   LIG d   1     -14.981  66.419 117.246  0.00  0.00    -0.090 HD
ENDBRANCH   5  18
BRANCH   3  22
ATOM     22  C   LIG d   1     -16.746  61.393 117.169  0.00  0.00     0.382 C 
ATOM     23  O   LIG d   1     -17.477  61.251 118.179  0.00  0.00    -0.241 OA
ATOM     24  O   LIG d   1     -16.137  60.408 116.710  0.00  0.00    -0.241 OA
ENDBRANCH   3  22
TORSDOF 7
ENDMDL
MODEL 8
REMARK VINA RESULT:      -4.3     12.950     15.669
REMARK  7 active torsions:
REMARK  status: ('A' for Active; 'I' for Inactive)
REMARK    1  A    between atoms: C_2  and  C_3 
REMARK    2  A    between atoms: C_3  and  O_6 
REMARK    3  A    between atoms: C_3  and  C_4 
REMARK    4  A    between atoms: C_7  and  O_6 
REMARK    5  A    between atoms: C_9  and  C_10 
REMARK    6  A    between atoms: N_15  and  C_14 
REMARK    7  A    between atoms: N_20  and  C_19 
REMARK       I    between atoms: C_22  and  N_20 
ROOT
ATOM      1  C   LIG d   1       2.296  86.794 114.853  0.00  0.00     0.161 C 
ATOM      2  C   LIG d   1       1.138  85.999 114.824  0.00  0.00     0.016 C 
ATOM      3  C   LIG d   1      -0.060  86.343 115.491  0.00  0.00     0.038 C 
ATOM      4  C   LIG d   1      -0.230  87.589 116.112  0.00  0.00     0.028 C 
ATOM      5  C   LIG d   1       1.076  88.209 116.597  0.00  0.00    -0.047 C 
ATOM      6  C   LIG d   1       2.093  88.210 115.432  0.00  0.00     0.091 C 
ENDROOT
BRANCH   1   7
ATOM      7  O   LIG d   1       2.869  86.871 113.533  0.00  0.00    -0.368 OA
BRANCH   7   8
ATOM      8  C   LIG d   1       4.196  86.309 113.380  0.00  0.00     0.119 C 
BRANCH   8   9
ATOM      9  C   LIG d   1       4.856  87.003 112.173  0.00  0.00     0.028 C 
ATOM     10  C   LIG d   1       5.874  88.075 112.596  0.00  0.00     0.006 C 
ENDBRANCH   8   9
BRANCH   8  11
ATOM     11  C   LIG d   1       4.133  84.824 113.011  0.00  0.00     0.028 C 
ATOM     12  C   LIG d   1       4.884  83.930 114.010  0.00  0.00     0.006 C 
ENDBRANCH   8  11
ENDBRANCH   7   8
ENDBRANCH   1   7
BRANCH   6  13
ATOM     13  N   LIG d   1       3.426  88.723 115.844  0.00  0.00    -0.311 N 
ATOM     14  C   LIG d   1       4.086  89.668 115.177  0.00  0.00     0.210 C 
ATOM     15  C   LIG d   1       5.453  90.036 115.762  0.00  0.00     0.109 C 
ATOM     16  O   LIG d   1       3.655  90.259 114.176  0.00  0.00    -0.276 OA
ATOM     17  H   LIG d   1       3.836  88.320 116.664  0.00  0.00     0.149 HD
ENDBRANCH   6  13
BRANCH   5  18
ATOM     18  N   LIG d   1       0.769  89.562 117.097  0.00  0.00     0.381 N 
ATOM     19  H   LIG d   1      -0.079  89.542 117.628  0.00  0.00    -0.090 HD
ATOM     20  H   LIG d   1       0.637  90.176 116.314  0.00  0.00    -0.090 HD
ATOM     21  H   LIG d   1       1.517  89.893 117.666  0.00  0.00    -0.090 HD
ENDBRANCH   5  18
BRANCH   3  22
ATOM     22  C   LIG d   1      -1.089  85.418 115.576  0.00  0.00     0.382 C 
ATOM     23  O   LIG d   1      -2.225  85.702 115.126  0.00  0.00    -0.241 OA
ATOM     24  O   LIG d   1      -0.908  84.321 116.136  0.00  0.00    -0.241 OA
ENDBRANCH   3  22
TORSDOF 7
ENDMDL
MODEL 9
REMARK VINA RESULT:      -4.3      3.030      6.090
REMARK  7 active torsions:
REMARK  status: ('A' for Active; 'I' for Inactive)
REMARK    1  A    between atoms: C_2  and  C_3 
REMARK    2  A    between atoms: C_3  and  O_6 
REMARK    3  A    between atoms: C_3  and  C_4 
REMARK    4  A    between atoms: C_7  and  O_6 
REMARK    5  A    between atoms: C_9  and  C_10 
REMARK    6  A    between atoms: N_15  and  C_14 
REMARK    7  A    between atoms: N_20  and  C_19 
REMARK       I    between atoms: C_22  and  N_20 
ROOT
ATOM      1  C   LIG d   1      -4.226  76.878 116.283  0.00  0.00     0.161 C 
ATOM      2  C   LIG d   1      -4.195  78.171 115.737  0.00  0.00     0.016 C 
ATOM      3  C   LIG d   1      -3.000  78.835 115.375  0.00  0.00     0.038 C 
ATOM      4  C   LIG d   1      -1.757  78.186 115.395  0.00  0.00     0.028 C 
ATOM      5  C   LIG d   1      -1.680  77.054 116.414  0.00  0.00    -0.047 C 
ATOM      6  C   LIG d   1      -2.889  76.112 116.209  0.00  0.00     0.091 C 
ENDROOT
BRANCH   1   7
ATOM      7  O   LIG d   1      -5.278  76.111 115.664  0.00  0.00    -0.368 OA
BRANCH   7   8
ATOM      8  C   LIG d   1      -6.167  75.405 116.564  0.00  0.00     0.119 C 
BRANCH   8   9
ATOM      9  C   LIG d   1      -6.326  73.970 116.026  0.00  0.00     0.028 C 
ATOM     10  C   LIG d   1      -5.604  73.762 114.685  0.00  0.00     0.006 C 
ENDBRANCH   8   9
BRANCH   8  11
ATOM     11  C   LIG d   1      -7.576  76.006 116.540  0.00  0.00     0.028 C 
ATOM     12  C   LIG d   1      -8.639  75.053 117.107  0.00  0.00     0.006 C 
ENDBRANCH   8  11
ENDBRANCH   7   8
ENDBRANCH   1   7
BRANCH   6  13
ATOM     13  N   LIG d   1      -2.937  75.023 117.219  0.00  0.00    -0.311 N 
ATOM     14  C   LIG d   1      -2.412  73.815 117.021  0.00  0.00     0.210 C 
ATOM     15  C   LIG d   1      -2.590  72.835 118.185  0.00  0.00     0.109 C 
ATOM     16  O   LIG d   1      -1.789  73.473 116.005  0.00  0.00    -0.276 OA
ATOM     17  H   LIG d   1      -3.397  75.225 118.085  0.00  0.00     0.149 HD
ENDBRANCH   6  13
BRANCH   5  18
ATOM     18  N   LIG d   1      -0.382  76.377 116.232  0.00  0.00     0.381 N 
ATOM     19  H   LIG d   1       0.102  76.334 117.106  0.00  0.00    -0.090 HD
ATOM     20  H   LIG d   1       0.175  76.911 115.589  0.00  0.00    -0.090 HD
ATOM     21  H   LIG d   1      -0.524  75.458 115.877  0.00  0.00    -0.090 HD
ENDBRANCH   5  18
BRANCH   3  22
ATOM     22  C   LIG d   1      -3.037  80.176 115.025  0.00  0.00     0.382 C 
ATOM     23  O   LIG d   1      -3.369  80.512 113.862  0.00  0.00    -0.241 OA
ATOM     24  O   LIG d   1      -2.701  81.052 115.844  0.00  0.00    -0.241 OA
ENDBRANCH   3  22
TORSDOF 7
ENDMDL
