MODEL 1
REMARK VINA RESULT:      -4.8      0.000      0.000
REMARK  7 active torsions:
REMARK  status: ('A' for Active; 'I' for Inactive)
REMARK    1  A    between atoms: C_2  and  C_3 
REMARK    2  A    between atoms: C_3  and  O_6 
REMARK    3  A    between atoms: C_3  and  C_4 
REMARK    4  A    between atoms: C_7  and  O_6 
REMARK    5  A    between atoms: C_9  and  C_10 
REMARK    6  A    between atoms: N_15  and  C_14 
REMARK    7  A    between atoms: N_20  and  C_19 
REMARK       I    between atoms: C_22  and  N_20 
ROOT
ATOM      1  C   LIG d   1     -25.611  84.924 114.189  0.00  0.00     0.161 C 
ATOM      2  C   LIG d   1     -24.683  85.978 114.163  0.00  0.00     0.016 C 
ATOM      3  C   LIG d   1     -23.386  85.860 113.613  0.00  0.00     0.038 C 
ATOM      4  C   LIG d   1     -22.981  84.715 112.910  0.00  0.00     0.028 C 
ATOM      5  C   LIG d   1     -23.703  83.446 113.351  0.00  0.00    -0.047 C 
ATOM      6  C   LIG d   1     -25.227  83.703 113.328  0.00  0.00     0.091 C 
ENDROOT
BRANCH   1   7
ATOM      7  O   LIG d   1     -26.914  85.412 113.813  0.00  0.00    -0.368 OA
BRANCH   7   8
ATOM      8  C   LIG d   1     -27.055  86.851 113.724  0.00  0.00     0.119 C 
BRANCH   8   9
ATOM      9  C   LIG d   1     -28.192  87.265 114.678  0.00  0.00     0.028 C 
ATOM     10  C   LIG d   1     -27.685  88.097 115.868  0.00  0.00     0.006 C 
ENDBRANCH   8   9
BRANCH   8  11
ATOM     11  C   LIG d   1     -27.520  87.280 112.329  0.00  0.00     0.028 C 
ATOM     12  C   LIG d   1     -26.774  88.518 111.806  0.00  0.00     0.006 C 
ENDBRANCH   8  11
ENDBRANCH   7   8
ENDBRANCH   1   7
BRANCH   6  13
ATOM     13  N   LIG d   1     -26.005  82.539 113.827  0.00  0.00    -0.311 N 
ATOM     14  C   LIG d   1     -26.490  81.587 113.032  0.00  0.00     0.210 C 
ATOM     15  C   LIG d   1     -27.281  80.487 113.748  0.00  0.00     0.109 C 
ATOM     16  O   LIG d   1     -26.314  81.531 111.806  0.00  0.00    -0.276 OA
ATOM     17  H   LIG d   1     -26.168  82.488 114.813  0.00  0.00     0.149 HD
ENDBRANCH   6  13
BRANCH   5  18
ATOM     18  N   LIG d   1     -23.286  82.359 112.446  0.00  0.00     0.381 N 
ATOM     19  H   LIG d   1     -22.729  81.695 112.948  0.00  0.00    -0.090 HD
ATOM     20  H   LIG d   1     -22.725  82.747 111.708  0.00  0.00    -0.090 HD
ATOM     21  H   LIG d   1     -24.087  81.908 112.063  0.00  0.00    -0.090 HD
ENDBRANCH   5  18
BRANCH   3  22
ATOM     22  C   LIG d   1     -22.465  86.879 113.797  0.00  0.00     0.382 C 
ATOM     23  O   LIG d   1     -21.389  86.877 113.152  0.00  0.00    -0.241 OA
ATOM     24  O   LIG d   1     -22.676  87.778 114.634  0.00  0.00    -0.241 OA
ENDBRANCH   3  22
TORSDOF 7
ENDMDL
MODEL 2
REMARK VINA RESULT:      -4.6     25.796     28.512
REMARK  7 active torsions:
REMARK  status: ('A' for Active; 'I' for Inactive)
REMARK    1  A    between atoms: C_2  and  C_3 
REMARK    2  A    between atoms: C_3  and  O_6 
REMARK    3  A    between atoms: C_3  and  C_4 
REMARK    4  A    between atoms: C_7  and  O_6 
REMARK    5  A    between atoms: C_9  and  C_10 
REMARK    6  A    between atoms: N_15  and  C_14 
REMARK    7  A    between atoms: N_20  and  C_19 
REMARK       I    between atoms: C_22  and  N_20 
ROOT
ATOM      1  C   LIG d   1       2.552  85.955 114.262  0.00  0.00     0.161 C 
ATOM      2  C   LIG d   1       2.924  87.263 113.911  0.00  0.00     0.016 C 
ATOM      3  C   LIG d   1       3.983  87.964 114.533  0.00  0.00     0.038 C 
ATOM      4  C   LIG d   1       4.844  87.345 115.451  0.00  0.00     0.028 C 
ATOM      5  C   LIG d   1       4.196  86.188 116.204  0.00  0.00    -0.047 C 
ATOM      6  C   LIG d   1       3.551  85.224 115.184  0.00  0.00     0.091 C 
ENDROOT
BRANCH   1   7
ATOM      7  O   LIG d   1       2.309  85.180 113.072  0.00  0.00    -0.368 OA
BRANCH   7   8
ATOM      8  C   LIG d   1       1.013  84.539 112.982  0.00  0.00     0.119 C 
BRANCH   8   9
ATOM      9  C   LIG d   1       1.250  83.066 112.596  0.00  0.00     0.028 C 
ATOM     10  C   LIG d   1       2.723  82.778 112.258  0.00  0.00     0.006 C 
ENDBRANCH   8   9
BRANCH   8  11
ATOM     11  C   LIG d   1       0.177  85.128 111.842  0.00  0.00     0.028 C 
ATOM     12  C   LIG d   1      -0.694  86.312 112.291  0.00  0.00     0.006 C 
ENDBRANCH   8  11
ENDBRANCH   7   8
ENDBRANCH   1   7
BRANCH   6  13
ATOM     13  N   LIG d   1       2.822  84.108 115.841  0.00  0.00    -0.311 N 
ATOM     14  C   LIG d   1       3.386  82.938 116.138  0.00  0.00     0.210 C 
ATOM     15  C   LIG d   1       2.451  81.918 116.795  0.00  0.00     0.109 C 
ATOM     16  O   LIG d   1       4.579  82.660 115.949  0.00  0.00    -0.276 OA
ATOM     17  H   LIG d   1       1.856  84.259 116.059  0.00  0.00     0.149 HD
ENDBRANCH   6  13
BRANCH   5  18
ATOM     18  N   LIG d   1       5.243  85.548 117.023  0.00  0.00     0.381 N 
ATOM     19  H   LIG d   1       6.043  85.350 116.457  0.00  0.00    -0.090 HD
ATOM     20  H   LIG d   1       4.888  84.679 117.383  0.00  0.00    -0.090 HD
ATOM     21  H   LIG d   1       5.500  86.147 117.777  0.00  0.00    -0.090 HD
ENDBRANCH   5  18
BRANCH   3  22
ATOM     22  C   LIG d   1       4.163  89.313 114.267  0.00  0.00     0.382 C 
ATOM     23  O   LIG d   1       4.072  90.153 115.195  0.00  0.00    -0.241 OA
ATOM     24  O   LIG d   1       4.372  89.705 113.104  0.00  0.00    -0.241 OA
ENDBRANCH   3  22
TORSDOF 7
ENDMDL
MODEL 3
REMARK VINA RESULT:      -4.5      2.402      4.579
REMARK  7 active torsions:
REMARK  status: ('A' for Active; 'I' for Inactive)
REMARK    1  A    between atoms: C_2  and  C_3 
REMARK    2  A    between atoms: C_3  and  O_6 
REMARK    3  A    between atoms: C_3  and  C_4 
REMARK    4  A    between atoms: C_7  and  O_6 
REMARK    5  A    between atoms: C_9  and  C_10 
REMARK    6  A    between atoms: N_15  and  C_14 
REMARK    7  A    between atoms: N_20  and  C_19 
REMARK       I    between atoms: C_22  and  N_20 
ROOT
ATOM      1  C   LIG d   1     -25.097  84.309 113.268  0.00  0.00     0.161 C 
ATOM      2  C   LIG d   1     -23.892  84.969 113.558  0.00  0.00     0.016 C 
ATOM      3  C   LIG d   1     -23.784  86.374 113.680  0.00  0.00     0.038 C 
ATOM      4  C   LIG d   1     -24.912  87.208 113.668  0.00  0.00     0.028 C 
ATOM      5  C   LIG d   1     -26.081  86.634 112.875  0.00  0.00    -0.047 C 
ATOM      6  C   LIG d   1     -26.358  85.193 113.362  0.00  0.00     0.091 C 
ENDROOT
BRANCH   1   7
ATOM      7  O   LIG d   1     -25.234  83.149 114.113  0.00  0.00    -0.368 OA
BRANCH   7   8
ATOM      8  C   LIG d   1     -24.006  82.461 114.455  0.00  0.00     0.119 C 
BRANCH   8   9
ATOM      9  C   LIG d   1     -23.969  81.150 113.646  0.00  0.00     0.028 C 
ATOM     10  C   LIG d   1     -24.657  79.987 114.379  0.00  0.00     0.006 C 
ENDBRANCH   8   9
BRANCH   8  11
ATOM     11  C   LIG d   1     -24.000  82.030 115.925  0.00  0.00     0.028 C 
ATOM     12  C   LIG d   1     -23.615  83.171 116.879  0.00  0.00     0.006 C 
ENDBRANCH   8  11
ENDBRANCH   7   8
ENDBRANCH   1   7
BRANCH   6  13
ATOM     13  N   LIG d   1     -27.433  84.527 112.580  0.00  0.00    -0.311 N 
ATOM     14  C   LIG d   1     -28.569  84.090 113.121  0.00  0.00     0.210 C 
ATOM     15  C   LIG d   1     -29.534  83.416 112.141  0.00  0.00     0.109 C 
ATOM     16  O   LIG d   1     -28.883  84.226 114.313  0.00  0.00    -0.276 OA
ATOM     17  H   LIG d   1     -27.275  84.404 111.600  0.00  0.00     0.149 HD
ENDBRANCH   6  13
BRANCH   5  18
ATOM     18  N   LIG d   1     -27.232  87.538 113.060  0.00  0.00     0.381 N 
ATOM     19  H   LIG d   1     -27.154  88.318 112.439  0.00  0.00    -0.090 HD
ATOM     20  H   LIG d   1     -27.225  87.884 114.004  0.00  0.00    -0.090 HD
ATOM     21  H   LIG d   1     -28.082  87.048 112.886  0.00  0.00    -0.090 HD
ENDBRANCH   5  18
BRANCH   3  22
ATOM     22  C   LIG d   1     -22.532  86.961 113.775  0.00  0.00     0.382 C 
ATOM     23  O   LIG d   1     -21.579  86.521 113.088  0.00  0.00    -0.241 OA
ATOM     24  O   LIG d   1     -22.332  87.897 114.572  0.00  0.00    -0.241 OA
ENDBRANCH   3  22
TORSDOF 7
ENDMDL
MODEL 4
REMARK VINA RESULT:      -4.5     27.244     29.482
REMARK  7 active torsions:
REMARK  status: ('A' for Active; 'I' for Inactive)
REMARK    1  A    between atoms: C_2  and  C_3 
REMARK    2  A    between atoms: C_3  and  O_6 
REMARK    3  A    between atoms: C_3  and  C_4 
REMARK    4  A    between atoms: C_7  and  O_6 
REMARK    5  A    between atoms: C_9  and  C_10 
REMARK    6  A    between atoms: N_15  and  C_14 
REMARK    7  A    between atoms: N_20  and  C_19 
REMARK       I    between atoms: C_22  and  N_20 
ROOT
ATOM      1  C   LIG d   1       3.553  87.305 115.483  0.00  0.00     0.161 C 
ATOM      2  C   LIG d   1       2.595  86.865 114.554  0.00  0.00     0.016 C 
ATOM      3  C   LIG d   1       2.736  87.027 113.156  0.00  0.00     0.038 C 
ATOM      4  C   LIG d   1       3.922  87.508 112.581  0.00  0.00     0.028 C 
ATOM      5  C   LIG d   1       4.711  88.431 113.503  0.00  0.00    -0.047 C 
ATOM      6  C   LIG d   1       4.902  87.732 114.869  0.00  0.00     0.091 C 
ENDROOT
BRANCH   1   7
ATOM      7  O   LIG d   1       3.757  86.294 116.489  0.00  0.00    -0.368 OA
BRANCH   7   8
ATOM      8  C   LIG d   1       2.837  85.175 116.465  0.00  0.00     0.119 C 
BRANCH   8   9
ATOM      9  C   LIG d   1       2.120  85.136 117.829  0.00  0.00     0.028 C 
ATOM     10  C   LIG d   1       0.962  86.144 117.912  0.00  0.00     0.006 C 
ENDBRANCH   8   9
BRANCH   8  11
ATOM     11  C   LIG d   1       3.584  83.842 116.361  0.00  0.00     0.028 C 
ATOM     12  C   LIG d   1       5.111  84.013 116.360  0.00  0.00     0.006 C 
ENDBRANCH   8  11
ENDBRANCH   7   8
ENDBRANCH   1   7
BRANCH   6  13
ATOM     13  N   LIG d   1       5.592  88.600 115.858  0.00  0.00    -0.311 N 
ATOM     14  C   LIG d   1       5.171  89.821 116.183  0.00  0.00     0.210 C 
ATOM     15  C   LIG d   1       6.040  90.554 117.210  0.00  0.00     0.109 C 
ATOM     16  O   LIG d   1       4.142  90.354 115.741  0.00  0.00    -0.276 OA
ATOM     17  H   LIG d   1       6.419  88.233 116.288  0.00  0.00     0.149 HD
ENDBRANCH   6  13
BRANCH   5  18
ATOM     18  N   LIG d   1       5.986  88.747 112.832  0.00  0.00     0.381 N 
ATOM     19  H   LIG d   1       6.700  88.120 113.148  0.00  0.00    -0.090 HD
ATOM     20  H   LIG d   1       6.259  89.683 113.076  0.00  0.00    -0.090 HD
ATOM     21  H   LIG d   1       5.880  88.670 111.845  0.00  0.00    -0.090 HD
ENDBRANCH   5  18
BRANCH   3  22
ATOM     22  C   LIG d   1       1.667  86.743 112.320  0.00  0.00     0.382 C 
ATOM     23  O   LIG d   1       0.830  87.637 112.047  0.00  0.00    -0.241 OA
ATOM     24  O   LIG d   1       1.504  85.593 111.872  0.00  0.00    -0.241 OA
ENDBRANCH   3  22
TORSDOF 7
ENDMDL
MODEL 5
REMARK VINA RESULT:      -4.5      2.611      4.378
REMARK  7 active torsions:
REMARK  status: ('A' for Active; 'I' for Inactive)
REMARK    1  A    between atoms: C_2  and  C_3 
REMARK    2  A    between atoms: C_3  and  O_6 
REMARK    3  A    between atoms: C_3  and  C_4 
REMARK    4  A    between atoms: C_7  and  O_6 
REMARK    5  A    between atoms: C_9  and  C_10 
REMARK    6  A    between atoms: N_15  and  C_14 
REMARK    7  A    between atoms: N_20  and  C_19 
REMARK       I    between atoms: C_22  and  N_20 
ROOT
ATOM      1  C   LIG d   1     -23.837  83.627 114.418  0.00  0.00     0.161 C 
ATOM      2  C   LIG d   1     -22.937  84.706 114.403  0.00  0.00     0.016 C 
ATOM      3  C   LIG d   1     -23.313  86.027 114.070  0.00  0.00     0.038 C 
ATOM      4  C   LIG d   1     -24.654  86.390 113.876  0.00  0.00     0.028 C 
ATOM      5  C   LIG d   1     -25.528  85.241 113.386  0.00  0.00    -0.047 C 
ATOM      6  C   LIG d   1     -25.325  84.024 114.317  0.00  0.00     0.091 C 
ENDROOT
BRANCH   1   7
ATOM      7  O   LIG d   1     -23.612  82.820 115.591  0.00  0.00    -0.368 OA
BRANCH   7   8
ATOM      8  C   LIG d   1     -24.114  83.357 116.840  0.00  0.00     0.119 C 
BRANCH   8   9
ATOM      9  C   LIG d   1     -22.898  83.645 117.742  0.00  0.00     0.028 C 
ATOM     10  C   LIG d   1     -21.712  82.713 117.443  0.00  0.00     0.006 C 
ENDBRANCH   8   9
BRANCH   8  11
ATOM     11  C   LIG d   1     -24.945  82.318 117.599  0.00  0.00     0.028 C 
ATOM     12  C   LIG d   1     -25.061  80.983 116.847  0.00  0.00     0.006 C 
ENDBRANCH   8  11
ENDBRANCH   7   8
ENDBRANCH   1   7
BRANCH   6  13
ATOM     13  N   LIG d   1     -26.079  82.828 113.860  0.00  0.00    -0.311 N 
ATOM     14  C   LIG d   1     -27.273  82.486 114.341  0.00  0.00     0.210 C 
ATOM     15  C   LIG d   1     -27.868  81.206 113.747  0.00  0.00     0.109 C 
ATOM     16  O   LIG d   1     -27.911  83.140 115.180  0.00  0.00    -0.276 OA
ATOM     17  H   LIG d   1     -25.649  82.258 113.158  0.00  0.00     0.149 HD
ENDBRANCH   6  13
BRANCH   5  18
ATOM     18  N   LIG d   1     -26.922  85.721 113.358  0.00  0.00     0.381 N 
ATOM     19  H   LIG d   1     -27.002  86.490 112.723  0.00  0.00    -0.090 HD
ATOM     20  H   LIG d   1     -27.174  86.042 114.276  0.00  0.00    -0.090 HD
ATOM     21  H   LIG d   1     -27.531  84.984 113.077  0.00  0.00    -0.090 HD
ENDBRANCH   5  18
BRANCH   3  22
ATOM     22  C   LIG d   1     -22.336  86.995 113.890  0.00  0.00     0.382 C 
ATOM     23  O   LIG d   1     -21.409  86.804 113.066  0.00  0.00    -0.241 OA
ATOM     24  O   LIG d   1     -22.345  88.037 114.573  0.00  0.00    -0.241 OA
ENDBRANCH   3  22
TORSDOF 7
ENDMDL
MODEL 6
REMARK VINA RESULT:      -4.2     35.480     38.229
REMARK  7 active torsions:
REMARK  status: ('A' for Active; 'I' for Inactive)
REMARK    1  A    between atoms: C_2  and  C_3 
REMARK    2  A    between atoms: C_3  and  O_6 
REMARK    3  A    between atoms: C_3  and  C_4 
REMARK    4  A    between atoms: C_7  and  O_6 
REMARK    5  A    between atoms: C_9  and  C_10 
REMARK    6  A    between atoms: N_15  and  C_14 
REMARK    7  A    between atoms: N_20  and  C_19 
REMARK       I    between atoms: C_22  and  N_20 
ROOT
ATOM      1  C   LIG d   1      11.472  75.915 115.627  0.00  0.00     0.161 C 
ATOM      2  C   LIG d   1      10.111  76.260 115.671  0.00  0.00     0.016 C 
ATOM      3  C   LIG d   1       9.636  77.579 115.487  0.00  0.00     0.038 C 
ATOM      4  C   LIG d   1      10.484  78.624 115.092  0.00  0.00     0.028 C 
ATOM      5  C   LIG d   1      11.932  78.427 115.529  0.00  0.00    -0.047 C 
ATOM      6  C   LIG d   1      12.402  77.022 115.088  0.00  0.00     0.091 C 
ENDROOT
BRANCH   1   7
ATOM      7  O   LIG d   1      11.644  74.702 114.868  0.00  0.00    -0.368 OA
BRANCH   7   8
ATOM      8  C   LIG d   1      10.978  73.525 115.387  0.00  0.00     0.119 C 
BRANCH   8   9
ATOM      9  C   LIG d   1      11.748  73.074 116.644  0.00  0.00     0.028 C 
ATOM     10  C   LIG d   1      10.881  72.228 117.591  0.00  0.00     0.006 C 
ENDBRANCH   8   9
BRANCH   8  11
ATOM     11  C   LIG d   1      11.076  72.351 114.408  0.00  0.00     0.028 C 
ATOM     12  C   LIG d   1       9.701  71.804 113.994  0.00  0.00     0.006 C 
ENDBRANCH   8  11
ENDBRANCH   7   8
ENDBRANCH   1   7
BRANCH   6  13
ATOM     13  N   LIG d   1      13.781  76.715 115.550  0.00  0.00    -0.311 N 
ATOM     14  C   LIG d   1      14.867  76.928 114.809  0.00  0.00     0.210 C 
ATOM     15  C   LIG d   1      16.189  76.523 115.468  0.00  0.00     0.109 C 
ATOM     16  O   LIG d   1      14.864  77.445 113.682  0.00  0.00    -0.276 OA
ATOM     17  H   LIG d   1      13.878  76.321 116.466  0.00  0.00     0.149 HD
ENDBRANCH   6  13
BRANCH   5  18
ATOM     18  N   LIG d   1      12.729  79.516 114.935  0.00  0.00     0.381 N 
ATOM     19  H   LIG d   1      12.121  80.199 114.530  0.00  0.00    -0.090 HD
ATOM     20  H   LIG d   1      13.307  79.136 114.206  0.00  0.00    -0.090 HD
ATOM     21  H   LIG d   1      13.300  79.941 115.633  0.00  0.00    -0.090 HD
ENDBRANCH   5  18
BRANCH   3  22
ATOM     22  C   LIG d   1       8.303  77.871 115.736  0.00  0.00     0.382 C 
ATOM     23  O   LIG d   1       7.449  77.725 114.828  0.00  0.00    -0.241 OA
ATOM     24  O   LIG d   1       7.951  78.319 116.843  0.00  0.00    -0.241 OA
ENDBRANCH   3  22
TORSDOF 7
ENDMDL
MODEL 7
REMARK VINA RESULT:      -4.1     20.052     22.542
REMARK  7 active torsions:
REMARK  status: ('A' for Active; 'I' for Inactive)
REMARK    1  A    between atoms: C_2  and  C_3 
REMARK    2  A    between atoms: C_3  and  O_6 
REMARK    3  A    between atoms: C_3  and  C_4 
REMARK    4  A    between atoms: C_7  and  O_6 
REMARK    5  A    between atoms: C_9  and  C_10 
REMARK    6  A    between atoms: N_15  and  C_14 
REMARK    7  A    between atoms: N_20  and  C_19 
REMARK       I    between atoms: C_22  and  N_20 
ROOT
ATOM      1  C   LIG d   1     -17.464  64.908 114.469  0.00  0.00     0.161 C 
ATOM      2  C   LIG d   1     -16.406  64.786 115.385  0.00  0.00     0.016 C 
ATOM      3  C   LIG d   1     -16.540  65.052 116.768  0.00  0.00     0.038 C 
ATOM      4  C   LIG d   1     -17.786  65.314 117.355  0.00  0.00     0.028 C 
ATOM      5  C   LIG d   1     -18.789  65.942 116.393  0.00  0.00    -0.047 C 
ATOM      6  C   LIG d   1     -18.857  65.085 115.109  0.00  0.00     0.091 C 
ENDROOT
BRANCH   1   7
ATOM      7  O   LIG d   1     -17.464  63.781 113.570  0.00  0.00    -0.368 OA
BRANCH   7   8
ATOM      8  C   LIG d   1     -18.223  62.624 114.000  0.00  0.00     0.119 C 
BRANCH   8   9
ATOM      9  C   LIG d   1     -17.218  61.491 114.283  0.00  0.00     0.028 C 
ATOM     10  C   LIG d   1     -17.091  61.181 115.784  0.00  0.00     0.006 C 
ENDBRANCH   8   9
BRANCH   8  11
ATOM     11  C   LIG d   1     -19.121  62.098 112.876  0.00  0.00     0.028 C 
ATOM     12  C   LIG d   1     -18.746  60.676 112.430  0.00  0.00     0.006 C 
ENDBRANCH   8  11
ENDBRANCH   7   8
ENDBRANCH   1   7
BRANCH   6  13
ATOM     13  N   LIG d   1     -19.753  65.675 114.080  0.00  0.00    -0.311 N 
ATOM     14  C   LIG d   1     -21.022  65.307 113.915  0.00  0.00     0.210 C 
ATOM     15  C   LIG d   1     -21.762  66.028 112.784  0.00  0.00     0.109 C 
ATOM     16  O   LIG d   1     -21.614  64.475 114.618  0.00  0.00    -0.276 OA
ATOM     17  H   LIG d   1     -19.362  66.380 113.486  0.00  0.00     0.149 HD
ENDBRANCH   6  13
BRANCH   5  18
ATOM     18  N   LIG d   1     -20.083  66.033 117.096  0.00  0.00     0.381 N 
ATOM     19  H   LIG d   1     -20.608  65.194 116.951  0.00  0.00    -0.090 HD
ATOM     20  H   LIG d   1     -20.607  66.802 116.715  0.00  0.00    -0.090 HD
ATOM     21  H   LIG d   1     -19.933  66.176 118.070  0.00  0.00    -0.090 HD
ENDBRANCH   5  18
BRANCH   3  22
ATOM     22  C   LIG d   1     -15.411  65.096 117.571  0.00  0.00     0.382 C 
ATOM     23  O   LIG d   1     -14.779  66.172 117.706  0.00  0.00    -0.241 OA
ATOM     24  O   LIG d   1     -14.990  64.064 118.127  0.00  0.00    -0.241 OA
ENDBRANCH   3  22
TORSDOF 7
ENDMDL
MODEL 8
REMARK VINA RESULT:      -3.8     35.871     38.610
REMARK  7 active torsions:
REMARK  status: ('A' for Active; 'I' for Inactive)
REMARK    1  A    between atoms: C_2  and  C_3 
REMARK    2  A    between atoms: C_3  and  O_6 
REMARK    3  A    between atoms: C_3  and  C_4 
REMARK    4  A    between atoms: C_7  and  O_6 
REMARK    5  A    between atoms: C_9  and  C_10 
REMARK    6  A    between atoms: N_15  and  C_14 
REMARK    7  A    between atoms: N_20  and  C_19 
REMARK       I    between atoms: C_22  and  N_20 
ROOT
ATOM      1  C   LIG d   1      12.359  76.327 116.191  0.00  0.00     0.161 C 
ATOM      2  C   LIG d   1      11.186  76.672 116.883  0.00  0.00     0.016 C 
ATOM      3  C   LIG d   1      10.318  77.710 116.473  0.00  0.00     0.038 C 
ATOM      4  C   LIG d   1      10.485  78.377 115.250  0.00  0.00     0.028 C 
ATOM      5  C   LIG d   1      11.932  78.408 114.770  0.00  0.00    -0.047 C 
ATOM      6  C   LIG d   1      12.500  76.970 114.795  0.00  0.00     0.091 C 
ENDROOT
BRANCH   1   7
ATOM      7  O   LIG d   1      12.466  74.893 116.095  0.00  0.00    -0.368 OA
BRANCH   7   8
ATOM      8  C   LIG d   1      11.870  74.287 114.921  0.00  0.00     0.119 C 
BRANCH   8   9
ATOM      9  C   LIG d   1      10.711  73.392 115.401  0.00  0.00     0.028 C 
ATOM     10  C   LIG d   1      10.369  72.283 114.391  0.00  0.00     0.006 C 
ENDBRANCH   8   9
BRANCH   8  11
ATOM     11  C   LIG d   1      12.852  73.340 114.224  0.00  0.00     0.028 C 
ATOM     12  C   LIG d   1      14.240  73.331 114.883  0.00  0.00     0.006 C 
ENDBRANCH   8  11
ENDBRANCH   7   8
ENDBRANCH   1   7
BRANCH   6  13
ATOM     13  N   LIG d   1      13.937  76.921 114.420  0.00  0.00    -0.311 N 
ATOM     14  C   LIG d   1      14.364  76.668 113.184  0.00  0.00     0.210 C 
ATOM     15  C   LIG d   1      15.886  76.644 113.018  0.00  0.00     0.109 C 
ATOM     16  O   LIG d   1      13.626  76.492 112.203  0.00  0.00    -0.276 OA
ATOM     17  H   LIG d   1      14.604  77.083 115.148  0.00  0.00     0.149 HD
ENDBRANCH   6  13
BRANCH   5  18
ATOM     18  N   LIG d   1      11.943  79.010 113.424  0.00  0.00     0.381 N 
ATOM     19  H   LIG d   1      12.194  79.976 113.487  0.00  0.00    -0.090 HD
ATOM     20  H   LIG d   1      11.019  78.949 113.033  0.00  0.00    -0.090 HD
ATOM     21  H   LIG d   1      12.591  78.529 112.840  0.00  0.00    -0.090 HD
ENDBRANCH   5  18
BRANCH   3  22
ATOM     22  C   LIG d   1       9.290  78.116 117.309  0.00  0.00     0.382 C 
ATOM     23  O   LIG d   1       9.436  78.062 118.554  0.00  0.00    -0.241 OA
ATOM     24  O   LIG d   1       8.202  78.494 116.835  0.00  0.00    -0.241 OA
ENDBRANCH   3  22
TORSDOF 7
ENDMDL
MODEL 9
REMARK VINA RESULT:      -3.7     36.246     38.877
REMARK  7 active torsions:
REMARK  status: ('A' for Active; 'I' for Inactive)
REMARK    1  A    between atoms: C_2  and  C_3 
REMARK    2  A    between atoms: C_3  and  O_6 
REMARK    3  A    between atoms: C_3  and  C_4 
REMARK    4  A    between atoms: C_7  and  O_6 
REMARK    5  A    between atoms: C_9  and  C_10 
REMARK    6  A    between atoms: N_15  and  C_14 
REMARK    7  A    between atoms: N_20  and  C_19 
REMARK       I    between atoms: C_22  and  N_20 
ROOT
ATOM      1  C   LIG d   1      11.458  75.048 114.923  0.00  0.00     0.161 C 
ATOM      2  C   LIG d   1      10.520  74.015 114.762  0.00  0.00     0.016 C 
ATOM      3  C   LIG d   1      10.873  72.691 114.416  0.00  0.00     0.038 C 
ATOM      4  C   LIG d   1      12.210  72.271 114.354  0.00  0.00     0.028 C 
ATOM      5  C   LIG d   1      13.182  73.396 114.013  0.00  0.00    -0.047 C 
ATOM      6  C   LIG d   1      12.929  74.585 114.968  0.00  0.00     0.091 C 
ENDROOT
BRANCH   1   7
ATOM      7  O   LIG d   1      11.139  75.820 116.098  0.00  0.00    -0.368 OA
BRANCH   7   8
ATOM      8  C   LIG d   1      10.930  77.239 115.891  0.00  0.00     0.119 C 
BRANCH   8   9
ATOM      9  C   LIG d   1      11.881  77.990 116.843  0.00  0.00     0.028 C 
ATOM     10  C   LIG d   1      12.240  77.162 118.088  0.00  0.00     0.006 C 
ENDBRANCH   8   9
BRANCH   8  11
ATOM     11  C   LIG d   1       9.519  77.660 116.311  0.00  0.00     0.028 C 
ATOM     12  C   LIG d   1       8.477  77.442 115.203  0.00  0.00     0.006 C 
ENDBRANCH   8  11
ENDBRANCH   7   8
ENDBRANCH   1   7
BRANCH   6  13
ATOM     13  N   LIG d   1      13.781  75.760 114.649  0.00  0.00    -0.311 N 
ATOM     14  C   LIG d   1      14.744  76.207 115.452  0.00  0.00     0.210 C 
ATOM     15  C   LIG d   1      15.490  77.444 114.942  0.00  0.00     0.109 C 
ATOM     16  O   LIG d   1      15.073  75.678 116.525  0.00  0.00    -0.276 OA
ATOM     17  H   LIG d   1      13.603  76.230 113.783  0.00  0.00     0.149 HD
ENDBRANCH   6  13
BRANCH   5  18
ATOM     18  N   LIG d   1      14.549  72.851 114.118  0.00  0.00     0.381 N 
ATOM     19  H   LIG d   1      15.192  73.587 114.327  0.00  0.00    -0.090 HD
ATOM     20  H   LIG d   1      14.806  72.448 113.234  0.00  0.00    -0.090 HD
ATOM     21  H   LIG d   1      14.585  72.156 114.830  0.00  0.00    -0.090 HD
ENDBRANCH   5  18
BRANCH   3  22
ATOM     22  C   LIG d   1       9.881  71.779 114.088  0.00  0.00     0.382 C 
ATOM     23  O   LIG d   1       9.898  70.627 114.586  0.00  0.00    -0.241 OA
ATOM     24  O   LIG d   1       8.994  72.078 113.267  0.00  0.00    -0.241 OA
ENDBRANCH   3  22
TORSDOF 7
ENDMDL
