MODEL 1
REMARK VINA RESULT:      -4.5      0.000      0.000
REMARK  7 active torsions:
REMARK  status: ('A' for Active; 'I' for Inactive)
REMARK    1  A    between atoms: C_2  and  C_3 
REMARK    2  A    between atoms: C_3  and  O_6 
REMARK    3  A    between atoms: C_3  and  C_4 
REMARK    4  A    between atoms: C_7  and  O_6 
REMARK    5  A    between atoms: C_9  and  C_10 
REMARK    6  A    between atoms: N_15  and  C_14 
REMARK    7  A    between atoms: N_20  and  C_19 
REMARK       I    between atoms: C_22  and  N_20 
ROOT
ATOM      1  C   LIG d   1     -25.548  85.344 113.225  0.00  0.00     0.161 C 
ATOM      2  C   LIG d   1     -24.489  86.267 113.217  0.00  0.00     0.016 C 
ATOM      3  C   LIG d   1     -23.149  85.917 113.499  0.00  0.00     0.038 C 
ATOM      4  C   LIG d   1     -22.750  84.582 113.661  0.00  0.00     0.028 C 
ATOM      5  C   LIG d   1     -23.862  83.675 114.177  0.00  0.00    -0.047 C 
ATOM      6  C   LIG d   1     -25.115  83.864 113.291  0.00  0.00     0.091 C 
ENDROOT
BRANCH   1   7
ATOM      7  O   LIG d   1     -26.399  85.566 112.084  0.00  0.00    -0.368 OA
BRANCH   7   8
ATOM      8  C   LIG d   1     -27.711  86.113 112.365  0.00  0.00     0.119 C 
BRANCH   8   9
ATOM      9  C   LIG d   1     -27.734  87.559 111.832  0.00  0.00     0.028 C 
ATOM     10  C   LIG d   1     -27.422  88.592 112.928  0.00  0.00     0.006 C 
ENDBRANCH   8   9
BRANCH   8  11
ATOM     11  C   LIG d   1     -27.954  86.232 113.872  0.00  0.00     0.028 C 
ATOM     12  C   LIG d   1     -29.108  85.342 114.362  0.00  0.00     0.006 C 
ENDBRANCH   8  11
ENDBRANCH   7   8
ENDBRANCH   1   7
BRANCH   6  13
ATOM     13  N   LIG d   1     -26.277  83.076 113.777  0.00  0.00    -0.311 N 
ATOM     14  C   LIG d   1     -26.989  82.263 112.999  0.00  0.00     0.210 C 
ATOM     15  C   LIG d   1     -28.159  81.561 113.695  0.00  0.00     0.109 C 
ATOM     16  O   LIG d   1     -26.744  82.033 111.805  0.00  0.00    -0.276 OA
ATOM     17  H   LIG d   1     -26.527  83.179 114.741  0.00  0.00     0.149 HD
ENDBRANCH   6  13
BRANCH   5  18
ATOM     18  N   LIG d   1     -23.350  82.292 114.167  0.00  0.00     0.381 N 
ATOM     19  H   LIG d   1     -23.292  81.959 113.226  0.00  0.00    -0.090 HD
ATOM     20  H   LIG d   1     -23.992  81.705 114.670  0.00  0.00    -0.090 HD
ATOM     21  H   LIG d   1     -22.452  82.258 114.596  0.00  0.00    -0.090 HD
ENDBRANCH   5  18
BRANCH   3  22
ATOM     22  C   LIG d   1     -22.197  86.913 113.660  0.00  0.00     0.382 C 
ATOM     23  O   LIG d   1     -21.090  86.822 113.078  0.00  0.00    -0.241 OA
ATOM     24  O   LIG d   1     -22.416  87.879 114.416  0.00  0.00    -0.241 OA
ENDBRANCH   3  22
TORSDOF 7
ENDMDL
MODEL 2
REMARK VINA RESULT:      -4.5      2.188      4.293
REMARK  7 active torsions:
REMARK  status: ('A' for Active; 'I' for Inactive)
REMARK    1  A    between atoms: C_2  and  C_3 
REMARK    2  A    between atoms: C_3  and  O_6 
REMARK    3  A    between atoms: C_3  and  C_4 
REMARK    4  A    between atoms: C_7  and  O_6 
REMARK    5  A    between atoms: C_9  and  C_10 
REMARK    6  A    between atoms: N_15  and  C_14 
REMARK    7  A    between atoms: N_20  and  C_19 
REMARK       I    between atoms: C_22  and  N_20 
ROOT
ATOM      1  C   LIG d   1     -23.714  83.303 113.818  0.00  0.00     0.161 C 
ATOM      2  C   LIG d   1     -22.822  84.383 113.923  0.00  0.00     0.016 C 
ATOM      3  C   LIG d   1     -23.203  85.729 113.718  0.00  0.00     0.038 C 
ATOM      4  C   LIG d   1     -24.544  86.101 113.541  0.00  0.00     0.028 C 
ATOM      5  C   LIG d   1     -25.402  85.001 112.927  0.00  0.00    -0.047 C 
ATOM      6  C   LIG d   1     -25.203  83.698 113.735  0.00  0.00     0.091 C 
ENDROOT
BRANCH   1   7
ATOM      7  O   LIG d   1     -23.499  82.384 114.908  0.00  0.00    -0.368 OA
BRANCH   7   8
ATOM      8  C   LIG d   1     -24.257  82.640 116.115  0.00  0.00     0.119 C 
BRANCH   8   9
ATOM      9  C   LIG d   1     -23.254  83.028 117.219  0.00  0.00     0.028 C 
ATOM     10  C   LIG d   1     -21.868  82.399 116.999  0.00  0.00     0.006 C 
ENDBRANCH   8   9
BRANCH   8  11
ATOM     11  C   LIG d   1     -24.945  81.369 116.621  0.00  0.00     0.028 C 
ATOM     12  C   LIG d   1     -24.762  80.174 115.672  0.00  0.00     0.006 C 
ENDBRANCH   8  11
ENDBRANCH   7   8
ENDBRANCH   1   7
BRANCH   6  13
ATOM     13  N   LIG d   1     -25.942  82.549 113.150  0.00  0.00    -0.311 N 
ATOM     14  C   LIG d   1     -27.141  82.155 113.577  0.00  0.00     0.210 C 
ATOM     15  C   LIG d   1     -27.717  80.936 112.850  0.00  0.00     0.109 C 
ATOM     16  O   LIG d   1     -27.795  82.719 114.466  0.00  0.00    -0.276 OA
ATOM     17  H   LIG d   1     -25.497  82.054 112.402  0.00  0.00     0.149 HD
ENDBRANCH   6  13
BRANCH   5  18
ATOM     18  N   LIG d   1     -26.800  85.473 112.926  0.00  0.00     0.381 N 
ATOM     19  H   LIG d   1     -26.860  86.352 113.399  0.00  0.00    -0.090 HD
ATOM     20  H   LIG d   1     -27.367  84.808 113.422  0.00  0.00    -0.090 HD
ATOM     21  H   LIG d   1     -27.128  85.568 111.990  0.00  0.00    -0.090 HD
ENDBRANCH   5  18
BRANCH   3  22
ATOM     22  C   LIG d   1     -22.231  86.716 113.649  0.00  0.00     0.382 C 
ATOM     23  O   LIG d   1     -21.209  86.540 112.944  0.00  0.00    -0.241 OA
ATOM     24  O   LIG d   1     -22.343  87.760 114.318  0.00  0.00    -0.241 OA
ENDBRANCH   3  22
TORSDOF 7
ENDMDL
MODEL 3
REMARK VINA RESULT:      -4.4     25.637     28.252
REMARK  7 active torsions:
REMARK  status: ('A' for Active; 'I' for Inactive)
REMARK    1  A    between atoms: C_2  and  C_3 
REMARK    2  A    between atoms: C_3  and  O_6 
REMARK    3  A    between atoms: C_3  and  C_4 
REMARK    4  A    between atoms: C_7  and  O_6 
REMARK    5  A    between atoms: C_9  and  C_10 
REMARK    6  A    between atoms: N_15  and  C_14 
REMARK    7  A    between atoms: N_20  and  C_19 
REMARK       I    between atoms: C_22  and  N_20 
ROOT
ATOM      1  C   LIG d   1       2.126  86.535 114.791  0.00  0.00     0.161 C 
ATOM      2  C   LIG d   1       0.909  86.284 114.135  0.00  0.00     0.016 C 
ATOM      3  C   LIG d   1       0.812  85.547 112.932  0.00  0.00     0.038 C 
ATOM      4  C   LIG d   1       1.915  84.878 112.381  0.00  0.00     0.028 C 
ATOM      5  C   LIG d   1       3.252  85.522 112.733  0.00  0.00    -0.047 C 
ATOM      6  C   LIG d   1       3.325  85.719 114.265  0.00  0.00     0.091 C 
ENDROOT
BRANCH   1   7
ATOM      7  O   LIG d   1       1.966  86.333 116.209  0.00  0.00    -0.368 OA
BRANCH   7   8
ATOM      8  C   LIG d   1       1.655  87.513 116.990  0.00  0.00     0.119 C 
BRANCH   8   9
ATOM      9  C   LIG d   1       2.935  87.918 117.747  0.00  0.00     0.028 C 
ATOM     10  C   LIG d   1       3.610  89.159 117.139  0.00  0.00     0.006 C 
ENDBRANCH   8   9
BRANCH   8  11
ATOM     11  C   LIG d   1       0.621  87.206 118.077  0.00  0.00     0.028 C 
ATOM     12  C   LIG d   1      -0.465  88.288 118.189  0.00  0.00     0.006 C 
ENDBRANCH   8  11
ENDBRANCH   7   8
ENDBRANCH   1   7
BRANCH   6  13
ATOM     13  N   LIG d   1       4.566  86.420 114.687  0.00  0.00    -0.311 N 
ATOM     14  C   LIG d   1       5.404  85.940 115.603  0.00  0.00     0.210 C 
ATOM     15  C   LIG d   1       6.613  86.831 115.905  0.00  0.00     0.109 C 
ATOM     16  O   LIG d   1       5.278  84.844 116.171  0.00  0.00    -0.276 OA
ATOM     17  H   LIG d   1       4.762  87.302 114.253  0.00  0.00     0.149 HD
ENDBRANCH   6  13
BRANCH   5  18
ATOM     18  N   LIG d   1       4.319  84.647 112.211  0.00  0.00     0.381 N 
ATOM     19  H   LIG d   1       4.051  83.688 112.313  0.00  0.00    -0.090 HD
ATOM     20  H   LIG d   1       5.155  84.799 112.748  0.00  0.00    -0.090 HD
ATOM     21  H   LIG d   1       4.489  84.852 111.252  0.00  0.00    -0.090 HD
ENDBRANCH   5  18
BRANCH   3  22
ATOM     22  C   LIG d   1      -0.393  85.507 112.246  0.00  0.00     0.382 C 
ATOM     23  O   LIG d   1      -0.953  84.406 112.027  0.00  0.00    -0.241 OA
ATOM     24  O   LIG d   1      -0.903  86.554 111.805  0.00  0.00    -0.241 OA
ENDBRANCH   3  22
TORSDOF 7
ENDMDL
MODEL 4
REMARK VINA RESULT:      -4.2     25.692     27.853
REMARK  7 active torsions:
REMARK  status: ('A' for Active; 'I' for Inactive)
REMARK    1  A    between atoms: C_2  and  C_3 
REMARK    2  A    between atoms: C_3  and  O_6 
REMARK    3  A    between atoms: C_3  and  C_4 
REMARK    4  A    between atoms: C_7  and  O_6 
REMARK    5  A    between atoms: C_9  and  C_10 
REMARK    6  A    between atoms: N_15  and  C_14 
REMARK    7  A    between atoms: N_20  and  C_19 
REMARK       I    between atoms: C_22  and  N_20 
ROOT
ATOM      1  C   LIG d   1       1.408  87.438 115.611  0.00  0.00     0.161 C 
ATOM      2  C   LIG d   1       0.258  88.057 116.129  0.00  0.00     0.016 C 
ATOM      3  C   LIG d   1       0.295  89.049 117.136  0.00  0.00     0.038 C 
ATOM      4  C   LIG d   1       1.503  89.601 117.589  0.00  0.00     0.028 C 
ATOM      5  C   LIG d   1       2.689  88.652 117.459  0.00  0.00    -0.047 C 
ATOM      6  C   LIG d   1       2.739  88.106 116.013  0.00  0.00     0.091 C 
ENDROOT
BRANCH   1   7
ATOM      7  O   LIG d   1       1.308  87.344 114.176  0.00  0.00    -0.368 OA
BRANCH   7   8
ATOM      8  C   LIG d   1       1.049  86.023 113.640  0.00  0.00     0.119 C 
BRANCH   8   9
ATOM      9  C   LIG d   1       2.176  85.700 112.641  0.00  0.00     0.028 C 
ATOM     10  C   LIG d   1       2.831  86.966 112.065  0.00  0.00     0.006 C 
ENDBRANCH   8   9
BRANCH   8  11
ATOM     11  C   LIG d   1      -0.242  85.999 112.817  0.00  0.00     0.028 C 
ATOM     12  C   LIG d   1      -0.282  84.843 111.805  0.00  0.00     0.006 C 
ENDBRANCH   8  11
ENDBRANCH   7   8
ENDBRANCH   1   7
BRANCH   6  13
ATOM     13  N   LIG d   1       3.821  87.105 115.822  0.00  0.00    -0.311 N 
ATOM     14  C   LIG d   1       4.896  87.322 115.067  0.00  0.00     0.210 C 
ATOM     15  C   LIG d   1       5.880  86.150 114.990  0.00  0.00     0.109 C 
ATOM     16  O   LIG d   1       5.145  88.386 114.480  0.00  0.00    -0.276 OA
ATOM     17  H   LIG d   1       3.715  86.225 116.288  0.00  0.00     0.149 HD
ENDBRANCH   6  13
BRANCH   5  18
ATOM     18  N   LIG d   1       3.903  89.401 117.836  0.00  0.00     0.381 N 
ATOM     19  H   LIG d   1       3.887  90.307 117.413  0.00  0.00    -0.090 HD
ATOM     20  H   LIG d   1       4.709  88.908 117.495  0.00  0.00    -0.090 HD
ATOM     21  H   LIG d   1       3.954  89.490 118.827  0.00  0.00    -0.090 HD
ENDBRANCH   5  18
BRANCH   3  22
ATOM     22  C   LIG d   1      -0.885  89.470 117.730  0.00  0.00     0.382 C 
ATOM     23  O   LIG d   1      -1.248  90.666 117.624  0.00  0.00    -0.241 OA
ATOM     24  O   LIG d   1      -1.569  88.679 118.407  0.00  0.00    -0.241 OA
ENDBRANCH   3  22
TORSDOF 7
ENDMDL
MODEL 5
REMARK VINA RESULT:      -4.1     19.761     21.877
REMARK  7 active torsions:
REMARK  status: ('A' for Active; 'I' for Inactive)
REMARK    1  A    between atoms: C_2  and  C_3 
REMARK    2  A    between atoms: C_3  and  O_6 
REMARK    3  A    between atoms: C_3  and  C_4 
REMARK    4  A    between atoms: C_7  and  O_6 
REMARK    5  A    between atoms: C_9  and  C_10 
REMARK    6  A    between atoms: N_15  and  C_14 
REMARK    7  A    between atoms: N_20  and  C_19 
REMARK       I    between atoms: C_22  and  N_20 
ROOT
ATOM      1  C   LIG d   1     -17.904  64.170 115.766  0.00  0.00     0.161 C 
ATOM      2  C   LIG d   1     -17.110  65.170 116.351  0.00  0.00     0.016 C 
ATOM      3  C   LIG d   1     -15.932  65.677 115.754  0.00  0.00     0.038 C 
ATOM      4  C   LIG d   1     -15.548  65.322 114.453  0.00  0.00     0.028 C 
ATOM      5  C   LIG d   1     -16.041  63.942 114.031  0.00  0.00    -0.047 C 
ATOM      6  C   LIG d   1     -17.561  63.850 114.296  0.00  0.00     0.091 C 
ENDROOT
BRANCH   1   7
ATOM      7  O   LIG d   1     -19.297  64.516 115.892  0.00  0.00    -0.368 OA
BRANCH   7   8
ATOM      8  C   LIG d   1     -19.778  65.556 115.006  0.00  0.00     0.119 C 
BRANCH   8   9
ATOM      9  C   LIG d   1     -20.276  66.720 115.885  0.00  0.00     0.028 C 
ATOM     10  C   LIG d   1     -21.447  67.482 115.242  0.00  0.00     0.006 C 
ENDBRANCH   8   9
BRANCH   8  11
ATOM     11  C   LIG d   1     -21.006  65.091 114.216  0.00  0.00     0.028 C 
ATOM     12  C   LIG d   1     -21.539  63.730 114.691  0.00  0.00     0.006 C 
ENDBRANCH   8  11
ENDBRANCH   7   8
ENDBRANCH   1   7
BRANCH   6  13
ATOM     13  N   LIG d   1     -18.110  62.503 113.989  0.00  0.00    -0.311 N 
ATOM     14  C   LIG d   1     -18.689  62.193 112.831  0.00  0.00     0.210 C 
ATOM     15  C   LIG d   1     -19.204  60.754 112.729  0.00  0.00     0.109 C 
ATOM     16  O   LIG d   1     -18.797  62.965 111.866  0.00  0.00    -0.276 OA
ATOM     17  H   LIG d   1     -18.036  61.807 114.705  0.00  0.00     0.149 HD
ENDBRANCH   6  13
BRANCH   5  18
ATOM     18  N   LIG d   1     -15.689  63.758 112.611  0.00  0.00     0.381 N 
ATOM     19  H   LIG d   1     -14.753  64.073 112.450  0.00  0.00    -0.090 HD
ATOM     20  H   LIG d   1     -16.310  64.312 112.047  0.00  0.00    -0.090 HD
ATOM     21  H   LIG d   1     -15.772  62.797 112.361  0.00  0.00    -0.090 HD
ENDBRANCH   5  18
BRANCH   3  22
ATOM     22  C   LIG d   1     -15.103  66.520 116.479  0.00  0.00     0.382 C 
ATOM     23  O   LIG d   1     -13.857  66.397 116.396  0.00  0.00    -0.241 OA
ATOM     24  O   LIG d   1     -15.585  67.372 117.249  0.00  0.00    -0.241 OA
ENDBRANCH   3  22
TORSDOF 7
ENDMDL
MODEL 6
REMARK VINA RESULT:      -4.0     20.995     23.112
REMARK  7 active torsions:
REMARK  status: ('A' for Active; 'I' for Inactive)
REMARK    1  A    between atoms: C_2  and  C_3 
REMARK    2  A    between atoms: C_3  and  O_6 
REMARK    3  A    between atoms: C_3  and  C_4 
REMARK    4  A    between atoms: C_7  and  O_6 
REMARK    5  A    between atoms: C_9  and  C_10 
REMARK    6  A    between atoms: N_15  and  C_14 
REMARK    7  A    between atoms: N_20  and  C_19 
REMARK       I    between atoms: C_22  and  N_20 
ROOT
ATOM      1  C   LIG d   1     -17.798  63.648 115.866  0.00  0.00     0.161 C 
ATOM      2  C   LIG d   1     -17.423  64.983 116.096  0.00  0.00     0.016 C 
ATOM      3  C   LIG d   1     -16.162  65.359 116.612  0.00  0.00     0.038 C 
ATOM      4  C   LIG d   1     -15.128  64.429 116.793  0.00  0.00     0.028 C 
ATOM      5  C   LIG d   1     -15.626  63.011 117.052  0.00  0.00    -0.047 C 
ATOM      6  C   LIG d   1     -16.643  62.628 115.952  0.00  0.00     0.091 C 
ENDROOT
BRANCH   1   7
ATOM      7  O   LIG d   1     -18.467  63.541 114.594  0.00  0.00    -0.368 OA
BRANCH   7   8
ATOM      8  C   LIG d   1     -18.219  64.613 113.651  0.00  0.00     0.119 C 
BRANCH   8   9
ATOM      9  C   LIG d   1     -19.572  64.995 113.019  0.00  0.00     0.028 C 
ATOM     10  C   LIG d   1     -20.571  65.536 114.054  0.00  0.00     0.006 C 
ENDBRANCH   8   9
BRANCH   8  11
ATOM     11  C   LIG d   1     -17.346  64.139 112.485  0.00  0.00     0.028 C 
ATOM     12  C   LIG d   1     -16.024  64.914 112.378  0.00  0.00     0.006 C 
ENDBRANCH   8  11
ENDBRANCH   7   8
ENDBRANCH   1   7
BRANCH   6  13
ATOM     13  N   LIG d   1     -17.243  61.288 116.178  0.00  0.00    -0.311 N 
ATOM     14  C   LIG d   1     -17.280  60.335 115.247  0.00  0.00     0.210 C 
ATOM     15  C   LIG d   1     -17.962  59.034 115.680  0.00  0.00     0.109 C 
ATOM     16  O   LIG d   1     -16.784  60.433 114.115  0.00  0.00    -0.276 OA
ATOM     17  H   LIG d   1     -17.641  61.111 117.079  0.00  0.00     0.149 HD
ENDBRANCH   6  13
BRANCH   5  18
ATOM     18  N   LIG d   1     -14.448  62.124 117.084  0.00  0.00     0.381 N 
ATOM     19  H   LIG d   1     -13.671  62.607 117.487  0.00  0.00    -0.090 HD
ATOM     20  H   LIG d   1     -14.208  61.868 116.143  0.00  0.00    -0.090 HD
ATOM     21  H   LIG d   1     -14.652  61.306 117.616  0.00  0.00    -0.090 HD
ENDBRANCH   5  18
BRANCH   3  22
ATOM     22  C   LIG d   1     -15.940  66.674 116.991  0.00  0.00     0.382 C 
ATOM     23  O   LIG d   1     -14.818  67.016 117.437  0.00  0.00    -0.241 OA
ATOM     24  O   LIG d   1     -16.859  67.512 116.934  0.00  0.00    -0.241 OA
ENDBRANCH   3  22
TORSDOF 7
ENDMDL
MODEL 7
REMARK VINA RESULT:      -4.0      2.956      5.081
REMARK  7 active torsions:
REMARK  status: ('A' for Active; 'I' for Inactive)
REMARK    1  A    between atoms: C_2  and  C_3 
REMARK    2  A    between atoms: C_3  and  O_6 
REMARK    3  A    between atoms: C_3  and  C_4 
REMARK    4  A    between atoms: C_7  and  O_6 
REMARK    5  A    between atoms: C_9  and  C_10 
REMARK    6  A    between atoms: N_15  and  C_14 
REMARK    7  A    between atoms: N_20  and  C_19 
REMARK       I    between atoms: C_22  and  N_20 
ROOT
ATOM      1  C   LIG d   1     -24.653  84.413 115.505  0.00  0.00     0.161 C 
ATOM      2  C   LIG d   1     -23.437  84.520 114.810  0.00  0.00     0.016 C 
ATOM      3  C   LIG d   1     -23.164  85.543 113.873  0.00  0.00     0.038 C 
ATOM      4  C   LIG d   1     -24.038  86.622 113.678  0.00  0.00     0.028 C 
ATOM      5  C   LIG d   1     -25.494  86.286 113.984  0.00  0.00    -0.047 C 
ATOM      6  C   LIG d   1     -25.576  85.644 115.388  0.00  0.00     0.091 C 
ENDROOT
BRANCH   1   7
ATOM      7  O   LIG d   1     -24.398  84.108 116.891  0.00  0.00    -0.368 OA
BRANCH   7   8
ATOM      8  C   LIG d   1     -24.691  82.752 117.309  0.00  0.00     0.119 C 
BRANCH   8   9
ATOM      9  C   LIG d   1     -23.345  82.035 117.529  0.00  0.00     0.028 C 
ATOM     10  C   LIG d   1     -22.241  82.993 118.007  0.00  0.00     0.006 C 
ENDBRANCH   8   9
BRANCH   8  11
ATOM     11  C   LIG d   1     -25.392  81.965 116.198  0.00  0.00     0.028 C 
ATOM     12  C   LIG d   1     -24.601  80.725 115.755  0.00  0.00     0.006 C 
ENDBRANCH   8  11
ENDBRANCH   7   8
ENDBRANCH   1   7
BRANCH   6  13
ATOM     13  N   LIG d   1     -26.954  85.207 115.732  0.00  0.00    -0.311 N 
ATOM     14  C   LIG d   1     -27.813  85.962 116.415  0.00  0.00     0.210 C 
ATOM     15  C   LIG d   1     -29.175  85.313 116.680  0.00  0.00     0.109 C 
ATOM     16  O   LIG d   1     -27.587  87.119 116.799  0.00  0.00    -0.276 OA
ATOM     17  H   LIG d   1     -27.231  84.293 115.432  0.00  0.00     0.149 HD
ENDBRANCH   6  13
BRANCH   5  18
ATOM     18  N   LIG d   1     -26.273  87.533 113.872  0.00  0.00     0.381 N 
ATOM     19  H   LIG d   1     -25.805  88.170 113.258  0.00  0.00    -0.090 HD
ATOM     20  H   LIG d   1     -26.336  87.959 114.780  0.00  0.00    -0.090 HD
ATOM     21  H   LIG d   1     -27.185  87.336 113.525  0.00  0.00    -0.090 HD
ENDBRANCH   5  18
BRANCH   3  22
ATOM     22  C   LIG d   1     -22.022  85.470 113.090  0.00  0.00     0.382 C 
ATOM     23  O   LIG d   1     -21.254  86.459 113.007  0.00  0.00    -0.241 OA
ATOM     24  O   LIG d   1     -21.772  84.443 112.430  0.00  0.00    -0.241 OA
ENDBRANCH   3  22
TORSDOF 7
ENDMDL
MODEL 8
REMARK VINA RESULT:      -4.0     35.348     38.546
REMARK  7 active torsions:
REMARK  status: ('A' for Active; 'I' for Inactive)
REMARK    1  A    between atoms: C_2  and  C_3 
REMARK    2  A    between atoms: C_3  and  O_6 
REMARK    3  A    between atoms: C_3  and  C_4 
REMARK    4  A    between atoms: C_7  and  O_6 
REMARK    5  A    between atoms: C_9  and  C_10 
REMARK    6  A    between atoms: N_15  and  C_14 
REMARK    7  A    between atoms: N_20  and  C_19 
REMARK       I    between atoms: C_22  and  N_20 
ROOT
ATOM      1  C   LIG d   1      12.055  79.680 115.193  0.00  0.00     0.161 C 
ATOM      2  C   LIG d   1      10.767  80.241 115.230  0.00  0.00     0.016 C 
ATOM      3  C   LIG d   1      10.488  81.511 115.784  0.00  0.00     0.038 C 
ATOM      4  C   LIG d   1      11.508  82.377 116.207  0.00  0.00     0.028 C 
ATOM      5  C   LIG d   1      12.772  81.650 116.653  0.00  0.00    -0.047 C 
ATOM      6  C   LIG d   1      13.196  80.656 115.549  0.00  0.00     0.091 C 
ENDROOT
BRANCH   1   7
ATOM      7  O   LIG d   1      12.290  79.081 113.903  0.00  0.00    -0.368 OA
BRANCH   7   8
ATOM      8  C   LIG d   1      12.842  79.954 112.887  0.00  0.00     0.119 C 
BRANCH   8   9
ATOM      9  C   LIG d   1      11.757  80.157 111.812  0.00  0.00     0.028 C 
ATOM     10  C   LIG d   1      11.195  81.589 111.808  0.00  0.00     0.006 C 
ENDBRANCH   8   9
BRANCH   8  11
ATOM     11  C   LIG d   1      14.015  79.291 112.159  0.00  0.00     0.028 C 
ATOM     12  C   LIG d   1      14.424  77.949 112.788  0.00  0.00     0.006 C 
ENDBRANCH   8  11
ENDBRANCH   7   8
ENDBRANCH   1   7
BRANCH   6  13
ATOM     13  N   LIG d   1      14.377  79.843 115.940  0.00  0.00    -0.311 N 
ATOM     14  C   LIG d   1      15.620  80.119 115.549  0.00  0.00     0.210 C 
ATOM     15  C   LIG d   1      16.688  79.142 116.050  0.00  0.00     0.109 C 
ATOM     16  O   LIG d   1      15.943  81.099 114.861  0.00  0.00    -0.276 OA
ATOM     17  H   LIG d   1      14.209  79.047 116.524  0.00  0.00     0.149 HD
ENDBRANCH   6  13
BRANCH   5  18
ATOM     18  N   LIG d   1      13.797  82.673 116.935  0.00  0.00     0.381 N 
ATOM     19  H   LIG d   1      13.357  83.548 117.137  0.00  0.00    -0.090 HD
ATOM     20  H   LIG d   1      14.373  82.790 116.119  0.00  0.00    -0.090 HD
ATOM     21  H   LIG d   1      14.358  82.389 117.708  0.00  0.00    -0.090 HD
ENDBRANCH   5  18
BRANCH   3  22
ATOM     22  C   LIG d   1       9.171  81.911 115.958  0.00  0.00     0.382 C 
ATOM     23  O   LIG d   1       8.369  81.173 116.579  0.00  0.00    -0.241 OA
ATOM     24  O   LIG d   1       8.765  82.979 115.461  0.00  0.00    -0.241 OA
ENDBRANCH   3  22
TORSDOF 7
ENDMDL
MODEL 9
REMARK VINA RESULT:      -3.9     35.638     38.893
REMARK  7 active torsions:
REMARK  status: ('A' for Active; 'I' for Inactive)
REMARK    1  A    between atoms: C_2  and  C_3 
REMARK    2  A    between atoms: C_3  and  O_6 
REMARK    3  A    between atoms: C_3  and  C_4 
REMARK    4  A    between atoms: C_7  and  O_6 
REMARK    5  A    between atoms: C_9  and  C_10 
REMARK    6  A    between atoms: N_15  and  C_14 
REMARK    7  A    between atoms: N_20  and  C_19 
REMARK       I    between atoms: C_22  and  N_20 
ROOT
ATOM      1  C   LIG d   1      12.712  79.381 115.372  0.00  0.00     0.161 C 
ATOM      2  C   LIG d   1      11.356  79.588 115.677  0.00  0.00     0.016 C 
ATOM      3  C   LIG d   1      10.438  80.178 114.778  0.00  0.00     0.038 C 
ATOM      4  C   LIG d   1      10.782  80.465 113.449  0.00  0.00     0.028 C 
ATOM      5  C   LIG d   1      12.270  80.739 113.253  0.00  0.00    -0.047 C 
ATOM      6  C   LIG d   1      13.080  79.585 113.888  0.00  0.00     0.091 C 
ENDROOT
BRANCH   1   7
ATOM      7  O   LIG d   1      13.116  78.069 115.813  0.00  0.00    -0.368 OA
BRANCH   7   8
ATOM      8  C   LIG d   1      13.161  77.041 114.794  0.00  0.00     0.119 C 
BRANCH   8   9
ATOM      9  C   LIG d   1      11.924  76.142 114.988  0.00  0.00     0.028 C 
ATOM     10  C   LIG d   1      11.994  75.321 116.287  0.00  0.00     0.006 C 
ENDBRANCH   8   9
BRANCH   8  11
ATOM     11  C   LIG d   1      14.368  76.117 114.987  0.00  0.00     0.028 C 
ATOM     12  C   LIG d   1      15.651  76.881 115.349  0.00  0.00     0.006 C 
ENDBRANCH   8  11
ENDBRANCH   7   8
ENDBRANCH   1   7
BRANCH   6  13
ATOM     13  N   LIG d   1      14.546  79.816 113.815  0.00  0.00    -0.311 N 
ATOM     14  C   LIG d   1      15.307  79.384 112.811  0.00  0.00     0.210 C 
ATOM     15  C   LIG d   1      16.798  79.711 112.943  0.00  0.00     0.109 C 
ATOM     16  O   LIG d   1      14.885  78.789 111.808  0.00  0.00    -0.276 OA
ATOM     17  H   LIG d   1      14.967  80.317 114.572  0.00  0.00     0.149 HD
ENDBRANCH   6  13
BRANCH   5  18
ATOM     18  N   LIG d   1      12.509  80.886 111.805  0.00  0.00     0.381 N 
ATOM     19  H   LIG d   1      12.241  81.803 111.509  0.00  0.00    -0.090 HD
ATOM     20  H   LIG d   1      11.944  80.217 111.313  0.00  0.00    -0.090 HD
ATOM     21  H   LIG d   1      13.472  80.732 111.602  0.00  0.00    -0.090 HD
ENDBRANCH   5  18
BRANCH   3  22
ATOM     22  C   LIG d   1       9.170  80.525 115.220  0.00  0.00     0.382 C 
ATOM     23  O   LIG d   1       8.253  79.668 115.226  0.00  0.00    -0.241 OA
ATOM     24  O   LIG d   1       8.920  81.694 115.569  0.00  0.00    -0.241 OA
ENDBRANCH   3  22
TORSDOF 7
ENDMDL
