MODEL 1
REMARK VINA RESULT:      -5.8      0.000      0.000
REMARK  7 active torsions:
REMARK  status: ('A' for Active; 'I' for Inactive)
REMARK    1  A    between atoms: C_2  and  C_3 
REMARK    2  A    between atoms: C_3  and  O_6 
REMARK    3  A    between atoms: C_3  and  C_4 
REMARK    4  A    between atoms: C_7  and  O_6 
REMARK    5  A    between atoms: C_9  and  C_10 
REMARK    6  A    between atoms: N_15  and  C_14 
REMARK    7  A    between atoms: N_20  and  C_19 
REMARK       I    between atoms: C_22  and  N_20 
ROOT
ATOM      1  C   LIG d   1      -6.892  75.418 117.115  0.00  0.00     0.161 C 
ATOM      2  C   LIG d   1      -8.033  76.135 117.512  0.00  0.00     0.016 C 
ATOM      3  C   LIG d   1      -8.121  77.545 117.465  0.00  0.00     0.038 C 
ATOM      4  C   LIG d   1      -7.121  78.331 116.873  0.00  0.00     0.028 C 
ATOM      5  C   LIG d   1      -5.738  77.690 116.920  0.00  0.00    -0.047 C 
ATOM      6  C   LIG d   1      -5.833  76.251 116.362  0.00  0.00     0.091 C 
ENDROOT
BRANCH   1   7
ATOM      7  O   LIG d   1      -7.282  74.275 116.328  0.00  0.00    -0.368 OA
BRANCH   7   8
ATOM      8  C   LIG d   1      -7.741  73.118 117.070  0.00  0.00     0.119 C 
BRANCH   8   9
ATOM      9  C   LIG d   1      -7.167  71.866 116.378  0.00  0.00     0.028 C 
ATOM     10  C   LIG d   1      -5.795  72.130 115.734  0.00  0.00     0.006 C 
ENDBRANCH   8   9
BRANCH   8  11
ATOM     11  C   LIG d   1      -9.263  72.968 116.981  0.00  0.00     0.028 C 
ATOM     12  C   LIG d   1      -9.747  71.563 117.375  0.00  0.00     0.006 C 
ENDBRANCH   8  11
ENDBRANCH   7   8
ENDBRANCH   1   7
BRANCH   6  13
ATOM     13  N   LIG d   1      -4.541  75.522 116.450  0.00  0.00    -0.311 N 
ATOM     14  C   LIG d   1      -3.840  75.142 115.384  0.00  0.00     0.210 C 
ATOM     15  C   LIG d   1      -2.545  74.385 115.697  0.00  0.00     0.109 C 
ATOM     16  O   LIG d   1      -4.151  75.387 114.208  0.00  0.00    -0.276 OA
ATOM     17  H   LIG d   1      -4.199  75.310 117.367  0.00  0.00     0.149 HD
ENDBRANCH   6  13
BRANCH   5  18
ATOM     18  N   LIG d   1      -4.821  78.549 116.148  0.00  0.00     0.381 N 
ATOM     19  H   LIG d   1      -5.064  79.511 116.284  0.00  0.00    -0.090 HD
ATOM     20  H   LIG d   1      -4.919  78.334 115.171  0.00  0.00    -0.090 HD
ATOM     21  H   LIG d   1      -3.881  78.392 116.438  0.00  0.00    -0.090 HD
ENDBRANCH   5  18
BRANCH   3  22
ATOM     22  C   LIG d   1      -9.201  78.186 118.052  0.00  0.00     0.382 C 
ATOM     23  O   LIG d   1      -9.077  79.359 118.480  0.00  0.00    -0.241 OA
ATOM     24  O   LIG d   1     -10.285  77.591 118.198  0.00  0.00    -0.241 OA
ENDBRANCH   3  22
TORSDOF 7
ENDMDL
MODEL 2
REMARK VINA RESULT:      -5.8      2.960      5.958
REMARK  7 active torsions:
REMARK  status: ('A' for Active; 'I' for Inactive)
REMARK    1  A    between atoms: C_2  and  C_3 
REMARK    2  A    between atoms: C_3  and  O_6 
REMARK    3  A    between atoms: C_3  and  C_4 
REMARK    4  A    between atoms: C_7  and  O_6 
REMARK    5  A    between atoms: C_9  and  C_10 
REMARK    6  A    between atoms: N_15  and  C_14 
REMARK    7  A    between atoms: N_20  and  C_19 
REMARK       I    between atoms: C_22  and  N_20 
ROOT
ATOM      1  C   LIG d   1      -3.512  74.648 115.850  0.00  0.00     0.161 C 
ATOM      2  C   LIG d   1      -4.190  73.439 115.623  0.00  0.00     0.016 C 
ATOM      3  C   LIG d   1      -5.577  73.272 115.838  0.00  0.00     0.038 C 
ATOM      4  C   LIG d   1      -6.414  74.354 116.153  0.00  0.00     0.028 C 
ATOM      5  C   LIG d   1      -5.695  75.483 116.883  0.00  0.00    -0.047 C 
ATOM      6  C   LIG d   1      -4.427  75.868 116.087  0.00  0.00     0.091 C 
ENDROOT
BRANCH   1   7
ATOM      7  O   LIG d   1      -2.601  74.909 114.764  0.00  0.00    -0.368 OA
BRANCH   7   8
ATOM      8  C   LIG d   1      -1.190  74.823 115.082  0.00  0.00     0.119 C 
BRANCH   8   9
ATOM      9  C   LIG d   1      -1.072  74.421 116.565  0.00  0.00     0.028 C 
ATOM     10  C   LIG d   1      -0.250  75.431 117.383  0.00  0.00     0.006 C 
ENDBRANCH   8   9
BRANCH   8  11
ATOM     11  C   LIG d   1      -0.511  76.193 114.978  0.00  0.00     0.028 C 
ATOM     12  C   LIG d   1      -1.247  77.152 114.029  0.00  0.00     0.006 C 
ENDBRANCH   8  11
ENDBRANCH   7   8
ENDBRANCH   1   7
BRANCH   6  13
ATOM     13  N   LIG d   1      -3.620  76.909 116.775  0.00  0.00    -0.311 N 
ATOM     14  C   LIG d   1      -3.714  78.209 116.502  0.00  0.00     0.210 C 
ATOM     15  C   LIG d   1      -2.777  79.109 117.314  0.00  0.00     0.109 C 
ATOM     16  O   LIG d   1      -4.507  78.705 115.689  0.00  0.00    -0.276 OA
ATOM     17  H   LIG d   1      -2.972  76.597 117.473  0.00  0.00     0.149 HD
ENDBRANCH   6  13
BRANCH   5  18
ATOM     18  N   LIG d   1      -6.649  76.599 117.026  0.00  0.00     0.381 N 
ATOM     19  H   LIG d   1      -7.275  76.415 117.784  0.00  0.00    -0.090 HD
ATOM     20  H   LIG d   1      -7.189  76.676 116.182  0.00  0.00    -0.090 HD
ATOM     21  H   LIG d   1      -6.156  77.449 117.192  0.00  0.00    -0.090 HD
ENDBRANCH   5  18
BRANCH   3  22
ATOM     22  C   LIG d   1      -6.135  72.004 115.778  0.00  0.00     0.382 C 
ATOM     23  O   LIG d   1      -5.531  71.082 115.178  0.00  0.00    -0.241 OA
ATOM     24  O   LIG d   1      -7.254  71.782 116.276  0.00  0.00    -0.241 OA
ENDBRANCH   3  22
TORSDOF 7
ENDMDL
MODEL 3
REMARK VINA RESULT:      -5.7      1.530      2.120
REMARK  7 active torsions:
REMARK  status: ('A' for Active; 'I' for Inactive)
REMARK    1  A    between atoms: C_2  and  C_3 
REMARK    2  A    between atoms: C_3  and  O_6 
REMARK    3  A    between atoms: C_3  and  C_4 
REMARK    4  A    between atoms: C_7  and  O_6 
REMARK    5  A    between atoms: C_9  and  C_10 
REMARK    6  A    between atoms: N_15  and  C_14 
REMARK    7  A    between atoms: N_20  and  C_19 
REMARK       I    between atoms: C_22  and  N_20 
ROOT
ATOM      1  C   LIG d   1      -6.477  77.113 117.072  0.00  0.00     0.161 C 
ATOM      2  C   LIG d   1      -7.208  78.232 117.504  0.00  0.00     0.016 C 
ATOM      3  C   LIG d   1      -6.745  79.562 117.375  0.00  0.00     0.038 C 
ATOM      4  C   LIG d   1      -5.578  79.875 116.663  0.00  0.00     0.028 C 
ATOM      5  C   LIG d   1      -4.555  78.744 116.651  0.00  0.00    -0.047 C 
ATOM      6  C   LIG d   1      -5.251  77.442 116.194  0.00  0.00     0.091 C 
ENDROOT
BRANCH   1   7
ATOM      7  O   LIG d   1      -7.350  76.192 116.390  0.00  0.00    -0.368 OA
BRANCH   7   8
ATOM      8  C   LIG d   1      -7.867  75.097 117.184  0.00  0.00     0.119 C 
BRANCH   8   9
ATOM      9  C   LIG d   1      -7.142  73.814 116.732  0.00  0.00     0.028 C 
ATOM     10  C   LIG d   1      -5.987  73.431 117.673  0.00  0.00     0.006 C 
ENDBRANCH   8   9
BRANCH   8  11
ATOM     11  C   LIG d   1      -9.350  74.848 116.893  0.00  0.00     0.028 C 
ATOM     12  C   LIG d   1      -9.745  73.369 117.033  0.00  0.00     0.006 C 
ENDBRANCH   8  11
ENDBRANCH   7   8
ENDBRANCH   1   7
BRANCH   6  13
ATOM     13  N   LIG d   1      -4.341  76.268 116.234  0.00  0.00    -0.311 N 
ATOM     14  C   LIG d   1      -4.071  75.513 115.170  0.00  0.00     0.210 C 
ATOM     15  C   LIG d   1      -3.123  74.339 115.435  0.00  0.00     0.109 C 
ATOM     16  O   LIG d   1      -4.500  75.723 114.026  0.00  0.00    -0.276 OA
ATOM     17  H   LIG d   1      -3.924  76.044 117.116  0.00  0.00     0.149 HD
ENDBRANCH   6  13
BRANCH   5  18
ATOM     18  N   LIG d   1      -3.450  79.151 115.762  0.00  0.00     0.381 N 
ATOM     19  H   LIG d   1      -2.920  79.882 116.194  0.00  0.00    -0.090 HD
ATOM     20  H   LIG d   1      -3.837  79.507 114.905  0.00  0.00    -0.090 HD
ATOM     21  H   LIG d   1      -2.861  78.371 115.571  0.00  0.00    -0.090 HD
ENDBRANCH   5  18
BRANCH   3  22
ATOM     22  C   LIG d   1      -7.434  80.593 117.997  0.00  0.00     0.382 C 
ATOM     23  O   LIG d   1      -8.664  80.482 118.215  0.00  0.00    -0.241 OA
ATOM     24  O   LIG d   1      -6.849  81.649 118.301  0.00  0.00    -0.241 OA
ENDBRANCH   3  22
TORSDOF 7
ENDMDL
MODEL 4
REMARK VINA RESULT:      -5.7      2.076      4.408
REMARK  7 active torsions:
REMARK  status: ('A' for Active; 'I' for Inactive)
REMARK    1  A    between atoms: C_2  and  C_3 
REMARK    2  A    between atoms: C_3  and  O_6 
REMARK    3  A    between atoms: C_3  and  C_4 
REMARK    4  A    between atoms: C_7  and  O_6 
REMARK    5  A    between atoms: C_9  and  C_10 
REMARK    6  A    between atoms: N_15  and  C_14 
REMARK    7  A    between atoms: N_20  and  C_19 
REMARK       I    between atoms: C_22  and  N_20 
ROOT
ATOM      1  C   LIG d   1      -6.388  76.829 116.788  0.00  0.00     0.161 C 
ATOM      2  C   LIG d   1      -6.973  78.055 117.150  0.00  0.00     0.016 C 
ATOM      3  C   LIG d   1      -8.322  78.184 117.553  0.00  0.00     0.038 C 
ATOM      4  C   LIG d   1      -9.142  77.067 117.768  0.00  0.00     0.028 C 
ATOM      5  C   LIG d   1      -8.746  75.854 116.932  0.00  0.00    -0.047 C 
ATOM      6  C   LIG d   1      -7.236  75.584 117.123  0.00  0.00     0.091 C 
ENDROOT
BRANCH   1   7
ATOM      7  O   LIG d   1      -5.079  76.719 117.381  0.00  0.00    -0.368 OA
BRANCH   7   8
ATOM      8  C   LIG d   1      -3.957  76.790 116.467  0.00  0.00     0.119 C 
BRANCH   8   9
ATOM      9  C   LIG d   1      -2.946  75.707 116.890  0.00  0.00     0.028 C 
ATOM     10  C   LIG d   1      -2.799  74.598 115.835  0.00  0.00     0.006 C 
ENDBRANCH   8   9
BRANCH   8  11
ATOM     11  C   LIG d   1      -3.210  78.119 116.605  0.00  0.00     0.028 C 
ATOM     12  C   LIG d   1      -3.591  79.134 115.515  0.00  0.00     0.006 C 
ENDBRANCH   8  11
ENDBRANCH   7   8
ENDBRANCH   1   7
BRANCH   6  13
ATOM     13  N   LIG d   1      -6.748  74.466 116.275  0.00  0.00    -0.311 N 
ATOM     14  C   LIG d   1      -6.198  73.358 116.768  0.00  0.00     0.210 C 
ATOM     15  C   LIG d   1      -5.744  72.339 115.717  0.00  0.00     0.109 C 
ATOM     16  O   LIG d   1      -6.071  73.108 117.976  0.00  0.00    -0.276 OA
ATOM     17  H   LIG d   1      -6.840  74.572 115.283  0.00  0.00     0.149 HD
ENDBRANCH   6  13
BRANCH   5  18
ATOM     18  N   LIG d   1      -9.594  74.724 117.356  0.00  0.00     0.381 N 
ATOM     19  H   LIG d   1      -9.237  74.333 118.204  0.00  0.00    -0.090 HD
ATOM     20  H   LIG d   1      -9.567  74.014 116.645  0.00  0.00    -0.090 HD
ATOM     21  H   LIG d   1     -10.531  75.033 117.492  0.00  0.00    -0.090 HD
ENDBRANCH   5  18
BRANCH   3  22
ATOM     22  C   LIG d   1      -8.875  79.446 117.707  0.00  0.00     0.382 C 
ATOM     23  O   LIG d   1     -10.021  79.573 118.202  0.00  0.00    -0.241 OA
ATOM     24  O   LIG d   1      -8.261  80.457 117.316  0.00  0.00    -0.241 OA
ENDBRANCH   3  22
TORSDOF 7
ENDMDL
MODEL 5
REMARK VINA RESULT:      -5.6      1.812      4.867
REMARK  7 active torsions:
REMARK  status: ('A' for Active; 'I' for Inactive)
REMARK    1  A    between atoms: C_2  and  C_3 
REMARK    2  A    between atoms: C_3  and  O_6 
REMARK    3  A    between atoms: C_3  and  C_4 
REMARK    4  A    between atoms: C_7  and  O_6 
REMARK    5  A    between atoms: C_9  and  C_10 
REMARK    6  A    between atoms: N_15  and  C_14 
REMARK    7  A    between atoms: N_20  and  C_19 
REMARK       I    between atoms: C_22  and  N_20 
ROOT
ATOM      1  C   LIG d   1      -6.724  75.819 116.607  0.00  0.00     0.161 C 
ATOM      2  C   LIG d   1      -7.714  74.858 116.877  0.00  0.00     0.016 C 
ATOM      3  C   LIG d   1      -7.473  73.465 116.854  0.00  0.00     0.038 C 
ATOM      4  C   LIG d   1      -6.181  72.939 116.706  0.00  0.00     0.028 C 
ATOM      5  C   LIG d   1      -5.239  73.853 115.930  0.00  0.00    -0.047 C 
ATOM      6  C   LIG d   1      -5.284  75.266 116.554  0.00  0.00     0.091 C 
ENDROOT
BRANCH   1   7
ATOM      7  O   LIG d   1      -6.814  76.893 117.564  0.00  0.00    -0.368 OA
BRANCH   7   8
ATOM      8  C   LIG d   1      -7.382  78.134 117.076  0.00  0.00     0.119 C 
BRANCH   8   9
ATOM      9  C   LIG d   1      -6.252  79.181 117.049  0.00  0.00     0.028 C 
ATOM     10  C   LIG d   1      -6.749  80.591 117.411  0.00  0.00     0.006 C 
ENDBRANCH   8   9
BRANCH   8  11
ATOM     11  C   LIG d   1      -8.425  78.689 118.050  0.00  0.00     0.028 C 
ATOM     12  C   LIG d   1      -9.624  77.746 118.240  0.00  0.00     0.006 C 
ENDBRANCH   8  11
ENDBRANCH   7   8
ENDBRANCH   1   7
BRANCH   6  13
ATOM     13  N   LIG d   1      -4.455  76.245 115.803  0.00  0.00    -0.311 N 
ATOM     14  C   LIG d   1      -4.346  76.246 114.476  0.00  0.00     0.210 C 
ATOM     15  C   LIG d   1      -3.424  77.328 113.904  0.00  0.00     0.109 C 
ATOM     16  O   LIG d   1      -4.950  75.475 113.715  0.00  0.00    -0.276 OA
ATOM     17  H   LIG d   1      -3.955  76.926 116.340  0.00  0.00     0.149 HD
ENDBRANCH   6  13
BRANCH   5  18
ATOM     18  N   LIG d   1      -3.895  73.246 115.971  0.00  0.00     0.381 N 
ATOM     19  H   LIG d   1      -3.433  73.501 116.821  0.00  0.00    -0.090 HD
ATOM     20  H   LIG d   1      -3.355  73.600 115.200  0.00  0.00    -0.090 HD
ATOM     21  H   LIG d   1      -3.967  72.254 115.908  0.00  0.00    -0.090 HD
ENDBRANCH   5  18
BRANCH   3  22
ATOM     22  C   LIG d   1      -8.538  72.582 116.939  0.00  0.00     0.382 C 
ATOM     23  O   LIG d   1      -8.348  71.352 116.778  0.00  0.00    -0.241 OA
ATOM     24  O   LIG d   1      -9.694  73.003 117.132  0.00  0.00    -0.241 OA
ENDBRANCH   3  22
TORSDOF 7
ENDMDL
MODEL 6
REMARK VINA RESULT:      -5.5      2.467      5.349
REMARK  7 active torsions:
REMARK  status: ('A' for Active; 'I' for Inactive)
REMARK    1  A    between atoms: C_2  and  C_3 
REMARK    2  A    between atoms: C_3  and  O_6 
REMARK    3  A    between atoms: C_3  and  C_4 
REMARK    4  A    between atoms: C_7  and  O_6 
REMARK    5  A    between atoms: C_9  and  C_10 
REMARK    6  A    between atoms: N_15  and  C_14 
REMARK    7  A    between atoms: N_20  and  C_19 
REMARK       I    between atoms: C_22  and  N_20 
ROOT
ATOM      1  C   LIG d   1      -5.449  76.112 114.780  0.00  0.00     0.161 C 
ATOM      2  C   LIG d   1      -6.139  75.016 115.323  0.00  0.00     0.016 C 
ATOM      3  C   LIG d   1      -5.496  73.921 115.943  0.00  0.00     0.038 C 
ATOM      4  C   LIG d   1      -4.116  73.918 116.198  0.00  0.00     0.028 C 
ATOM      5  C   LIG d   1      -3.318  74.772 115.218  0.00  0.00    -0.047 C 
ATOM      6  C   LIG d   1      -3.952  76.180 115.148  0.00  0.00     0.091 C 
ENDROOT
BRANCH   1   7
ATOM      7  O   LIG d   1      -6.111  77.338 115.148  0.00  0.00    -0.368 OA
BRANCH   7   8
ATOM      8  C   LIG d   1      -5.972  77.747 116.531  0.00  0.00     0.119 C 
BRANCH   8   9
ATOM      9  C   LIG d   1      -7.383  78.057 117.067  0.00  0.00     0.028 C 
ATOM     10  C   LIG d   1      -7.959  76.904 117.906  0.00  0.00     0.006 C 
ENDBRANCH   8   9
BRANCH   8  11
ATOM     11  C   LIG d   1      -5.196  79.062 116.649  0.00  0.00     0.028 C 
ATOM     12  C   LIG d   1      -6.052  80.212 117.205  0.00  0.00     0.006 C 
ENDBRANCH   8  11
ENDBRANCH   7   8
ENDBRANCH   1   7
BRANCH   6  13
ATOM     13  N   LIG d   1      -3.282  77.053 114.148  0.00  0.00    -0.311 N 
ATOM     14  C   LIG d   1      -2.313  77.913 114.458  0.00  0.00     0.210 C 
ATOM     15  C   LIG d   1      -1.774  78.731 113.281  0.00  0.00     0.109 C 
ATOM     16  O   LIG d   1      -1.827  78.052 115.591  0.00  0.00    -0.276 OA
ATOM     17  H   LIG d   1      -3.594  76.983 113.199  0.00  0.00     0.149 HD
ENDBRANCH   6  13
BRANCH   5  18
ATOM     18  N   LIG d   1      -1.918  74.791 115.682  0.00  0.00     0.381 N 
ATOM     19  H   LIG d   1      -1.350  75.287 115.024  0.00  0.00    -0.090 HD
ATOM     20  H   LIG d   1      -1.581  73.846 115.739  0.00  0.00    -0.090 HD
ATOM     21  H   LIG d   1      -1.860  75.226 116.576  0.00  0.00    -0.090 HD
ENDBRANCH   5  18
BRANCH   3  22
ATOM     22  C   LIG d   1      -6.229  72.793 116.279  0.00  0.00     0.382 C 
ATOM     23  O   LIG d   1      -7.142  72.872 117.136  0.00  0.00    -0.241 OA
ATOM     24  O   LIG d   1      -5.960  71.689 115.769  0.00  0.00    -0.241 OA
ENDBRANCH   3  22
TORSDOF 7
ENDMDL
MODEL 7
REMARK VINA RESULT:      -5.5      2.818      6.015
REMARK  7 active torsions:
REMARK  status: ('A' for Active; 'I' for Inactive)
REMARK    1  A    between atoms: C_2  and  C_3 
REMARK    2  A    between atoms: C_3  and  O_6 
REMARK    3  A    between atoms: C_3  and  C_4 
REMARK    4  A    between atoms: C_7  and  O_6 
REMARK    5  A    between atoms: C_9  and  C_10 
REMARK    6  A    between atoms: N_15  and  C_14 
REMARK    7  A    between atoms: N_20  and  C_19 
REMARK       I    between atoms: C_22  and  N_20 
ROOT
ATOM      1  C   LIG d   1      -3.950  74.971 116.014  0.00  0.00     0.161 C 
ATOM      2  C   LIG d   1      -4.397  73.688 115.659  0.00  0.00     0.016 C 
ATOM      3  C   LIG d   1      -5.718  73.235 115.880  0.00  0.00     0.038 C 
ATOM      4  C   LIG d   1      -6.729  74.093 116.339  0.00  0.00     0.028 C 
ATOM      5  C   LIG d   1      -6.205  75.250 117.183  0.00  0.00    -0.047 C 
ATOM      6  C   LIG d   1      -5.067  75.958 116.413  0.00  0.00     0.091 C 
ENDROOT
BRANCH   1   7
ATOM      7  O   LIG d   1      -3.151  75.522 114.948  0.00  0.00    -0.368 OA
BRANCH   7   8
ATOM      8  C   LIG d   1      -1.855  76.048 115.329  0.00  0.00     0.119 C 
BRANCH   8   9
ATOM      9  C   LIG d   1      -1.295  76.821 114.119  0.00  0.00     0.028 C 
ATOM     10  C   LIG d   1      -1.265  78.340 114.356  0.00  0.00     0.006 C 
ENDBRANCH   8   9
BRANCH   8  11
ATOM     11  C   LIG d   1      -0.852  74.921 115.591  0.00  0.00     0.028 C 
ATOM     12  C   LIG d   1      -0.412  74.844 117.062  0.00  0.00     0.006 C 
ENDBRANCH   8  11
ENDBRANCH   7   8
ENDBRANCH   1   7
BRANCH   6  13
ATOM     13  N   LIG d   1      -4.441  77.050 117.203  0.00  0.00    -0.311 N 
ATOM     14  C   LIG d   1      -4.279  78.289 116.742  0.00  0.00     0.210 C 
ATOM     15  C   LIG d   1      -3.593  79.255 117.713  0.00  0.00     0.109 C 
ATOM     16  O   LIG d   1      -4.668  78.687 115.634  0.00  0.00    -0.276 OA
ATOM     17  H   LIG d   1      -4.125  76.822 118.126  0.00  0.00     0.149 HD
ENDBRANCH   6  13
BRANCH   5  18
ATOM     18  N   LIG d   1      -7.344  76.139 117.477  0.00  0.00     0.381 N 
ATOM     19  H   LIG d   1      -7.026  76.940 117.986  0.00  0.00    -0.090 HD
ATOM     20  H   LIG d   1      -8.004  75.643 118.050  0.00  0.00    -0.090 HD
ATOM     21  H   LIG d   1      -7.780  76.427 116.629  0.00  0.00    -0.090 HD
ENDBRANCH   5  18
BRANCH   3  22
ATOM     22  C   LIG d   1      -6.029  71.899 115.681  0.00  0.00     0.382 C 
ATOM     23  O   LIG d   1      -5.228  71.153 115.067  0.00  0.00    -0.241 OA
ATOM     24  O   LIG d   1      -7.121  71.439 116.067  0.00  0.00    -0.241 OA
ENDBRANCH   3  22
TORSDOF 7
ENDMDL
MODEL 8
REMARK VINA RESULT:      -4.8     12.591     15.019
REMARK  7 active torsions:
REMARK  status: ('A' for Active; 'I' for Inactive)
REMARK    1  A    between atoms: C_2  and  C_3 
REMARK    2  A    between atoms: C_3  and  O_6 
REMARK    3  A    between atoms: C_3  and  C_4 
REMARK    4  A    between atoms: C_7  and  O_6 
REMARK    5  A    between atoms: C_9  and  C_10 
REMARK    6  A    between atoms: N_15  and  C_14 
REMARK    7  A    between atoms: N_20  and  C_19 
REMARK       I    between atoms: C_22  and  N_20 
ROOT
ATOM      1  C   LIG d   1       3.201  85.780 114.077  0.00  0.00     0.161 C 
ATOM      2  C   LIG d   1       3.818  86.819 113.360  0.00  0.00     0.016 C 
ATOM      3  C   LIG d   1       4.762  87.704 113.930  0.00  0.00     0.038 C 
ATOM      4  C   LIG d   1       5.269  87.515 115.224  0.00  0.00     0.028 C 
ATOM      5  C   LIG d   1       4.303  86.785 116.152  0.00  0.00    -0.047 C 
ATOM      6  C   LIG d   1       3.824  85.489 115.458  0.00  0.00     0.091 C 
ENDROOT
BRANCH   1   7
ATOM      7  O   LIG d   1       3.176  84.582 113.276  0.00  0.00    -0.368 OA
BRANCH   7   8
ATOM      8  C   LIG d   1       1.972  84.357 112.502  0.00  0.00     0.119 C 
BRANCH   8   9
ATOM      9  C   LIG d   1       0.771  84.566 113.445  0.00  0.00     0.028 C 
ATOM     10  C   LIG d   1      -0.348  85.397 112.794  0.00  0.00     0.006 C 
ENDBRANCH   8   9
BRANCH   8  11
ATOM     11  C   LIG d   1       1.872  82.902 112.035  0.00  0.00     0.028 C 
ATOM     12  C   LIG d   1       1.490  81.937 113.169  0.00  0.00     0.006 C 
ENDBRANCH   8  11
ENDBRANCH   7   8
ENDBRANCH   1   7
BRANCH   6  13
ATOM     13  N   LIG d   1       2.812  84.757 116.263  0.00  0.00    -0.311 N 
ATOM     14  C   LIG d   1       2.839  83.438 116.451  0.00  0.00     0.210 C 
ATOM     15  C   LIG d   1       1.689  82.882 117.297  0.00  0.00     0.109 C 
ATOM     16  O   LIG d   1       3.724  82.681 116.026  0.00  0.00    -0.276 OA
ATOM     17  H   LIG d   1       2.075  85.298 116.671  0.00  0.00     0.149 HD
ENDBRANCH   6  13
BRANCH   5  18
ATOM     18  N   LIG d   1       5.010  86.533 117.422  0.00  0.00     0.381 N 
ATOM     19  H   LIG d   1       4.473  85.909 117.991  0.00  0.00    -0.090 HD
ATOM     20  H   LIG d   1       5.110  87.403 117.916  0.00  0.00    -0.090 HD
ATOM     21  H   LIG d   1       5.907  86.140 117.241  0.00  0.00    -0.090 HD
ENDBRANCH   5  18
BRANCH   3  22
ATOM     22  C   LIG d   1       5.179  88.817 113.215  0.00  0.00     0.382 C 
ATOM     23  O   LIG d   1       4.353  89.711 112.910  0.00  0.00    -0.241 OA
ATOM     24  O   LIG d   1       6.361  88.917 112.835  0.00  0.00    -0.241 OA
ENDBRANCH   3  22
TORSDOF 7
ENDMDL
MODEL 9
REMARK VINA RESULT:      -4.6     13.419     16.277
REMARK  7 active torsions:
REMARK  status: ('A' for Active; 'I' for Inactive)
REMARK    1  A    between atoms: C_2  and  C_3 
REMARK    2  A    between atoms: C_3  and  O_6 
REMARK    3  A    between atoms: C_3  and  C_4 
REMARK    4  A    between atoms: C_7  and  O_6 
REMARK    5  A    between atoms: C_9  and  C_10 
REMARK    6  A    between atoms: N_15  and  C_14 
REMARK    7  A    between atoms: N_20  and  C_19 
REMARK       I    between atoms: C_22  and  N_20 
ROOT
ATOM      1  C   LIG d   1       4.185  86.748 115.580  0.00  0.00     0.161 C 
ATOM      2  C   LIG d   1       3.970  85.370 115.407  0.00  0.00     0.016 C 
ATOM      3  C   LIG d   1       2.735  84.735 115.677  0.00  0.00     0.038 C 
ATOM      4  C   LIG d   1       1.581  85.465 115.996  0.00  0.00     0.028 C 
ATOM      5  C   LIG d   1       1.875  86.800 116.672  0.00  0.00    -0.047 C 
ATOM      6  C   LIG d   1       2.906  87.577 115.821  0.00  0.00     0.091 C 
ENDROOT
BRANCH   1   7
ATOM      7  O   LIG d   1       4.918  87.273 114.455  0.00  0.00    -0.368 OA
BRANCH   7   8
ATOM      8  C   LIG d   1       4.135  87.964 113.451  0.00  0.00     0.119 C 
BRANCH   8   9
ATOM      9  C   LIG d   1       4.289  87.188 112.129  0.00  0.00     0.028 C 
ATOM     10  C   LIG d   1       3.122  86.218 111.878  0.00  0.00     0.006 C 
ENDBRANCH   8   9
BRANCH   8  11
ATOM     11  C   LIG d   1       4.697  89.360 113.170  0.00  0.00     0.028 C 
ATOM     12  C   LIG d   1       6.214  89.449 113.401  0.00  0.00     0.006 C 
ENDBRANCH   8  11
ENDBRANCH   7   8
ENDBRANCH   1   7
BRANCH   6  13
ATOM     13  N   LIG d   1       3.313  88.858 116.454  0.00  0.00    -0.311 N 
ATOM     14  C   LIG d   1       2.758  90.032 116.157  0.00  0.00     0.210 C 
ATOM     15  C   LIG d   1       3.340  91.232 116.911  0.00  0.00     0.109 C 
ATOM     16  O   LIG d   1       1.817  90.188 115.365  0.00  0.00    -0.276 OA
ATOM     17  H   LIG d   1       4.049  88.818 117.132  0.00  0.00     0.149 HD
ENDBRANCH   6  13
BRANCH   5  18
ATOM     18  N   LIG d   1       0.594  87.515 116.823  0.00  0.00     0.381 N 
ATOM     19  H   LIG d   1       0.211  87.719 115.922  0.00  0.00    -0.090 HD
ATOM     20  H   LIG d   1       0.761  88.385 117.299  0.00  0.00    -0.090 HD
ATOM     21  H   LIG d   1      -0.047  86.960 117.347  0.00  0.00    -0.090 HD
ENDBRANCH   5  18
BRANCH   3  22
ATOM     22  C   LIG d   1       2.658  83.351 115.667  0.00  0.00     0.382 C 
ATOM     23  O   LIG d   1       1.607  82.784 115.281  0.00  0.00    -0.241 OA
ATOM     24  O   LIG d   1       3.610  82.662 116.081  0.00  0.00    -0.241 OA
ENDBRANCH   3  22
TORSDOF 7
ENDMDL
