MODEL 1
REMARK VINA RESULT:      -6.1      0.000      0.000
REMARK  7 active torsions:
REMARK  status: ('A' for Active; 'I' for Inactive)
REMARK    1  A    between atoms: C_2  and  C_3 
REMARK    2  A    between atoms: C_3  and  O_6 
REMARK    3  A    between atoms: C_3  and  C_4 
REMARK    4  A    between atoms: C_7  and  O_6 
REMARK    5  A    between atoms: C_9  and  C_10 
REMARK    6  A    between atoms: N_15  and  C_14 
REMARK    7  A    between atoms: N_20  and  C_19 
REMARK       I    between atoms: C_22  and  N_20 
ROOT
ATOM      1  C   LIG d   1      -7.034  77.434 117.209  0.00  0.00     0.161 C 
ATOM      2  C   LIG d   1      -8.258  78.091 117.420  0.00  0.00     0.016 C 
ATOM      3  C   LIG d   1      -8.363  79.479 117.667  0.00  0.00     0.038 C 
ATOM      4  C   LIG d   1      -7.256  80.336 117.569  0.00  0.00     0.028 C 
ATOM      5  C   LIG d   1      -5.928  79.644 117.857  0.00  0.00    -0.047 C 
ATOM      6  C   LIG d   1      -5.827  78.370 116.988  0.00  0.00     0.091 C 
ENDROOT
BRANCH   1   7
ATOM      7  O   LIG d   1      -7.159  76.509 116.110  0.00  0.00    -0.368 OA
BRANCH   7   8
ATOM      8  C   LIG d   1      -7.489  75.143 116.461  0.00  0.00     0.119 C 
BRANCH   8   9
ATOM      9  C   LIG d   1      -6.451  74.227 115.785  0.00  0.00     0.028 C 
ATOM     10  C   LIG d   1      -5.752  74.909 114.597  0.00  0.00     0.006 C 
ENDBRANCH   8   9
BRANCH   8  11
ATOM     11  C   LIG d   1      -8.841  74.728 115.872  0.00  0.00     0.028 C 
ATOM     12  C   LIG d   1      -9.051  73.205 115.879  0.00  0.00     0.006 C 
ENDBRANCH   8  11
ENDBRANCH   7   8
ENDBRANCH   1   7
BRANCH   6  13
ATOM     13  N   LIG d   1      -4.595  77.588 117.270  0.00  0.00    -0.311 N 
ATOM     14  C   LIG d   1      -3.644  77.366 116.364  0.00  0.00     0.210 C 
ATOM     15  C   LIG d   1      -2.466  76.519 116.856  0.00  0.00     0.109 C 
ATOM     16  O   LIG d   1      -3.649  77.818 115.208  0.00  0.00    -0.276 OA
ATOM     17  H   LIG d   1      -4.494  77.211 118.192  0.00  0.00     0.149 HD
ENDBRANCH   6  13
BRANCH   5  18
ATOM     18  N   LIG d   1      -4.852  80.616 117.585  0.00  0.00     0.381 N 
ATOM     19  H   LIG d   1      -4.740  80.730 116.597  0.00  0.00    -0.090 HD
ATOM     20  H   LIG d   1      -3.990  80.260 117.960  0.00  0.00    -0.090 HD
ATOM     21  H   LIG d   1      -5.069  81.492 118.005  0.00  0.00    -0.090 HD
ENDBRANCH   5  18
BRANCH   3  22
ATOM     22  C   LIG d   1      -9.580  80.018 118.055  0.00  0.00     0.382 C 
ATOM     23  O   LIG d   1     -10.503  79.263 118.446  0.00  0.00    -0.241 OA
ATOM     24  O   LIG d   1      -9.782  81.245 117.977  0.00  0.00    -0.241 OA
ENDBRANCH   3  22
TORSDOF 7
ENDMDL
MODEL 2
REMARK VINA RESULT:      -5.8      3.213      5.454
REMARK  7 active torsions:
REMARK  status: ('A' for Active; 'I' for Inactive)
REMARK    1  A    between atoms: C_2  and  C_3 
REMARK    2  A    between atoms: C_3  and  O_6 
REMARK    3  A    between atoms: C_3  and  C_4 
REMARK    4  A    between atoms: C_7  and  O_6 
REMARK    5  A    between atoms: C_9  and  C_10 
REMARK    6  A    between atoms: N_15  and  C_14 
REMARK    7  A    between atoms: N_20  and  C_19 
REMARK       I    between atoms: C_22  and  N_20 
ROOT
ATOM      1  C   LIG d   1      -4.815  74.851 116.478  0.00  0.00     0.161 C 
ATOM      2  C   LIG d   1      -5.609  73.746 116.126  0.00  0.00     0.016 C 
ATOM      3  C   LIG d   1      -7.020  73.791 116.061  0.00  0.00     0.038 C 
ATOM      4  C   LIG d   1      -7.731  74.993 116.198  0.00  0.00     0.028 C 
ATOM      5  C   LIG d   1      -7.008  76.030 117.051  0.00  0.00    -0.047 C 
ATOM      6  C   LIG d   1      -5.566  76.198 116.521  0.00  0.00     0.091 C 
ENDROOT
BRANCH   1   7
ATOM      7  O   LIG d   1      -3.680  74.938 115.594  0.00  0.00    -0.368 OA
BRANCH   7   8
ATOM      8  C   LIG d   1      -2.379  74.978 116.230  0.00  0.00     0.119 C 
BRANCH   8   9
ATOM      9  C   LIG d   1      -1.481  75.907 115.389  0.00  0.00     0.028 C 
ATOM     10  C   LIG d   1      -0.558  76.776 116.260  0.00  0.00     0.006 C 
ENDBRANCH   8   9
BRANCH   8  11
ATOM     11  C   LIG d   1      -1.696  73.608 116.188  0.00  0.00     0.028 C 
ATOM     12  C   LIG d   1      -1.240  73.212 114.774  0.00  0.00     0.006 C 
ENDBRANCH   8  11
ENDBRANCH   7   8
ENDBRANCH   1   7
BRANCH   6  13
ATOM     13  N   LIG d   1      -4.763  77.133 117.352  0.00  0.00    -0.311 N 
ATOM     14  C   LIG d   1      -4.061  78.145 116.845  0.00  0.00     0.210 C 
ATOM     15  C   LIG d   1      -3.288  78.976 117.874  0.00  0.00     0.109 C 
ATOM     16  O   LIG d   1      -4.031  78.454 115.644  0.00  0.00    -0.276 OA
ATOM     17  H   LIG d   1      -4.756  76.975 118.340  0.00  0.00     0.149 HD
ENDBRANCH   6  13
BRANCH   5  18
ATOM     18  N   LIG d   1      -7.794  77.277 116.995  0.00  0.00     0.381 N 
ATOM     19  H   LIG d   1      -8.152  77.411 116.071  0.00  0.00    -0.090 HD
ATOM     20  H   LIG d   1      -7.191  78.051 117.215  0.00  0.00    -0.090 HD
ATOM     21  H   LIG d   1      -8.545  77.236 117.648  0.00  0.00    -0.090 HD
ENDBRANCH   5  18
BRANCH   3  22
ATOM     22  C   LIG d   1      -7.738  72.616 115.897  0.00  0.00     0.382 C 
ATOM     23  O   LIG d   1      -8.989  72.626 115.997  0.00  0.00    -0.241 OA
ATOM     24  O   LIG d   1      -7.148  71.538 115.694  0.00  0.00    -0.241 OA
ENDBRANCH   3  22
TORSDOF 7
ENDMDL
MODEL 3
REMARK VINA RESULT:      -5.1      2.739      3.359
REMARK  7 active torsions:
REMARK  status: ('A' for Active; 'I' for Inactive)
REMARK    1  A    between atoms: C_2  and  C_3 
REMARK    2  A    between atoms: C_3  and  O_6 
REMARK    3  A    between atoms: C_3  and  C_4 
REMARK    4  A    between atoms: C_7  and  O_6 
REMARK    5  A    between atoms: C_9  and  C_10 
REMARK    6  A    between atoms: N_15  and  C_14 
REMARK    7  A    between atoms: N_20  and  C_19 
REMARK       I    between atoms: C_22  and  N_20 
ROOT
ATOM      1  C   LIG d   1      -4.762  76.817 116.768  0.00  0.00     0.161 C 
ATOM      2  C   LIG d   1      -5.261  78.109 117.006  0.00  0.00     0.016 C 
ATOM      3  C   LIG d   1      -4.451  79.267 117.010  0.00  0.00     0.038 C 
ATOM      4  C   LIG d   1      -3.103  79.231 116.623  0.00  0.00     0.028 C 
ATOM      5  C   LIG d   1      -2.440  77.879 116.865  0.00  0.00    -0.047 C 
ATOM      6  C   LIG d   1      -3.315  76.772 116.234  0.00  0.00     0.091 C 
ENDROOT
BRANCH   1   7
ATOM      7  O   LIG d   1      -5.646  76.109 115.877  0.00  0.00    -0.368 OA
BRANCH   7   8
ATOM      8  C   LIG d   1      -6.846  75.558 116.475  0.00  0.00     0.119 C 
BRANCH   8   9
ATOM      9  C   LIG d   1      -6.508  74.136 116.965  0.00  0.00     0.028 C 
ATOM     10  C   LIG d   1      -5.756  73.314 115.906  0.00  0.00     0.006 C 
ENDBRANCH   8   9
BRANCH   8  11
ATOM     11  C   LIG d   1      -7.954  75.376 115.434  0.00  0.00     0.028 C 
ATOM     12  C   LIG d   1      -9.183  74.642 115.995  0.00  0.00     0.006 C 
ENDBRANCH   8  11
ENDBRANCH   7   8
ENDBRANCH   1   7
BRANCH   6  13
ATOM     13  N   LIG d   1      -2.781  75.410 116.497  0.00  0.00    -0.311 N 
ATOM     14  C   LIG d   1      -1.917  74.793 115.693  0.00  0.00     0.210 C 
ATOM     15  C   LIG d   1      -1.510  73.385 116.139  0.00  0.00     0.109 C 
ATOM     16  O   LIG d   1      -1.425  75.290 114.669  0.00  0.00    -0.276 OA
ATOM     17  H   LIG d   1      -3.104  74.945 117.323  0.00  0.00     0.149 HD
ENDBRANCH   6  13
BRANCH   5  18
ATOM     18  N   LIG d   1      -1.082  77.940 116.291  0.00  0.00     0.381 N 
ATOM     19  H   LIG d   1      -0.607  77.075 116.452  0.00  0.00    -0.090 HD
ATOM     20  H   LIG d   1      -0.568  78.672 116.749  0.00  0.00    -0.090 HD
ATOM     21  H   LIG d   1      -1.133  78.122 115.313  0.00  0.00    -0.090 HD
ENDBRANCH   5  18
BRANCH   3  22
ATOM     22  C   LIG d   1      -4.980  80.474 117.443  0.00  0.00     0.382 C 
ATOM     23  O   LIG d   1      -5.567  80.540 118.550  0.00  0.00    -0.241 OA
ATOM     24  O   LIG d   1      -4.916  81.487 116.721  0.00  0.00    -0.241 OA
ENDBRANCH   3  22
TORSDOF 7
ENDMDL
MODEL 4
REMARK VINA RESULT:      -5.1      3.532      6.279
REMARK  7 active torsions:
REMARK  status: ('A' for Active; 'I' for Inactive)
REMARK    1  A    between atoms: C_2  and  C_3 
REMARK    2  A    between atoms: C_3  and  O_6 
REMARK    3  A    between atoms: C_3  and  C_4 
REMARK    4  A    between atoms: C_7  and  O_6 
REMARK    5  A    between atoms: C_9  and  C_10 
REMARK    6  A    between atoms: N_15  and  C_14 
REMARK    7  A    between atoms: N_20  and  C_19 
REMARK       I    between atoms: C_22  and  N_20 
ROOT
ATOM      1  C   LIG d   1      -2.919  76.829 114.594  0.00  0.00     0.161 C 
ATOM      2  C   LIG d   1      -2.661  75.625 115.272  0.00  0.00     0.016 C 
ATOM      3  C   LIG d   1      -1.592  75.458 116.181  0.00  0.00     0.038 C 
ATOM      4  C   LIG d   1      -0.792  76.535 116.592  0.00  0.00     0.028 C 
ATOM      5  C   LIG d   1      -0.698  77.649 115.555  0.00  0.00    -0.047 C 
ATOM      6  C   LIG d   1      -2.125  78.046 115.114  0.00  0.00     0.091 C 
ENDROOT
BRANCH   1   7
ATOM      7  O   LIG d   1      -4.333  77.107 114.614  0.00  0.00    -0.368 OA
BRANCH   7   8
ATOM      8  C   LIG d   1      -5.141  76.245 115.453  0.00  0.00     0.119 C 
BRANCH   8   9
ATOM      9  C   LIG d   1      -6.258  75.656 114.570  0.00  0.00     0.028 C 
ATOM     10  C   LIG d   1      -7.570  75.447 115.346  0.00  0.00     0.006 C 
ENDBRANCH   8   9
BRANCH   8  11
ATOM     11  C   LIG d   1      -5.863  77.045 116.541  0.00  0.00     0.028 C 
ATOM     12  C   LIG d   1      -4.925  77.490 117.675  0.00  0.00     0.006 C 
ENDBRANCH   8  11
ENDBRANCH   7   8
ENDBRANCH   1   7
BRANCH   6  13
ATOM     13  N   LIG d   1      -2.121  79.072 114.039  0.00  0.00    -0.311 N 
ATOM     14  C   LIG d   1      -2.774  80.230 114.128  0.00  0.00     0.210 C 
ATOM     15  C   LIG d   1      -2.654  81.136 112.899  0.00  0.00     0.109 C 
ATOM     16  O   LIG d   1      -3.414  80.606 115.121  0.00  0.00    -0.276 OA
ATOM     17  H   LIG d   1      -1.601  78.862 113.209  0.00  0.00     0.149 HD
ENDBRANCH   6  13
BRANCH   5  18
ATOM     18  N   LIG d   1       0.049  78.765 116.167  0.00  0.00     0.381 N 
ATOM     19  H   LIG d   1       0.773  79.068 115.546  0.00  0.00    -0.090 HD
ATOM     20  H   LIG d   1       0.477  78.442 117.017  0.00  0.00    -0.090 HD
ATOM     21  H   LIG d   1      -0.569  79.521 116.364  0.00  0.00    -0.090 HD
ENDBRANCH   5  18
BRANCH   3  22
ATOM     22  C   LIG d   1      -1.288  74.192 116.659  0.00  0.00     0.382 C 
ATOM     23  O   LIG d   1      -1.498  73.184 115.942  0.00  0.00    -0.241 OA
ATOM     24  O   LIG d   1      -0.849  74.042 117.815  0.00  0.00    -0.241 OA
ENDBRANCH   3  22
TORSDOF 7
ENDMDL
MODEL 5
REMARK VINA RESULT:      -5.0      2.790      5.165
REMARK  7 active torsions:
REMARK  status: ('A' for Active; 'I' for Inactive)
REMARK    1  A    between atoms: C_2  and  C_3 
REMARK    2  A    between atoms: C_3  and  O_6 
REMARK    3  A    between atoms: C_3  and  C_4 
REMARK    4  A    between atoms: C_7  and  O_6 
REMARK    5  A    between atoms: C_9  and  C_10 
REMARK    6  A    between atoms: N_15  and  C_14 
REMARK    7  A    between atoms: N_20  and  C_19 
REMARK       I    between atoms: C_22  and  N_20 
ROOT
ATOM      1  C   LIG d   1      -4.527  76.335 116.566  0.00  0.00     0.161 C 
ATOM      2  C   LIG d   1      -5.177  75.150 116.183  0.00  0.00     0.016 C 
ATOM      3  C   LIG d   1      -6.582  74.994 116.195  0.00  0.00     0.038 C 
ATOM      4  C   LIG d   1      -7.445  76.071 116.449  0.00  0.00     0.028 C 
ATOM      5  C   LIG d   1      -6.825  77.149 117.331  0.00  0.00    -0.047 C 
ATOM      6  C   LIG d   1      -5.456  77.555 116.740  0.00  0.00     0.091 C 
ENDROOT
BRANCH   1   7
ATOM      7  O   LIG d   1      -3.472  76.637 115.632  0.00  0.00    -0.368 OA
BRANCH   7   8
ATOM      8  C   LIG d   1      -2.119  76.483 116.128  0.00  0.00     0.119 C 
BRANCH   8   9
ATOM      9  C   LIG d   1      -1.547  75.188 115.518  0.00  0.00     0.028 C 
ATOM     10  C   LIG d   1      -1.320  74.094 116.574  0.00  0.00     0.006 C 
ENDBRANCH   8   9
BRANCH   8  11
ATOM     11  C   LIG d   1      -2.102  76.260 117.643  0.00  0.00     0.028 C 
ATOM     12  C   LIG d   1      -1.358  77.371 118.400  0.00  0.00     0.006 C 
ENDBRANCH   8  11
ENDBRANCH   7   8
ENDBRANCH   1   7
BRANCH   6  13
ATOM     13  N   LIG d   1      -4.743  78.545 117.588  0.00  0.00    -0.311 N 
ATOM     14  C   LIG d   1      -4.132  79.624 117.100  0.00  0.00     0.210 C 
ATOM     15  C   LIG d   1      -3.441  80.504 118.146  0.00  0.00     0.109 C 
ATOM     16  O   LIG d   1      -4.125  79.952 115.904  0.00  0.00    -0.276 OA
ATOM     17  H   LIG d   1      -4.727  78.373 118.574  0.00  0.00     0.149 HD
ENDBRANCH   6  13
BRANCH   5  18
ATOM     18  N   LIG d   1      -7.780  78.271 117.401  0.00  0.00     0.381 N 
ATOM     19  H   LIG d   1      -7.862  78.588 118.346  0.00  0.00    -0.090 HD
ATOM     20  H   LIG d   1      -8.682  77.950 117.096  0.00  0.00    -0.090 HD
ATOM     21  H   LIG d   1      -7.472  79.018 116.818  0.00  0.00    -0.090 HD
ENDBRANCH   5  18
BRANCH   3  22
ATOM     22  C   LIG d   1      -7.137  73.740 115.989  0.00  0.00     0.382 C 
ATOM     23  O   LIG d   1      -6.398  72.726 115.956  0.00  0.00    -0.241 OA
ATOM     24  O   LIG d   1      -8.360  73.615 115.793  0.00  0.00    -0.241 OA
ENDBRANCH   3  22
TORSDOF 7
ENDMDL
MODEL 6
REMARK VINA RESULT:      -4.9      1.882      4.936
REMARK  7 active torsions:
REMARK  status: ('A' for Active; 'I' for Inactive)
REMARK    1  A    between atoms: C_2  and  C_3 
REMARK    2  A    between atoms: C_3  and  O_6 
REMARK    3  A    between atoms: C_3  and  C_4 
REMARK    4  A    between atoms: C_7  and  O_6 
REMARK    5  A    between atoms: C_9  and  C_10 
REMARK    6  A    between atoms: N_15  and  C_14 
REMARK    7  A    between atoms: N_20  and  C_19 
REMARK       I    between atoms: C_22  and  N_20 
ROOT
ATOM      1  C   LIG d   1      -5.645  76.494 116.100  0.00  0.00     0.161 C 
ATOM      2  C   LIG d   1      -4.614  76.359 115.155  0.00  0.00     0.016 C 
ATOM      3  C   LIG d   1      -3.393  77.069 115.228  0.00  0.00     0.038 C 
ATOM      4  C   LIG d   1      -3.058  77.854 116.341  0.00  0.00     0.028 C 
ATOM      5  C   LIG d   1      -4.272  78.417 117.073  0.00  0.00    -0.047 C 
ATOM      6  C   LIG d   1      -5.253  77.262 117.379  0.00  0.00     0.091 C 
ENDROOT
BRANCH   1   7
ATOM      7  O   LIG d   1      -6.172  75.196 116.436  0.00  0.00    -0.368 OA
BRANCH   7   8
ATOM      8  C   LIG d   1      -7.285  74.732 115.632  0.00  0.00     0.119 C 
BRANCH   8   9
ATOM      9  C   LIG d   1      -8.524  75.552 116.040  0.00  0.00     0.028 C 
ATOM     10  C   LIG d   1      -9.798  74.693 116.112  0.00  0.00     0.006 C 
ENDBRANCH   8   9
BRANCH   8  11
ATOM     11  C   LIG d   1      -7.637  73.277 115.954  0.00  0.00     0.028 C 
ATOM     12  C   LIG d   1      -6.401  72.366 116.024  0.00  0.00     0.006 C 
ENDBRANCH   8  11
ENDBRANCH   7   8
ENDBRANCH   1   7
BRANCH   6  13
ATOM     13  N   LIG d   1      -6.506  77.738 118.020  0.00  0.00    -0.311 N 
ATOM     14  C   LIG d   1      -7.129  78.861 117.667  0.00  0.00     0.210 C 
ATOM     15  C   LIG d   1      -8.396  79.177 118.469  0.00  0.00     0.109 C 
ATOM     16  O   LIG d   1      -6.772  79.608 116.744  0.00  0.00    -0.276 OA
ATOM     17  H   LIG d   1      -6.883  77.176 118.758  0.00  0.00     0.149 HD
ENDBRANCH   6  13
BRANCH   5  18
ATOM     18  N   LIG d   1      -3.784  79.098 118.287  0.00  0.00     0.381 N 
ATOM     19  H   LIG d   1      -3.992  80.075 118.234  0.00  0.00    -0.090 HD
ATOM     20  H   LIG d   1      -2.786  78.990 118.342  0.00  0.00    -0.090 HD
ATOM     21  H   LIG d   1      -4.212  78.703 119.095  0.00  0.00    -0.090 HD
ENDBRANCH   5  18
BRANCH   3  22
ATOM     22  C   LIG d   1      -2.509  77.028 114.161  0.00  0.00     0.382 C 
ATOM     23  O   LIG d   1      -1.316  76.689 114.348  0.00  0.00    -0.241 OA
ATOM     24  O   LIG d   1      -2.879  77.368 113.021  0.00  0.00    -0.241 OA
ENDBRANCH   3  22
TORSDOF 7
ENDMDL
MODEL 7
REMARK VINA RESULT:      -4.8      2.525      6.396
REMARK  7 active torsions:
REMARK  status: ('A' for Active; 'I' for Inactive)
REMARK    1  A    between atoms: C_2  and  C_3 
REMARK    2  A    between atoms: C_3  and  O_6 
REMARK    3  A    between atoms: C_3  and  C_4 
REMARK    4  A    between atoms: C_7  and  O_6 
REMARK    5  A    between atoms: C_9  and  C_10 
REMARK    6  A    between atoms: N_15  and  C_14 
REMARK    7  A    between atoms: N_20  and  C_19 
REMARK       I    between atoms: C_22  and  N_20 
ROOT
ATOM      1  C   LIG d   1      -4.671  77.091 116.987  0.00  0.00     0.161 C 
ATOM      2  C   LIG d   1      -3.315  77.401 117.185  0.00  0.00     0.016 C 
ATOM      3  C   LIG d   1      -2.255  76.603 116.696  0.00  0.00     0.038 C 
ATOM      4  C   LIG d   1      -2.480  75.513 115.842  0.00  0.00     0.028 C 
ATOM      5  C   LIG d   1      -3.849  74.869 116.030  0.00  0.00    -0.047 C 
ATOM      6  C   LIG d   1      -4.935  75.967 115.963  0.00  0.00     0.091 C 
ENDROOT
BRANCH   1   7
ATOM      7  O   LIG d   1      -5.396  78.282 116.622  0.00  0.00    -0.368 OA
BRANCH   7   8
ATOM      8  C   LIG d   1      -6.147  78.921 117.684  0.00  0.00     0.119 C 
BRANCH   8   9
ATOM      9  C   LIG d   1      -7.643  78.678 117.404  0.00  0.00     0.028 C 
ATOM     10  C   LIG d   1      -8.495  79.937 117.635  0.00  0.00     0.006 C 
ENDBRANCH   8   9
BRANCH   8  11
ATOM     11  C   LIG d   1      -5.971  80.442 117.654  0.00  0.00     0.028 C 
ATOM     12  C   LIG d   1      -4.556  80.869 117.231  0.00  0.00     0.006 C 
ENDBRANCH   8  11
ENDBRANCH   7   8
ENDBRANCH   1   7
BRANCH   6  13
ATOM     13  N   LIG d   1      -6.298  75.434 116.222  0.00  0.00    -0.311 N 
ATOM     14  C   LIG d   1      -7.273  75.443 115.315  0.00  0.00     0.210 C 
ATOM     15  C   LIG d   1      -8.607  74.863 115.795  0.00  0.00     0.109 C 
ATOM     16  O   LIG d   1      -7.151  75.848 114.149  0.00  0.00    -0.276 OA
ATOM     17  H   LIG d   1      -6.475  75.058 117.133  0.00  0.00     0.149 HD
ENDBRANCH   6  13
BRANCH   5  18
ATOM     18  N   LIG d   1      -4.004  73.838 114.986  0.00  0.00     0.381 N 
ATOM     19  H   LIG d   1      -4.846  74.002 114.471  0.00  0.00    -0.090 HD
ATOM     20  H   LIG d   1      -4.073  72.938 115.426  0.00  0.00    -0.090 HD
ATOM     21  H   LIG d   1      -3.221  73.856 114.370  0.00  0.00    -0.090 HD
ENDBRANCH   5  18
BRANCH   3  22
ATOM     22  C   LIG d   1      -0.954  76.869 117.095  0.00  0.00     0.382 C 
ATOM     23  O   LIG d   1      -0.155  75.924 117.299  0.00  0.00    -0.241 OA
ATOM     24  O   LIG d   1      -0.582  78.041 117.297  0.00  0.00    -0.241 OA
ENDBRANCH   3  22
TORSDOF 7
ENDMDL
MODEL 8
REMARK VINA RESULT:      -4.7     11.105     13.733
REMARK  7 active torsions:
REMARK  status: ('A' for Active; 'I' for Inactive)
REMARK    1  A    between atoms: C_2  and  C_3 
REMARK    2  A    between atoms: C_3  and  O_6 
REMARK    3  A    between atoms: C_3  and  C_4 
REMARK    4  A    between atoms: C_7  and  O_6 
REMARK    5  A    between atoms: C_9  and  C_10 
REMARK    6  A    between atoms: N_15  and  C_14 
REMARK    7  A    between atoms: N_20  and  C_19 
REMARK       I    between atoms: C_22  and  N_20 
ROOT
ATOM      1  C   LIG d   1       2.417  86.670 114.616  0.00  0.00     0.161 C 
ATOM      2  C   LIG d   1       3.122  87.840 114.290  0.00  0.00     0.016 C 
ATOM      3  C   LIG d   1       4.047  87.919 113.223  0.00  0.00     0.038 C 
ATOM      4  C   LIG d   1       4.218  86.868 112.310  0.00  0.00     0.028 C 
ATOM      5  C   LIG d   1       3.902  85.497 112.899  0.00  0.00    -0.047 C 
ATOM      6  C   LIG d   1       2.508  85.545 113.564  0.00  0.00     0.091 C 
ENDROOT
BRANCH   1   7
ATOM      7  O   LIG d   1       1.039  86.990 114.890  0.00  0.00    -0.368 OA
BRANCH   7   8
ATOM      8  C   LIG d   1       0.625  86.894 116.275  0.00  0.00     0.119 C 
BRANCH   8   9
ATOM      9  C   LIG d   1       1.835  86.391 117.086  0.00  0.00     0.028 C 
ATOM     10  C   LIG d   1       1.476  86.087 118.550  0.00  0.00     0.006 C 
ENDBRANCH   8   9
BRANCH   8  11
ATOM     11  C   LIG d   1      -0.458  85.827 116.461  0.00  0.00     0.028 C 
ATOM     12  C   LIG d   1      -1.102  85.395 115.134  0.00  0.00     0.006 C 
ENDBRANCH   8  11
ENDBRANCH   7   8
ENDBRANCH   1   7
BRANCH   6  13
ATOM     13  N   LIG d   1       2.157  84.268 114.238  0.00  0.00    -0.311 N 
ATOM     14  C   LIG d   1       1.513  83.272 113.632  0.00  0.00     0.210 C 
ATOM     15  C   LIG d   1       1.232  82.052 114.515  0.00  0.00     0.109 C 
ATOM     16  O   LIG d   1       1.175  83.270 112.439  0.00  0.00    -0.276 OA
ATOM     17  H   LIG d   1       2.421  84.173 115.199  0.00  0.00     0.149 HD
ENDBRANCH   6  13
BRANCH   5  18
ATOM     18  N   LIG d   1       3.988  84.512 111.805  0.00  0.00     0.381 N 
ATOM     19  H   LIG d   1       4.424  83.675 112.137  0.00  0.00    -0.090 HD
ATOM     20  H   LIG d   1       4.556  84.892 111.069  0.00  0.00    -0.090 HD
ATOM     21  H   LIG d   1       3.077  84.306 111.460  0.00  0.00    -0.090 HD
ENDBRANCH   5  18
BRANCH   3  22
ATOM     22  C   LIG d   1       4.842  89.047 113.086  0.00  0.00     0.382 C 
ATOM     23  O   LIG d   1       6.070  88.924 112.858  0.00  0.00    -0.241 OA
ATOM     24  O   LIG d   1       4.356  90.185 113.231  0.00  0.00    -0.241 OA
ENDBRANCH   3  22
TORSDOF 7
ENDMDL
MODEL 9
REMARK VINA RESULT:      -4.6      9.284     11.928
REMARK  7 active torsions:
REMARK  status: ('A' for Active; 'I' for Inactive)
REMARK    1  A    between atoms: C_2  and  C_3 
REMARK    2  A    between atoms: C_3  and  O_6 
REMARK    3  A    between atoms: C_3  and  C_4 
REMARK    4  A    between atoms: C_7  and  O_6 
REMARK    5  A    between atoms: C_9  and  C_10 
REMARK    6  A    between atoms: N_15  and  C_14 
REMARK    7  A    between atoms: N_20  and  C_19 
REMARK       I    between atoms: C_22  and  N_20 
ROOT
ATOM      1  C   LIG d   1       0.242  85.302 112.858  0.00  0.00     0.161 C 
ATOM      2  C   LIG d   1      -0.719  84.278 112.799  0.00  0.00     0.016 C 
ATOM      3  C   LIG d   1      -0.403  82.931 112.512  0.00  0.00     0.038 C 
ATOM      4  C   LIG d   1       0.923  82.485 112.412  0.00  0.00     0.028 C 
ATOM      5  C   LIG d   1       1.895  83.571 111.964  0.00  0.00    -0.047 C 
ATOM      6  C   LIG d   1       1.706  84.815 112.861  0.00  0.00     0.091 C 
ENDROOT
BRANCH   1   7
ATOM      7  O   LIG d   1      -0.009  86.143 114.001  0.00  0.00    -0.368 OA
BRANCH   7   8
ATOM      8  C   LIG d   1       0.634  85.747 115.237  0.00  0.00     0.119 C 
BRANCH   8   9
ATOM      9  C   LIG d   1      -0.472  85.308 116.216  0.00  0.00     0.028 C 
ATOM     10  C   LIG d   1      -0.479  83.788 116.451  0.00  0.00     0.006 C 
ENDBRANCH   8   9
BRANCH   8  11
ATOM     11  C   LIG d   1       1.324  86.936 115.912  0.00  0.00     0.028 C 
ATOM     12  C   LIG d   1       0.699  87.296 117.269  0.00  0.00     0.006 C 
ENDBRANCH   8  11
ENDBRANCH   7   8
ENDBRANCH   1   7
BRANCH   6  13
ATOM     13  N   LIG d   1       2.560  85.956 112.437  0.00  0.00    -0.311 N 
ATOM     14  C   LIG d   1       3.758  86.209 112.962  0.00  0.00     0.210 C 
ATOM     15  C   LIG d   1       4.463  87.446 112.396  0.00  0.00     0.109 C 
ATOM     16  O   LIG d   1       4.317  85.509 113.819  0.00  0.00    -0.276 OA
ATOM     17  H   LIG d   1       2.197  86.557 111.724  0.00  0.00     0.149 HD
ENDBRANCH   6  13
BRANCH   5  18
ATOM     18  N   LIG d   1       3.257  83.008 112.035  0.00  0.00     0.381 N 
ATOM     19  H   LIG d   1       3.249  82.060 111.717  0.00  0.00    -0.090 HD
ATOM     20  H   LIG d   1       3.562  83.017 112.993  0.00  0.00    -0.090 HD
ATOM     21  H   LIG d   1       3.879  83.549 111.476  0.00  0.00    -0.090 HD
ENDBRANCH   5  18
BRANCH   3  22
ATOM     22  C   LIG d   1      -1.423  82.020 112.282  0.00  0.00     0.382 C 
ATOM     23  O   LIG d   1      -1.159  80.890 111.805  0.00  0.00    -0.241 OA
ATOM     24  O   LIG d   1      -2.609  82.330 112.504  0.00  0.00    -0.241 OA
ENDBRANCH   3  22
TORSDOF 7
ENDMDL
