MODEL 1
REMARK VINA RESULT:      -4.7      0.000      0.000
REMARK  7 active torsions:
REMARK  status: ('A' for Active; 'I' for Inactive)
REMARK    1  A    between atoms: C_2  and  C_3 
REMARK    2  A    between atoms: C_3  and  O_6 
REMARK    3  A    between atoms: C_3  and  C_4 
REMARK    4  A    between atoms: C_7  and  O_6 
REMARK    5  A    between atoms: C_9  and  C_10 
REMARK    6  A    between atoms: N_15  and  C_14 
REMARK    7  A    between atoms: N_20  and  C_19 
REMARK       I    between atoms: C_22  and  N_20 
ROOT
ATOM      1  C   LIG d   1       5.251  85.238 114.144  0.00  0.00     0.161 C 
ATOM      2  C   LIG d   1       4.798  86.269 113.304  0.00  0.00     0.016 C 
ATOM      3  C   LIG d   1       4.945  87.642 113.609  0.00  0.00     0.038 C 
ATOM      4  C   LIG d   1       5.695  88.080 114.710  0.00  0.00     0.028 C 
ATOM      5  C   LIG d   1       5.738  87.073 115.854  0.00  0.00    -0.047 C 
ATOM      6  C   LIG d   1       6.170  85.698 115.295  0.00  0.00     0.091 C 
ENDROOT
BRANCH   1   7
ATOM      7  O   LIG d   1       5.903  84.220 113.359  0.00  0.00    -0.368 OA
BRANCH   7   8
ATOM      8  C   LIG d   1       5.170  82.982 113.185  0.00  0.00     0.119 C 
BRANCH   8   9
ATOM      9  C   LIG d   1       4.486  83.038 111.805  0.00  0.00     0.028 C 
ATOM     10  C   LIG d   1       2.961  83.207 111.912  0.00  0.00     0.006 C 
ENDBRANCH   8   9
BRANCH   8  11
ATOM     11  C   LIG d   1       4.028  82.864 114.199  0.00  0.00     0.028 C 
ATOM     12  C   LIG d   1       4.216  81.692 115.175  0.00  0.00     0.006 C 
ENDBRANCH   8  11
ENDBRANCH   7   8
ENDBRANCH   1   7
BRANCH   6  13
ATOM     13  N   LIG d   1       6.157  84.634 116.333  0.00  0.00    -0.311 N 
ATOM     14  C   LIG d   1       7.246  83.972 116.718  0.00  0.00     0.210 C 
ATOM     15  C   LIG d   1       7.008  82.901 117.787  0.00  0.00     0.109 C 
ATOM     16  O   LIG d   1       8.392  84.191 116.298  0.00  0.00    -0.276 OA
ATOM     17  H   LIG d   1       5.273  84.414 116.749  0.00  0.00     0.149 HD
ENDBRANCH   6  13
BRANCH   5  18
ATOM     18  N   LIG d   1       6.663  87.598 116.876  0.00  0.00     0.381 N 
ATOM     19  H   LIG d   1       6.318  87.381 117.789  0.00  0.00    -0.090 HD
ATOM     20  H   LIG d   1       6.713  88.597 116.786  0.00  0.00    -0.090 HD
ATOM     21  H   LIG d   1       7.569  87.200 116.753  0.00  0.00    -0.090 HD
ENDBRANCH   5  18
BRANCH   3  22
ATOM     22  C   LIG d   1       4.303  88.591 112.829  0.00  0.00     0.382 C 
ATOM     23  O   LIG d   1       4.731  89.771 112.798  0.00  0.00    -0.241 OA
ATOM     24  O   LIG d   1       3.276  88.295 112.190  0.00  0.00    -0.241 OA
ENDBRANCH   3  22
TORSDOF 7
ENDMDL
MODEL 2
REMARK VINA RESULT:      -4.5      3.157      4.272
REMARK  7 active torsions:
REMARK  status: ('A' for Active; 'I' for Inactive)
REMARK    1  A    between atoms: C_2  and  C_3 
REMARK    2  A    between atoms: C_3  and  O_6 
REMARK    3  A    between atoms: C_3  and  C_4 
REMARK    4  A    between atoms: C_7  and  O_6 
REMARK    5  A    between atoms: C_9  and  C_10 
REMARK    6  A    between atoms: N_15  and  C_14 
REMARK    7  A    between atoms: N_20  and  C_19 
REMARK       I    between atoms: C_22  and  N_20 
ROOT
ATOM      1  C   LIG d   1       3.007  87.119 114.518  0.00  0.00     0.161 C 
ATOM      2  C   LIG d   1       2.847  88.138 115.471  0.00  0.00     0.016 C 
ATOM      3  C   LIG d   1       3.698  89.264 115.558  0.00  0.00     0.038 C 
ATOM      4  C   LIG d   1       4.683  89.524 114.593  0.00  0.00     0.028 C 
ATOM      5  C   LIG d   1       5.207  88.266 113.908  0.00  0.00    -0.047 C 
ATOM      6  C   LIG d   1       4.008  87.441 113.388  0.00  0.00     0.091 C 
ENDROOT
BRANCH   1   7
ATOM      7  O   LIG d   1       1.725  86.762 113.964  0.00  0.00    -0.368 OA
BRANCH   7   8
ATOM      8  C   LIG d   1       0.990  85.732 114.671  0.00  0.00     0.119 C 
BRANCH   8   9
ATOM      9  C   LIG d   1       1.676  84.385 114.371  0.00  0.00     0.028 C 
ATOM     10  C   LIG d   1       2.034  83.612 115.651  0.00  0.00     0.006 C 
ENDBRANCH   8   9
BRANCH   8  11
ATOM     11  C   LIG d   1      -0.435  85.591 114.127  0.00  0.00     0.028 C 
ATOM     12  C   LIG d   1      -0.482  85.522 112.592  0.00  0.00     0.006 C 
ENDBRANCH   8  11
ENDBRANCH   7   8
ENDBRANCH   1   7
BRANCH   6  13
ATOM     13  N   LIG d   1       4.428  86.153 112.778  0.00  0.00    -0.311 N 
ATOM     14  C   LIG d   1       5.103  85.214 113.439  0.00  0.00     0.210 C 
ATOM     15  C   LIG d   1       5.454  83.970 112.617  0.00  0.00     0.109 C 
ATOM     16  O   LIG d   1       5.416  85.280 114.637  0.00  0.00    -0.276 OA
ATOM     17  H   LIG d   1       4.187  86.003 111.818  0.00  0.00     0.149 HD
ENDBRANCH   6  13
BRANCH   5  18
ATOM     18  N   LIG d   1       6.124  88.693 112.834  0.00  0.00     0.381 N 
ATOM     19  H   LIG d   1       6.789  89.346 113.196  0.00  0.00    -0.090 HD
ATOM     20  H   LIG d   1       5.592  89.151 112.115  0.00  0.00    -0.090 HD
ATOM     21  H   LIG d   1       6.597  87.902 112.455  0.00  0.00    -0.090 HD
ENDBRANCH   5  18
BRANCH   3  22
ATOM     22  C   LIG d   1       3.594  90.123 116.641  0.00  0.00     0.382 C 
ATOM     23  O   LIG d   1       4.012  91.302 116.549  0.00  0.00    -0.241 OA
ATOM     24  O   LIG d   1       3.127  89.720 117.724  0.00  0.00    -0.241 OA
ENDBRANCH   3  22
TORSDOF 7
ENDMDL
MODEL 3
REMARK VINA RESULT:      -4.4      4.295      6.357
REMARK  7 active torsions:
REMARK  status: ('A' for Active; 'I' for Inactive)
REMARK    1  A    between atoms: C_2  and  C_3 
REMARK    2  A    between atoms: C_3  and  O_6 
REMARK    3  A    between atoms: C_3  and  C_4 
REMARK    4  A    between atoms: C_7  and  O_6 
REMARK    5  A    between atoms: C_9  and  C_10 
REMARK    6  A    between atoms: N_15  and  C_14 
REMARK    7  A    between atoms: N_20  and  C_19 
REMARK       I    between atoms: C_22  and  N_20 
ROOT
ATOM      1  C   LIG d   1       2.565  87.932 115.788  0.00  0.00     0.161 C 
ATOM      2  C   LIG d   1       3.269  89.019 116.332  0.00  0.00     0.016 C 
ATOM      3  C   LIG d   1       4.415  89.585 115.728  0.00  0.00     0.038 C 
ATOM      4  C   LIG d   1       4.848  89.197 114.451  0.00  0.00     0.028 C 
ATOM      5  C   LIG d   1       4.470  87.764 114.093  0.00  0.00    -0.047 C 
ATOM      6  C   LIG d   1       2.957  87.567 114.340  0.00  0.00     0.091 C 
ENDROOT
BRANCH   1   7
ATOM      7  O   LIG d   1       1.147  88.174 115.876  0.00  0.00    -0.368 OA
BRANCH   7   8
ATOM      8  C   LIG d   1       0.670  88.711 117.135  0.00  0.00     0.119 C 
BRANCH   8   9
ATOM      9  C   LIG d   1      -0.265  87.658 117.763  0.00  0.00     0.028 C 
ATOM     10  C   LIG d   1      -1.736  87.870 117.368  0.00  0.00     0.006 C 
ENDBRANCH   8   9
BRANCH   8  11
ATOM     11  C   LIG d   1      -0.204  89.950 116.917  0.00  0.00     0.028 C 
ATOM     12  C   LIG d   1       0.529  91.261 117.242  0.00  0.00     0.006 C 
ENDBRANCH   8  11
ENDBRANCH   7   8
ENDBRANCH   1   7
BRANCH   6  13
ATOM     13  N   LIG d   1       2.519  86.168 114.095  0.00  0.00    -0.311 N 
ATOM     14  C   LIG d   1       1.613  85.834 113.178  0.00  0.00     0.210 C 
ATOM     15  C   LIG d   1       1.292  84.338 113.102  0.00  0.00     0.109 C 
ATOM     16  O   LIG d   1       1.069  86.630 112.398  0.00  0.00    -0.276 OA
ATOM     17  H   LIG d   1       2.934  85.455 114.662  0.00  0.00     0.149 HD
ENDBRANCH   6  13
BRANCH   5  18
ATOM     18  N   LIG d   1       4.861  87.538 112.689  0.00  0.00     0.381 N 
ATOM     19  H   LIG d   1       5.284  86.636 112.596  0.00  0.00    -0.090 HD
ATOM     20  H   LIG d   1       5.536  88.233 112.423  0.00  0.00    -0.090 HD
ATOM     21  H   LIG d   1       4.061  87.599 112.098  0.00  0.00    -0.090 HD
ENDBRANCH   5  18
BRANCH   3  22
ATOM     22  C   LIG d   1       5.163  90.524 116.421  0.00  0.00     0.382 C 
ATOM     23  O   LIG d   1       6.340  90.258 116.764  0.00  0.00    -0.241 OA
ATOM     24  O   LIG d   1       4.662  91.617 116.745  0.00  0.00    -0.241 OA
ENDBRANCH   3  22
TORSDOF 7
ENDMDL
MODEL 4
REMARK VINA RESULT:      -4.1      2.986      4.687
REMARK  7 active torsions:
REMARK  status: ('A' for Active; 'I' for Inactive)
REMARK    1  A    between atoms: C_2  and  C_3 
REMARK    2  A    between atoms: C_3  and  O_6 
REMARK    3  A    between atoms: C_3  and  C_4 
REMARK    4  A    between atoms: C_7  and  O_6 
REMARK    5  A    between atoms: C_9  and  C_10 
REMARK    6  A    between atoms: N_15  and  C_14 
REMARK    7  A    between atoms: N_20  and  C_19 
REMARK       I    between atoms: C_22  and  N_20 
ROOT
ATOM      1  C   LIG d   1       3.186  87.102 113.945  0.00  0.00     0.161 C 
ATOM      2  C   LIG d   1       3.466  85.914 113.250  0.00  0.00     0.016 C 
ATOM      3  C   LIG d   1       4.641  85.153 113.450  0.00  0.00     0.038 C 
ATOM      4  C   LIG d   1       5.551  85.451 114.475  0.00  0.00     0.028 C 
ATOM      5  C   LIG d   1       5.564  86.925 114.864  0.00  0.00    -0.047 C 
ATOM      6  C   LIG d   1       4.115  87.382 115.146  0.00  0.00     0.091 C 
ENDROOT
BRANCH   1   7
ATOM      7  O   LIG d   1       1.808  87.109 114.366  0.00  0.00    -0.368 OA
BRANCH   7   8
ATOM      8  C   LIG d   1       1.277  85.845 114.833  0.00  0.00     0.119 C 
BRANCH   8   9
ATOM      9  C   LIG d   1      -0.045  85.592 114.083  0.00  0.00     0.028 C 
ATOM     10  C   LIG d   1      -0.152  84.153 113.551  0.00  0.00     0.006 C 
ENDBRANCH   8   9
BRANCH   8  11
ATOM     11  C   LIG d   1       0.896  85.914 116.315  0.00  0.00     0.028 C 
ATOM     12  C   LIG d   1       1.872  85.142 117.218  0.00  0.00     0.006 C 
ENDBRANCH   8  11
ENDBRANCH   7   8
ENDBRANCH   1   7
BRANCH   6  13
ATOM     13  N   LIG d   1       4.028  88.834 115.452  0.00  0.00    -0.311 N 
ATOM     14  C   LIG d   1       4.060  89.325 116.690  0.00  0.00     0.210 C 
ATOM     15  C   LIG d   1       3.936  90.849 116.784  0.00  0.00     0.109 C 
ATOM     16  O   LIG d   1       4.212  88.646 117.717  0.00  0.00    -0.276 OA
ATOM     17  H   LIG d   1       3.934  89.459 114.676  0.00  0.00     0.149 HD
ENDBRANCH   6  13
BRANCH   5  18
ATOM     18  N   LIG d   1       6.453  87.069 116.032  0.00  0.00     0.381 N 
ATOM     19  H   LIG d   1       6.125  86.493 116.781  0.00  0.00    -0.090 HD
ATOM     20  H   LIG d   1       6.434  88.026 116.339  0.00  0.00    -0.090 HD
ATOM     21  H   LIG d   1       7.383  86.810 115.787  0.00  0.00    -0.090 HD
ENDBRANCH   5  18
BRANCH   3  22
ATOM     22  C   LIG d   1       4.934  84.104 112.592  0.00  0.00     0.382 C 
ATOM     23  O   LIG d   1       4.056  83.672 111.806  0.00  0.00    -0.241 OA
ATOM     24  O   LIG d   1       6.051  83.554 112.626  0.00  0.00    -0.241 OA
ENDBRANCH   3  22
TORSDOF 7
ENDMDL
MODEL 5
REMARK VINA RESULT:      -4.0      2.682      6.217
REMARK  7 active torsions:
REMARK  status: ('A' for Active; 'I' for Inactive)
REMARK    1  A    between atoms: C_2  and  C_3 
REMARK    2  A    between atoms: C_3  and  O_6 
REMARK    3  A    between atoms: C_3  and  C_4 
REMARK    4  A    between atoms: C_7  and  O_6 
REMARK    5  A    between atoms: C_9  and  C_10 
REMARK    6  A    between atoms: N_15  and  C_14 
REMARK    7  A    between atoms: N_20  and  C_19 
REMARK       I    between atoms: C_22  and  N_20 
ROOT
ATOM      1  C   LIG d   1       3.200  86.099 114.855  0.00  0.00     0.161 C 
ATOM      2  C   LIG d   1       4.360  85.892 115.619  0.00  0.00     0.016 C 
ATOM      3  C   LIG d   1       5.417  85.044 115.214  0.00  0.00     0.038 C 
ATOM      4  C   LIG d   1       5.453  84.460 113.939  0.00  0.00     0.028 C 
ATOM      5  C   LIG d   1       4.070  84.237 113.336  0.00  0.00    -0.047 C 
ATOM      6  C   LIG d   1       3.271  85.559 113.411  0.00  0.00     0.091 C 
ENDROOT
BRANCH   1   7
ATOM      7  O   LIG d   1       2.863  87.501 114.848  0.00  0.00    -0.368 OA
BRANCH   7   8
ATOM      8  C   LIG d   1       3.974  88.424 114.960  0.00  0.00     0.119 C 
BRANCH   8   9
ATOM      9  C   LIG d   1       3.508  89.607 115.830  0.00  0.00     0.028 C 
ATOM     10  C   LIG d   1       4.451  89.870 117.017  0.00  0.00     0.006 C 
ENDBRANCH   8   9
BRANCH   8  11
ATOM     11  C   LIG d   1       4.329  89.035 113.601  0.00  0.00     0.028 C 
ATOM     12  C   LIG d   1       5.650  88.494 113.031  0.00  0.00     0.006 C 
ENDBRANCH   8  11
ENDBRANCH   7   8
ENDBRANCH   1   7
BRANCH   6  13
ATOM     13  N   LIG d   1       1.877  85.407 112.919  0.00  0.00    -0.311 N 
ATOM     14  C   LIG d   1       1.250  86.332 112.193  0.00  0.00     0.210 C 
ATOM     15  C   LIG d   1      -0.190  85.983 111.806  0.00  0.00     0.109 C 
ATOM     16  O   LIG d   1       1.762  87.393 111.807  0.00  0.00    -0.276 OA
ATOM     17  H   LIG d   1       1.397  84.561 113.160  0.00  0.00     0.149 HD
ENDBRANCH   6  13
BRANCH   5  18
ATOM     18  N   LIG d   1       4.258  83.753 111.956  0.00  0.00     0.381 N 
ATOM     19  H   LIG d   1       4.071  84.493 111.309  0.00  0.00    -0.090 HD
ATOM     20  H   LIG d   1       3.607  83.009 111.780  0.00  0.00    -0.090 HD
ATOM     21  H   LIG d   1       5.191  83.424 111.834  0.00  0.00    -0.090 HD
ENDBRANCH   5  18
BRANCH   3  22
ATOM     22  C   LIG d   1       6.435  84.741 116.106  0.00  0.00     0.382 C 
ATOM     23  O   LIG d   1       6.733  85.552 117.016  0.00  0.00    -0.241 OA
ATOM     24  O   LIG d   1       7.087  83.687 115.985  0.00  0.00    -0.241 OA
ENDBRANCH   3  22
TORSDOF 7
ENDMDL
MODEL 6
REMARK VINA RESULT:      -3.9      3.192      5.837
REMARK  7 active torsions:
REMARK  status: ('A' for Active; 'I' for Inactive)
REMARK    1  A    between atoms: C_2  and  C_3 
REMARK    2  A    between atoms: C_3  and  O_6 
REMARK    3  A    between atoms: C_3  and  C_4 
REMARK    4  A    between atoms: C_7  and  O_6 
REMARK    5  A    between atoms: C_9  and  C_10 
REMARK    6  A    between atoms: N_15  and  C_14 
REMARK    7  A    between atoms: N_20  and  C_19 
REMARK       I    between atoms: C_22  and  N_20 
ROOT
ATOM      1  C   LIG d   1       3.954  85.311 115.019  0.00  0.00     0.161 C 
ATOM      2  C   LIG d   1       4.657  84.598 114.034  0.00  0.00     0.016 C 
ATOM      3  C   LIG d   1       4.049  83.655 113.173  0.00  0.00     0.038 C 
ATOM      4  C   LIG d   1       2.659  83.471 113.139  0.00  0.00     0.028 C 
ATOM      5  C   LIG d   1       1.972  83.799 114.460  0.00  0.00    -0.047 C 
ATOM      6  C   LIG d   1       2.418  85.205 114.922  0.00  0.00     0.091 C 
ENDROOT
BRANCH   1   7
ATOM      7  O   LIG d   1       4.363  86.693 115.007  0.00  0.00    -0.368 OA
BRANCH   7   8
ATOM      8  C   LIG d   1       3.514  87.602 114.264  0.00  0.00     0.119 C 
BRANCH   8   9
ATOM      9  C   LIG d   1       4.212  87.895 112.922  0.00  0.00     0.028 C 
ATOM     10  C   LIG d   1       5.539  88.651 113.103  0.00  0.00     0.006 C 
ENDBRANCH   8   9
BRANCH   8  11
ATOM     11  C   LIG d   1       3.401  88.959 114.966  0.00  0.00     0.028 C 
ATOM     12  C   LIG d   1       3.415  88.840 116.498  0.00  0.00     0.006 C 
ENDBRANCH   8  11
ENDBRANCH   7   8
ENDBRANCH   1   7
BRANCH   6  13
ATOM     13  N   LIG d   1       1.857  85.570 116.249  0.00  0.00    -0.311 N 
ATOM     14  C   LIG d   1       0.739  86.278 116.403  0.00  0.00     0.210 C 
ATOM     15  C   LIG d   1       0.348  86.561 117.856  0.00  0.00     0.109 C 
ATOM     16  O   LIG d   1       0.017  86.671 115.474  0.00  0.00    -0.276 OA
ATOM     17  H   LIG d   1       2.362  85.265 117.057  0.00  0.00     0.149 HD
ENDBRANCH   6  13
BRANCH   5  18
ATOM     18  N   LIG d   1       0.516  83.697 114.242  0.00  0.00     0.381 N 
ATOM     19  H   LIG d   1       0.065  83.425 115.093  0.00  0.00    -0.090 HD
ATOM     20  H   LIG d   1       0.340  82.989 113.551  0.00  0.00    -0.090 HD
ATOM     21  H   LIG d   1       0.156  84.572 113.931  0.00  0.00    -0.090 HD
ENDBRANCH   5  18
BRANCH   3  22
ATOM     22  C   LIG d   1       4.840  82.855 112.362  0.00  0.00     0.382 C 
ATOM     23  O   LIG d   1       4.347  81.845 111.806  0.00  0.00    -0.241 OA
ATOM     24  O   LIG d   1       6.051  83.106 112.216  0.00  0.00    -0.241 OA
ENDBRANCH   3  22
TORSDOF 7
ENDMDL
MODEL 7
REMARK VINA RESULT:      -3.8      2.997      4.870
REMARK  7 active torsions:
REMARK  status: ('A' for Active; 'I' for Inactive)
REMARK    1  A    between atoms: C_2  and  C_3 
REMARK    2  A    between atoms: C_3  and  O_6 
REMARK    3  A    between atoms: C_3  and  C_4 
REMARK    4  A    between atoms: C_7  and  O_6 
REMARK    5  A    between atoms: C_9  and  C_10 
REMARK    6  A    between atoms: N_15  and  C_14 
REMARK    7  A    between atoms: N_20  and  C_19 
REMARK       I    between atoms: C_22  and  N_20 
ROOT
ATOM      1  C   LIG d   1       3.352  84.991 113.591  0.00  0.00     0.161 C 
ATOM      2  C   LIG d   1       2.189  85.379 112.906  0.00  0.00     0.016 C 
ATOM      3  C   LIG d   1       0.912  84.833 113.170  0.00  0.00     0.038 C 
ATOM      4  C   LIG d   1       0.685  83.964 114.248  0.00  0.00     0.028 C 
ATOM      5  C   LIG d   1       1.917  83.159 114.646  0.00  0.00    -0.047 C 
ATOM      6  C   LIG d   1       3.106  84.127 114.845  0.00  0.00     0.091 C 
ENDROOT
BRANCH   1   7
ATOM      7  O   LIG d   1       4.131  86.156 113.930  0.00  0.00    -0.368 OA
BRANCH   7   8
ATOM      8  C   LIG d   1       3.380  87.354 114.247  0.00  0.00     0.119 C 
BRANCH   8   9
ATOM      9  C   LIG d   1       4.117  88.545 113.604  0.00  0.00     0.028 C 
ATOM     10  C   LIG d   1       5.321  88.101 112.756  0.00  0.00     0.006 C 
ENDBRANCH   8   9
BRANCH   8  11
ATOM     11  C   LIG d   1       3.390  87.636 115.752  0.00  0.00     0.028 C 
ATOM     12  C   LIG d   1       4.657  87.114 116.448  0.00  0.00     0.006 C 
ENDBRANCH   8  11
ENDBRANCH   7   8
ENDBRANCH   1   7
BRANCH   6  13
ATOM     13  N   LIG d   1       4.372  83.412 115.155  0.00  0.00    -0.311 N 
ATOM     14  C   LIG d   1       4.811  83.202 116.395  0.00  0.00     0.210 C 
ATOM     15  C   LIG d   1       6.149  82.463 116.490  0.00  0.00     0.109 C 
ATOM     16  O   LIG d   1       4.202  83.528 117.425  0.00  0.00    -0.276 OA
ATOM     17  H   LIG d   1       4.913  83.086 114.379  0.00  0.00     0.149 HD
ENDBRANCH   6  13
BRANCH   5  18
ATOM     18  N   LIG d   1       1.578  82.400 115.865  0.00  0.00     0.381 N 
ATOM     19  H   LIG d   1       1.218  81.501 115.616  0.00  0.00    -0.090 HD
ATOM     20  H   LIG d   1       0.865  82.897 116.370  0.00  0.00    -0.090 HD
ATOM     21  H   LIG d   1       2.387  82.295 116.437  0.00  0.00    -0.090 HD
ENDBRANCH   5  18
BRANCH   3  22
ATOM     22  C   LIG d   1      -0.148  85.124 112.325  0.00  0.00     0.382 C 
ATOM     23  O   LIG d   1      -0.880  84.200 111.895  0.00  0.00    -0.241 OA
ATOM     24  O   LIG d   1      -0.355  86.294 111.950  0.00  0.00    -0.241 OA
ENDBRANCH   3  22
TORSDOF 7
ENDMDL
MODEL 8
REMARK VINA RESULT:      -3.7     30.020     32.407
REMARK  7 active torsions:
REMARK  status: ('A' for Active; 'I' for Inactive)
REMARK    1  A    between atoms: C_2  and  C_3 
REMARK    2  A    between atoms: C_3  and  O_6 
REMARK    3  A    between atoms: C_3  and  C_4 
REMARK    4  A    between atoms: C_7  and  O_6 
REMARK    5  A    between atoms: C_9  and  C_10 
REMARK    6  A    between atoms: N_15  and  C_14 
REMARK    7  A    between atoms: N_20  and  C_19 
REMARK       I    between atoms: C_22  and  N_20 
ROOT
ATOM      1  C   LIG d   1     -19.168  64.960 115.659  0.00  0.00     0.161 C 
ATOM      2  C   LIG d   1     -17.896  64.612 116.145  0.00  0.00     0.016 C 
ATOM      3  C   LIG d   1     -17.320  65.190 117.299  0.00  0.00     0.038 C 
ATOM      4  C   LIG d   1     -18.043  66.051 118.138  0.00  0.00     0.028 C 
ATOM      5  C   LIG d   1     -19.145  66.817 117.414  0.00  0.00    -0.047 C 
ATOM      6  C   LIG d   1     -20.017  65.815 116.623  0.00  0.00     0.091 C 
ENDROOT
BRANCH   1   7
ATOM      7  O   LIG d   1     -19.887  63.770 115.279  0.00  0.00    -0.368 OA
BRANCH   7   8
ATOM      8  C   LIG d   1     -19.755  63.359 113.896  0.00  0.00     0.119 C 
BRANCH   8   9
ATOM      9  C   LIG d   1     -19.902  64.620 113.022  0.00  0.00     0.028 C 
ATOM     10  C   LIG d   1     -21.352  64.852 112.566  0.00  0.00     0.006 C 
ENDBRANCH   8   9
BRANCH   8  11
ATOM     11  C   LIG d   1     -20.903  62.438 113.475  0.00  0.00     0.028 C 
ATOM     12  C   LIG d   1     -20.415  61.149 112.797  0.00  0.00     0.006 C 
ENDBRANCH   8  11
ENDBRANCH   7   8
ENDBRANCH   1   7
BRANCH   6  13
ATOM     13  N   LIG d   1     -21.068  66.490 115.818  0.00  0.00    -0.311 N 
ATOM     14  C   LIG d   1     -22.323  66.647 116.235  0.00  0.00     0.210 C 
ATOM     15  C   LIG d   1     -23.251  67.353 115.242  0.00  0.00     0.109 C 
ATOM     16  O   LIG d   1     -22.748  66.298 117.347  0.00  0.00    -0.276 OA
ATOM     17  H   LIG d   1     -20.802  66.832 114.915  0.00  0.00     0.149 HD
ENDBRANCH   6  13
BRANCH   5  18
ATOM     18  N   LIG d   1     -19.906  67.569 118.429  0.00  0.00     0.381 N 
ATOM     19  H   LIG d   1     -19.461  67.481 119.321  0.00  0.00    -0.090 HD
ATOM     20  H   LIG d   1     -20.830  67.180 118.498  0.00  0.00    -0.090 HD
ATOM     21  H   LIG d   1     -19.961  68.530 118.171  0.00  0.00    -0.090 HD
ENDBRANCH   5  18
BRANCH   3  22
ATOM     22  C   LIG d   1     -15.990  64.939 117.602  0.00  0.00     0.382 C 
ATOM     23  O   LIG d   1     -15.178  65.890 117.697  0.00  0.00    -0.241 OA
ATOM     24  O   LIG d   1     -15.584  63.769 117.739  0.00  0.00    -0.241 OA
ENDBRANCH   3  22
TORSDOF 7
ENDMDL
MODEL 9
REMARK VINA RESULT:      -3.7     30.215     32.678
REMARK  7 active torsions:
REMARK  status: ('A' for Active; 'I' for Inactive)
REMARK    1  A    between atoms: C_2  and  C_3 
REMARK    2  A    between atoms: C_3  and  O_6 
REMARK    3  A    between atoms: C_3  and  C_4 
REMARK    4  A    between atoms: C_7  and  O_6 
REMARK    5  A    between atoms: C_9  and  C_10 
REMARK    6  A    between atoms: N_15  and  C_14 
REMARK    7  A    between atoms: N_20  and  C_19 
REMARK       I    between atoms: C_22  and  N_20 
ROOT
ATOM      1  C   LIG d   1     -18.450  64.549 115.037  0.00  0.00     0.161 C 
ATOM      2  C   LIG d   1     -17.297  64.293 115.799  0.00  0.00     0.016 C 
ATOM      3  C   LIG d   1     -17.088  64.820 117.094  0.00  0.00     0.038 C 
ATOM      4  C   LIG d   1     -18.091  65.520 117.781  0.00  0.00     0.028 C 
ATOM      5  C   LIG d   1     -19.074  66.231 116.857  0.00  0.00    -0.047 C 
ATOM      6  C   LIG d   1     -19.602  65.220 115.814  0.00  0.00     0.091 C 
ENDROOT
BRANCH   1   7
ATOM      7  O   LIG d   1     -18.906  63.331 114.417  0.00  0.00    -0.368 OA
BRANCH   7   8
ATOM      8  C   LIG d   1     -19.776  62.494 115.218  0.00  0.00     0.119 C 
BRANCH   8   9
ATOM      9  C   LIG d   1     -19.106  61.112 115.339  0.00  0.00     0.028 C 
ATOM     10  C   LIG d   1     -20.011  60.080 116.033  0.00  0.00     0.006 C 
ENDBRANCH   8   9
BRANCH   8  11
ATOM     11  C   LIG d   1     -21.109  62.238 114.509  0.00  0.00     0.028 C 
ATOM     12  C   LIG d   1     -21.053  62.544 113.004  0.00  0.00     0.006 C 
ENDBRANCH   8  11
ENDBRANCH   7   8
ENDBRANCH   1   7
BRANCH   6  13
ATOM     13  N   LIG d   1     -20.507  65.852 114.818  0.00  0.00    -0.311 N 
ATOM     14  C   LIG d   1     -21.833  65.859 114.933  0.00  0.00     0.210 C 
ATOM     15  C   LIG d   1     -22.579  66.548 113.786  0.00  0.00     0.109 C 
ATOM     16  O   LIG d   1     -22.463  65.387 115.892  0.00  0.00    -0.276 OA
ATOM     17  H   LIG d   1     -20.078  66.286 114.024  0.00  0.00     0.149 HD
ENDBRANCH   6  13
BRANCH   5  18
ATOM     18  N   LIG d   1     -20.142  66.804 117.698  0.00  0.00     0.381 N 
ATOM     19  H   LIG d   1     -19.939  67.763 117.896  0.00  0.00    -0.090 HD
ATOM     20  H   LIG d   1     -20.174  66.303 118.569  0.00  0.00    -0.090 HD
ATOM     21  H   LIG d   1     -21.020  66.731 117.232  0.00  0.00    -0.090 HD
ENDBRANCH   5  18
BRANCH   3  22
ATOM     22  C   LIG d   1     -15.849  64.681 117.701  0.00  0.00     0.382 C 
ATOM     23  O   LIG d   1     -15.180  65.700 118.000  0.00  0.00    -0.241 OA
ATOM     24  O   LIG d   1     -15.371  63.550 117.911  0.00  0.00    -0.241 OA
ENDBRANCH   3  22
TORSDOF 7
ENDMDL
