MODEL 1
REMARK VINA RESULT:      -5.7      0.000      0.000
REMARK  7 active torsions:
REMARK  status: ('A' for Active; 'I' for Inactive)
REMARK    1  A    between atoms: C_2  and  C_3 
REMARK    2  A    between atoms: C_3  and  O_6 
REMARK    3  A    between atoms: C_3  and  C_4 
REMARK    4  A    between atoms: C_7  and  O_6 
REMARK    5  A    between atoms: C_9  and  C_10 
REMARK    6  A    between atoms: N_15  and  C_14 
REMARK    7  A    between atoms: N_20  and  C_19 
REMARK       I    between atoms: C_22  and  N_20 
ROOT
ATOM      1  C   LIG d   1      -7.536  75.652 117.409  0.00  0.00     0.161 C 
ATOM      2  C   LIG d   1      -8.770  76.247 117.719  0.00  0.00     0.016 C 
ATOM      3  C   LIG d   1      -8.948  77.643 117.854  0.00  0.00     0.038 C 
ATOM      4  C   LIG d   1      -7.930  78.555 117.538  0.00  0.00     0.028 C 
ATOM      5  C   LIG d   1      -6.528  77.980 117.709  0.00  0.00    -0.047 C 
ATOM      6  C   LIG d   1      -6.440  76.636 116.951  0.00  0.00     0.091 C 
ENDROOT
BRANCH   1   7
ATOM      7  O   LIG d   1      -7.726  74.619 116.421  0.00  0.00    -0.368 OA
BRANCH   7   8
ATOM      8  C   LIG d   1      -7.866  73.270 116.929  0.00  0.00     0.119 C 
BRANCH   8   9
ATOM      9  C   LIG d   1      -6.952  72.360 116.085  0.00  0.00     0.028 C 
ATOM     10  C   LIG d   1      -6.047  73.160 115.132  0.00  0.00     0.006 C 
ENDBRANCH   8   9
BRANCH   8  11
ATOM     11  C   LIG d   1      -9.284  72.735 116.709  0.00  0.00     0.028 C 
ATOM     12  C   LIG d   1      -9.314  71.226 116.419  0.00  0.00     0.006 C 
ENDBRANCH   8  11
ENDBRANCH   7   8
ENDBRANCH   1   7
BRANCH   6  13
ATOM     13  N   LIG d   1      -5.126  75.966 117.136  0.00  0.00    -0.311 N 
ATOM     14  C   LIG d   1      -4.109  76.098 116.287  0.00  0.00     0.210 C 
ATOM     15  C   LIG d   1      -2.852  75.305 116.655  0.00  0.00     0.109 C 
ATOM     16  O   LIG d   1      -4.118  76.823 115.281  0.00  0.00    -0.276 OA
ATOM     17  H   LIG d   1      -5.022  75.383 117.944  0.00  0.00     0.149 HD
ENDBRANCH   6  13
BRANCH   5  18
ATOM     18  N   LIG d   1      -5.570  78.987 117.215  0.00  0.00     0.381 N 
ATOM     19  H   LIG d   1      -5.927  79.906 117.385  0.00  0.00    -0.090 HD
ATOM     20  H   LIG d   1      -5.459  78.871 116.223  0.00  0.00    -0.090 HD
ATOM     21  H   LIG d   1      -4.691  78.875 117.670  0.00  0.00    -0.090 HD
ENDBRANCH   5  18
BRANCH   3  22
ATOM     22  C   LIG d   1     -10.145  78.138 118.350  0.00  0.00     0.382 C 
ATOM     23  O   LIG d   1     -11.109  77.361 118.553  0.00  0.00    -0.241 OA
ATOM     24  O   LIG d   1     -10.287  79.359 118.554  0.00  0.00    -0.241 OA
ENDBRANCH   3  22
TORSDOF 7
ENDMDL
MODEL 2
REMARK VINA RESULT:      -5.4      1.242      2.176
REMARK  7 active torsions:
REMARK  status: ('A' for Active; 'I' for Inactive)
REMARK    1  A    between atoms: C_2  and  C_3 
REMARK    2  A    between atoms: C_3  and  O_6 
REMARK    3  A    between atoms: C_3  and  C_4 
REMARK    4  A    between atoms: C_7  and  O_6 
REMARK    5  A    between atoms: C_9  and  C_10 
REMARK    6  A    between atoms: N_15  and  C_14 
REMARK    7  A    between atoms: N_20  and  C_19 
REMARK       I    between atoms: C_22  and  N_20 
ROOT
ATOM      1  C   LIG d   1      -6.633  75.424 118.334  0.00  0.00     0.161 C 
ATOM      2  C   LIG d   1      -7.958  75.878 118.229  0.00  0.00     0.016 C 
ATOM      3  C   LIG d   1      -8.300  77.206 117.885  0.00  0.00     0.038 C 
ATOM      4  C   LIG d   1      -7.335  78.137 117.473  0.00  0.00     0.028 C 
ATOM      5  C   LIG d   1      -5.949  77.869 118.049  0.00  0.00    -0.047 C 
ATOM      6  C   LIG d   1      -5.570  76.395 117.779  0.00  0.00     0.091 C 
ENDROOT
BRANCH   1   7
ATOM      7  O   LIG d   1      -6.508  74.133 117.705  0.00  0.00    -0.368 OA
BRANCH   7   8
ATOM      8  C   LIG d   1      -7.110  74.001 116.393  0.00  0.00     0.119 C 
BRANCH   8   9
ATOM      9  C   LIG d   1      -7.786  72.618 116.331  0.00  0.00     0.028 C 
ATOM     10  C   LIG d   1      -9.250  72.659 116.799  0.00  0.00     0.006 C 
ENDBRANCH   8   9
BRANCH   8  11
ATOM     11  C   LIG d   1      -6.046  73.983 115.292  0.00  0.00     0.028 C 
ATOM     12  C   LIG d   1      -6.009  75.286 114.477  0.00  0.00     0.006 C 
ENDBRANCH   8  11
ENDBRANCH   7   8
ENDBRANCH   1   7
BRANCH   6  13
ATOM     13  N   LIG d   1      -4.264  76.026 118.384  0.00  0.00    -0.311 N 
ATOM     14  C   LIG d   1      -3.116  76.028 117.708  0.00  0.00     0.210 C 
ATOM     15  C   LIG d   1      -1.889  75.595 118.517  0.00  0.00     0.109 C 
ATOM     16  O   LIG d   1      -2.993  76.377 116.525  0.00  0.00    -0.276 OA
ATOM     17  H   LIG d   1      -4.267  75.759 119.349  0.00  0.00     0.149 HD
ENDBRANCH   6  13
BRANCH   5  18
ATOM     18  N   LIG d   1      -5.016  78.829 117.430  0.00  0.00     0.381 N 
ATOM     19  H   LIG d   1      -5.043  79.697 117.928  0.00  0.00    -0.090 HD
ATOM     20  H   LIG d   1      -5.305  79.000 116.483  0.00  0.00    -0.090 HD
ATOM     21  H   LIG d   1      -4.091  78.461 117.441  0.00  0.00    -0.090 HD
ENDBRANCH   5  18
BRANCH   3  22
ATOM     22  C   LIG d   1      -9.618  77.626 117.991  0.00  0.00     0.382 C 
ATOM     23  O   LIG d   1      -9.884  78.851 118.037  0.00  0.00    -0.241 OA
ATOM     24  O   LIG d   1     -10.540  76.794 118.085  0.00  0.00    -0.241 OA
ENDBRANCH   3  22
TORSDOF 7
ENDMDL
MODEL 3
REMARK VINA RESULT:      -5.1      2.098      2.976
REMARK  7 active torsions:
REMARK  status: ('A' for Active; 'I' for Inactive)
REMARK    1  A    between atoms: C_2  and  C_3 
REMARK    2  A    between atoms: C_3  and  O_6 
REMARK    3  A    between atoms: C_3  and  C_4 
REMARK    4  A    between atoms: C_7  and  O_6 
REMARK    5  A    between atoms: C_9  and  C_10 
REMARK    6  A    between atoms: N_15  and  C_14 
REMARK    7  A    between atoms: N_20  and  C_19 
REMARK       I    between atoms: C_22  and  N_20 
ROOT
ATOM      1  C   LIG d   1      -5.659  76.721 117.226  0.00  0.00     0.161 C 
ATOM      2  C   LIG d   1      -6.396  77.903 117.411  0.00  0.00     0.016 C 
ATOM      3  C   LIG d   1      -5.847  79.196 117.250  0.00  0.00     0.038 C 
ATOM      4  C   LIG d   1      -4.554  79.395 116.742  0.00  0.00     0.028 C 
ATOM      5  C   LIG d   1      -3.608  78.232 117.022  0.00  0.00    -0.047 C 
ATOM      6  C   LIG d   1      -4.279  76.917 116.563  0.00  0.00     0.091 C 
ENDROOT
BRANCH   1   7
ATOM      7  O   LIG d   1      -6.442  75.769 116.479  0.00  0.00    -0.368 OA
BRANCH   7   8
ATOM      8  C   LIG d   1      -6.874  74.591 117.204  0.00  0.00     0.119 C 
BRANCH   8   9
ATOM      9  C   LIG d   1      -6.183  73.373 116.562  0.00  0.00     0.028 C 
ATOM     10  C   LIG d   1      -7.187  72.391 115.937  0.00  0.00     0.006 C 
ENDBRANCH   8   9
BRANCH   8  11
ATOM     11  C   LIG d   1      -8.375  74.346 117.026  0.00  0.00     0.028 C 
ATOM     12  C   LIG d   1      -9.239  75.403 117.733  0.00  0.00     0.006 C 
ENDBRANCH   8  11
ENDBRANCH   7   8
ENDBRANCH   1   7
BRANCH   6  13
ATOM     13  N   LIG d   1      -3.455  75.721 116.878  0.00  0.00    -0.311 N 
ATOM     14  C   LIG d   1      -2.672  75.115 115.987  0.00  0.00     0.210 C 
ATOM     15  C   LIG d   1      -1.924  73.887 116.514  0.00  0.00     0.109 C 
ATOM     16  O   LIG d   1      -2.500  75.498 114.820  0.00  0.00    -0.276 OA
ATOM     17  H   LIG d   1      -3.510  75.362 117.811  0.00  0.00     0.149 HD
ENDBRANCH   6  13
BRANCH   5  18
ATOM     18  N   LIG d   1      -2.341  78.510 116.320  0.00  0.00     0.381 N 
ATOM     19  H   LIG d   1      -2.107  77.741 115.725  0.00  0.00    -0.090 HD
ATOM     20  H   LIG d   1      -1.609  78.616 117.000  0.00  0.00    -0.090 HD
ATOM     21  H   LIG d   1      -2.425  79.343 115.781  0.00  0.00    -0.090 HD
ENDBRANCH   5  18
BRANCH   3  22
ATOM     22  C   LIG d   1      -6.580  80.307 117.638  0.00  0.00     0.382 C 
ATOM     23  O   LIG d   1      -6.069  81.159 118.404  0.00  0.00    -0.241 OA
ATOM     24  O   LIG d   1      -7.761  80.445 117.267  0.00  0.00    -0.241 OA
ENDBRANCH   3  22
TORSDOF 7
ENDMDL
MODEL 4
REMARK VINA RESULT:      -4.9     13.531     16.202
REMARK  7 active torsions:
REMARK  status: ('A' for Active; 'I' for Inactive)
REMARK    1  A    between atoms: C_2  and  C_3 
REMARK    2  A    between atoms: C_3  and  O_6 
REMARK    3  A    between atoms: C_3  and  C_4 
REMARK    4  A    between atoms: C_7  and  O_6 
REMARK    5  A    between atoms: C_9  and  C_10 
REMARK    6  A    between atoms: N_15  and  C_14 
REMARK    7  A    between atoms: N_20  and  C_19 
REMARK       I    between atoms: C_22  and  N_20 
ROOT
ATOM      1  C   LIG d   1       2.654  87.288 115.049  0.00  0.00     0.161 C 
ATOM      2  C   LIG d   1       3.043  88.579 114.656  0.00  0.00     0.016 C 
ATOM      3  C   LIG d   1       4.227  89.206 115.108  0.00  0.00     0.038 C 
ATOM      4  C   LIG d   1       5.184  88.521 115.871  0.00  0.00     0.028 C 
ATOM      5  C   LIG d   1       4.596  87.389 116.707  0.00  0.00    -0.047 C 
ATOM      6  C   LIG d   1       3.740  86.483 115.793  0.00  0.00     0.091 C 
ENDROOT
BRANCH   1   7
ATOM      7  O   LIG d   1       2.179  86.551 113.905  0.00  0.00    -0.368 OA
BRANCH   7   8
ATOM      8  C   LIG d   1       2.371  87.183 112.616  0.00  0.00     0.119 C 
BRANCH   8   9
ATOM      9  C   LIG d   1       1.075  86.985 111.806  0.00  0.00     0.028 C 
ATOM     10  C   LIG d   1       0.147  85.931 112.432  0.00  0.00     0.006 C 
ENDBRANCH   8   9
BRANCH   8  11
ATOM     11  C   LIG d   1       3.465  86.479 111.808  0.00  0.00     0.028 C 
ATOM     12  C   LIG d   1       3.814  85.088 112.362  0.00  0.00     0.006 C 
ENDBRANCH   8  11
ENDBRANCH   7   8
ENDBRANCH   1   7
BRANCH   6  13
ATOM     13  N   LIG d   1       3.060  85.398 116.547  0.00  0.00    -0.311 N 
ATOM     14  C   LIG d   1       3.332  84.105 116.378  0.00  0.00     0.210 C 
ATOM     15  C   LIG d   1       2.500  83.151 117.242  0.00  0.00     0.109 C 
ATOM     16  O   LIG d   1       4.205  83.660 115.618  0.00  0.00    -0.276 OA
ATOM     17  H   LIG d   1       2.359  85.672 117.207  0.00  0.00     0.149 HD
ENDBRANCH   6  13
BRANCH   5  18
ATOM     18  N   LIG d   1       5.719  86.674 117.342  0.00  0.00     0.381 N 
ATOM     19  H   LIG d   1       5.499  86.481 118.299  0.00  0.00    -0.090 HD
ATOM     20  H   LIG d   1       6.534  87.262 117.319  0.00  0.00    -0.090 HD
ATOM     21  H   LIG d   1       5.900  85.823 116.857  0.00  0.00    -0.090 HD
ENDBRANCH   5  18
BRANCH   3  22
ATOM     22  C   LIG d   1       4.443  90.547 114.830  0.00  0.00     0.382 C 
ATOM     23  O   LIG d   1       4.605  90.923 113.644  0.00  0.00    -0.241 OA
ATOM     24  O   LIG d   1       4.523  91.379 115.753  0.00  0.00    -0.241 OA
ENDBRANCH   3  22
TORSDOF 7
ENDMDL
MODEL 5
REMARK VINA RESULT:      -4.7     18.317     21.281
REMARK  7 active torsions:
REMARK  status: ('A' for Active; 'I' for Inactive)
REMARK    1  A    between atoms: C_2  and  C_3 
REMARK    2  A    between atoms: C_3  and  O_6 
REMARK    3  A    between atoms: C_3  and  C_4 
REMARK    4  A    between atoms: C_7  and  O_6 
REMARK    5  A    between atoms: C_9  and  C_10 
REMARK    6  A    between atoms: N_15  and  C_14 
REMARK    7  A    between atoms: N_20  and  C_19 
REMARK       I    between atoms: C_22  and  N_20 
ROOT
ATOM      1  C   LIG d   1     -25.580  85.259 113.274  0.00  0.00     0.161 C 
ATOM      2  C   LIG d   1     -24.538  86.199 113.339  0.00  0.00     0.016 C 
ATOM      3  C   LIG d   1     -23.258  85.906 113.862  0.00  0.00     0.038 C 
ATOM      4  C   LIG d   1     -22.883  84.603 114.219  0.00  0.00     0.028 C 
ATOM      5  C   LIG d   1     -24.059  83.729 114.643  0.00  0.00    -0.047 C 
ATOM      6  C   LIG d   1     -25.156  83.802 113.556  0.00  0.00     0.091 C 
ENDROOT
BRANCH   1   7
ATOM      7  O   LIG d   1     -26.241  85.349 111.996  0.00  0.00    -0.368 OA
BRANCH   7   8
ATOM      8  C   LIG d   1     -27.478  86.104 111.970  0.00  0.00     0.119 C 
BRANCH   8   9
ATOM      9  C   LIG d   1     -27.109  87.591 111.805  0.00  0.00     0.028 C 
ATOM     10  C   LIG d   1     -27.720  88.473 112.908  0.00  0.00     0.006 C 
ENDBRANCH   8   9
BRANCH   8  11
ATOM     11  C   LIG d   1     -28.213  86.015 113.311  0.00  0.00     0.028 C 
ATOM     12  C   LIG d   1     -29.450  85.105 113.252  0.00  0.00     0.006 C 
ENDBRANCH   8  11
ENDBRANCH   7   8
ENDBRANCH   1   7
BRANCH   6  13
ATOM     13  N   LIG d   1     -26.377  83.042 113.931  0.00  0.00    -0.311 N 
ATOM     14  C   LIG d   1     -26.998  82.201 113.106  0.00  0.00     0.210 C 
ATOM     15  C   LIG d   1     -28.251  81.536 113.685  0.00  0.00     0.109 C 
ATOM     16  O   LIG d   1     -26.613  81.918 111.962  0.00  0.00    -0.276 OA
ATOM     17  H   LIG d   1     -26.740  83.188 114.852  0.00  0.00     0.149 HD
ENDBRANCH   6  13
BRANCH   5  18
ATOM     18  N   LIG d   1     -23.545  82.362 114.854  0.00  0.00     0.381 N 
ATOM     19  H   LIG d   1     -24.272  81.780 115.218  0.00  0.00    -0.090 HD
ATOM     20  H   LIG d   1     -22.801  82.396 115.528  0.00  0.00    -0.090 HD
ATOM     21  H   LIG d   1     -23.209  81.988 113.994  0.00  0.00    -0.090 HD
ENDBRANCH   5  18
BRANCH   3  22
ATOM     22  C   LIG d   1     -22.349  86.933 114.070  0.00  0.00     0.382 C 
ATOM     23  O   LIG d   1     -21.221  86.893 113.522  0.00  0.00    -0.241 OA
ATOM     24  O   LIG d   1     -22.627  87.877 114.833  0.00  0.00    -0.241 OA
ENDBRANCH   3  22
TORSDOF 7
ENDMDL
MODEL 6
REMARK VINA RESULT:      -4.6     15.428     17.509
REMARK  7 active torsions:
REMARK  status: ('A' for Active; 'I' for Inactive)
REMARK    1  A    between atoms: C_2  and  C_3 
REMARK    2  A    between atoms: C_3  and  O_6 
REMARK    3  A    between atoms: C_3  and  C_4 
REMARK    4  A    between atoms: C_7  and  O_6 
REMARK    5  A    between atoms: C_9  and  C_10 
REMARK    6  A    between atoms: N_15  and  C_14 
REMARK    7  A    between atoms: N_20  and  C_19 
REMARK       I    between atoms: C_22  and  N_20 
ROOT
ATOM      1  C   LIG d   1       3.038  87.966 115.573  0.00  0.00     0.161 C 
ATOM      2  C   LIG d   1       3.038  86.892 114.668  0.00  0.00     0.016 C 
ATOM      3  C   LIG d   1       3.461  87.007 113.324  0.00  0.00     0.038 C 
ATOM      4  C   LIG d   1       4.059  88.177 112.833  0.00  0.00     0.028 C 
ATOM      5  C   LIG d   1       3.616  89.438 113.567  0.00  0.00    -0.047 C 
ATOM      6  C   LIG d   1       3.792  89.222 115.087  0.00  0.00     0.091 C 
ENDROOT
BRANCH   1   7
ATOM      7  O   LIG d   1       3.557  87.532 116.846  0.00  0.00    -0.368 OA
BRANCH   7   8
ATOM      8  C   LIG d   1       4.919  87.037 116.844  0.00  0.00     0.119 C 
BRANCH   8   9
ATOM      9  C   LIG d   1       4.935  85.720 117.643  0.00  0.00     0.028 C 
ATOM     10  C   LIG d   1       4.754  84.485 116.744  0.00  0.00     0.006 C 
ENDBRANCH   8   9
BRANCH   8  11
ATOM     11  C   LIG d   1       5.857  87.982 117.601  0.00  0.00     0.028 C 
ATOM     12  C   LIG d   1       7.066  88.423 116.760  0.00  0.00     0.006 C 
ENDBRANCH   8  11
ENDBRANCH   7   8
ENDBRANCH   1   7
BRANCH   6  13
ATOM     13  N   LIG d   1       3.303  90.377 115.884  0.00  0.00    -0.311 N 
ATOM     14  C   LIG d   1       4.091  91.366 116.301  0.00  0.00     0.210 C 
ATOM     15  C   LIG d   1       3.389  92.448 117.127  0.00  0.00     0.109 C 
ATOM     16  O   LIG d   1       5.299  91.466 116.039  0.00  0.00    -0.276 OA
ATOM     17  H   LIG d   1       2.329  90.391 116.116  0.00  0.00     0.149 HD
ENDBRANCH   6  13
BRANCH   5  18
ATOM     18  N   LIG d   1       4.418  90.562 113.046  0.00  0.00     0.381 N 
ATOM     19  H   LIG d   1       5.315  90.230 112.751  0.00  0.00    -0.090 HD
ATOM     20  H   LIG d   1       4.557  91.231 113.783  0.00  0.00    -0.090 HD
ATOM     21  H   LIG d   1       3.947  90.991 112.281  0.00  0.00    -0.090 HD
ENDBRANCH   5  18
BRANCH   3  22
ATOM     22  C   LIG d   1       3.249  85.956 112.444  0.00  0.00     0.382 C 
ATOM     23  O   LIG d   1       4.153  85.107 112.253  0.00  0.00    -0.241 OA
ATOM     24  O   LIG d   1       2.183  85.872 111.806  0.00  0.00    -0.241 OA
ENDBRANCH   3  22
TORSDOF 7
ENDMDL
MODEL 7
REMARK VINA RESULT:      -4.4     17.694     20.034
REMARK  7 active torsions:
REMARK  status: ('A' for Active; 'I' for Inactive)
REMARK    1  A    between atoms: C_2  and  C_3 
REMARK    2  A    between atoms: C_3  and  O_6 
REMARK    3  A    between atoms: C_3  and  C_4 
REMARK    4  A    between atoms: C_7  and  O_6 
REMARK    5  A    between atoms: C_9  and  C_10 
REMARK    6  A    between atoms: N_15  and  C_14 
REMARK    7  A    between atoms: N_20  and  C_19 
REMARK       I    between atoms: C_22  and  N_20 
ROOT
ATOM      1  C   LIG d   1      10.697  66.889 113.649  0.00  0.00     0.161 C 
ATOM      2  C   LIG d   1      10.213  68.181 113.911  0.00  0.00     0.016 C 
ATOM      3  C   LIG d   1       8.927  68.623 113.525  0.00  0.00     0.038 C 
ATOM      4  C   LIG d   1       7.975  67.749 112.979  0.00  0.00     0.028 C 
ATOM      5  C   LIG d   1       8.592  66.569 112.236  0.00  0.00    -0.047 C 
ATOM      6  C   LIG d   1       9.633  65.887 113.153  0.00  0.00     0.091 C 
ENDROOT
BRANCH   1   7
ATOM      7  O   LIG d   1      11.367  66.372 114.816  0.00  0.00    -0.368 OA
BRANCH   7   8
ATOM      8  C   LIG d   1      10.512  65.844 115.860  0.00  0.00     0.119 C 
BRANCH   8   9
ATOM      9  C   LIG d   1      10.827  66.620 117.153  0.00  0.00     0.028 C 
ATOM     10  C   LIG d   1       9.738  67.649 117.500  0.00  0.00     0.006 C 
ENDBRANCH   8   9
BRANCH   8  11
ATOM     11  C   LIG d   1      10.850  64.383 116.171  0.00  0.00     0.028 C 
ATOM     12  C   LIG d   1       9.619  63.561 116.584  0.00  0.00     0.006 C 
ENDBRANCH   8  11
ENDBRANCH   7   8
ENDBRANCH   1   7
BRANCH   6  13
ATOM     13  N   LIG d   1      10.345  64.774 112.473  0.00  0.00    -0.311 N 
ATOM     14  C   LIG d   1       9.973  63.499 112.569  0.00  0.00     0.210 C 
ATOM     15  C   LIG d   1      10.857  62.508 111.805  0.00  0.00     0.109 C 
ATOM     16  O   LIG d   1       8.975  63.098 113.187  0.00  0.00    -0.276 OA
ATOM     17  H   LIG d   1      11.148  65.014 111.925  0.00  0.00     0.149 HD
ENDBRANCH   6  13
BRANCH   5  18
ATOM     18  N   LIG d   1       7.494  65.669 111.838  0.00  0.00     0.381 N 
ATOM     19  H   LIG d   1       7.784  64.716 111.938  0.00  0.00    -0.090 HD
ATOM     20  H   LIG d   1       7.273  65.832 110.872  0.00  0.00    -0.090 HD
ATOM     21  H   LIG d   1       6.691  65.840 112.403  0.00  0.00    -0.090 HD
ENDBRANCH   5  18
BRANCH   3  22
ATOM     22  C   LIG d   1       8.596  69.964 113.647  0.00  0.00     0.382 C 
ATOM     23  O   LIG d   1       7.854  70.507 112.793  0.00  0.00    -0.241 OA
ATOM     24  O   LIG d   1       9.065  70.649 114.575  0.00  0.00    -0.241 OA
ENDBRANCH   3  22
TORSDOF 7
ENDMDL
MODEL 8
REMARK VINA RESULT:      -4.3     13.102     15.875
REMARK  7 active torsions:
REMARK  status: ('A' for Active; 'I' for Inactive)
REMARK    1  A    between atoms: C_2  and  C_3 
REMARK    2  A    between atoms: C_3  and  O_6 
REMARK    3  A    between atoms: C_3  and  C_4 
REMARK    4  A    between atoms: C_7  and  O_6 
REMARK    5  A    between atoms: C_9  and  C_10 
REMARK    6  A    between atoms: N_15  and  C_14 
REMARK    7  A    between atoms: N_20  and  C_19 
REMARK       I    between atoms: C_22  and  N_20 
ROOT
ATOM      1  C   LIG d   1       3.431  86.438 114.779  0.00  0.00     0.161 C 
ATOM      2  C   LIG d   1       4.042  87.619 115.230  0.00  0.00     0.016 C 
ATOM      3  C   LIG d   1       3.863  88.875 114.606  0.00  0.00     0.038 C 
ATOM      4  C   LIG d   1       2.934  89.064 113.573  0.00  0.00     0.028 C 
ATOM      5  C   LIG d   1       2.671  87.802 112.757  0.00  0.00    -0.047 C 
ATOM      6  C   LIG d   1       2.327  86.644 113.721  0.00  0.00     0.091 C 
ENDROOT
BRANCH   1   7
ATOM      7  O   LIG d   1       2.916  85.695 115.902  0.00  0.00    -0.368 OA
BRANCH   7   8
ATOM      8  C   LIG d   1       2.963  86.365 117.186  0.00  0.00     0.119 C 
BRANCH   8   9
ATOM      9  C   LIG d   1       3.713  85.440 118.164  0.00  0.00     0.028 C 
ATOM     10  C   LIG d   1       3.927  84.029 117.590  0.00  0.00     0.006 C 
ENDBRANCH   8   9
BRANCH   8  11
ATOM     11  C   LIG d   1       1.561  86.533 117.779  0.00  0.00     0.028 C 
ATOM     12  C   LIG d   1       0.922  87.885 117.425  0.00  0.00     0.006 C 
ENDBRANCH   8  11
ENDBRANCH   7   8
ENDBRANCH   1   7
BRANCH   6  13
ATOM     13  N   LIG d   1       2.138  85.353 113.011  0.00  0.00    -0.311 N 
ATOM     14  C   LIG d   1       0.957  84.926 112.566  0.00  0.00     0.210 C 
ATOM     15  C   LIG d   1       0.980  83.558 111.879  0.00  0.00     0.109 C 
ATOM     16  O   LIG d   1      -0.102  85.566 112.647  0.00  0.00    -0.276 OA
ATOM     17  H   LIG d   1       2.951  84.784 112.874  0.00  0.00     0.149 HD
ENDBRANCH   6  13
BRANCH   5  18
ATOM     18  N   LIG d   1       1.585  88.105 111.806  0.00  0.00     0.381 N 
ATOM     19  H   LIG d   1       1.853  88.868 111.217  0.00  0.00    -0.090 HD
ATOM     20  H   LIG d   1       0.767  88.377 112.322  0.00  0.00    -0.090 HD
ATOM     21  H   LIG d   1       1.384  87.302 111.251  0.00  0.00    -0.090 HD
ENDBRANCH   5  18
BRANCH   3  22
ATOM     22  C   LIG d   1       4.648  89.952 114.991  0.00  0.00     0.382 C 
ATOM     23  O   LIG d   1       4.592  91.029 114.350  0.00  0.00    -0.241 OA
ATOM     24  O   LIG d   1       5.444  89.845 115.943  0.00  0.00    -0.241 OA
ENDBRANCH   3  22
TORSDOF 7
ENDMDL
MODEL 9
REMARK VINA RESULT:      -4.3     14.041     16.645
REMARK  7 active torsions:
REMARK  status: ('A' for Active; 'I' for Inactive)
REMARK    1  A    between atoms: C_2  and  C_3 
REMARK    2  A    between atoms: C_3  and  O_6 
REMARK    3  A    between atoms: C_3  and  C_4 
REMARK    4  A    between atoms: C_7  and  O_6 
REMARK    5  A    between atoms: C_9  and  C_10 
REMARK    6  A    between atoms: N_15  and  C_14 
REMARK    7  A    between atoms: N_20  and  C_19 
REMARK       I    between atoms: C_22  and  N_20 
ROOT
ATOM      1  C   LIG d   1       4.325  87.422 115.353  0.00  0.00     0.161 C 
ATOM      2  C   LIG d   1       4.802  88.551 116.039  0.00  0.00     0.016 C 
ATOM      3  C   LIG d   1       4.558  89.878 115.617  0.00  0.00     0.038 C 
ATOM      4  C   LIG d   1       3.687  90.171 114.557  0.00  0.00     0.028 C 
ATOM      5  C   LIG d   1       3.587  89.051 113.528  0.00  0.00    -0.047 C 
ATOM      6  C   LIG d   1       3.280  87.724 114.258  0.00  0.00     0.091 C 
ENDROOT
BRANCH   1   7
ATOM      7  O   LIG d   1       3.801  86.463 116.294  0.00  0.00    -0.368 OA
BRANCH   7   8
ATOM      8  C   LIG d   1       2.369  86.497 116.508  0.00  0.00     0.119 C 
BRANCH   8   9
ATOM      9  C   LIG d   1       2.108  87.357 117.761  0.00  0.00     0.028 C 
ATOM     10  C   LIG d   1       1.381  88.671 117.430  0.00  0.00     0.006 C 
ENDBRANCH   8   9
BRANCH   8  11
ATOM     11  C   LIG d   1       1.824  85.107 116.850  0.00  0.00     0.028 C 
ATOM     12  C   LIG d   1       2.172  84.053 115.787  0.00  0.00     0.006 C 
ENDBRANCH   8  11
ENDBRANCH   7   8
ENDBRANCH   1   7
BRANCH   6  13
ATOM     13  N   LIG d   1       3.249  86.561 113.333  0.00  0.00    -0.311 N 
ATOM     14  C   LIG d   1       2.132  86.096 112.777  0.00  0.00     0.210 C 
ATOM     15  C   LIG d   1       2.321  84.876 111.870  0.00  0.00     0.109 C 
ATOM     16  O   LIG d   1       1.007  86.597 112.923  0.00  0.00    -0.276 OA
ATOM     17  H   LIG d   1       4.122  86.113 113.134  0.00  0.00     0.149 HD
ENDBRANCH   6  13
BRANCH   5  18
ATOM     18  N   LIG d   1       2.545  89.430 112.555  0.00  0.00     0.381 N 
ATOM     19  H   LIG d   1       2.878  89.277 111.624  0.00  0.00    -0.090 HD
ATOM     20  H   LIG d   1       2.342  90.408 112.661  0.00  0.00    -0.090 HD
ATOM     21  H   LIG d   1       1.720  88.894 112.712  0.00  0.00    -0.090 HD
ENDBRANCH   5  18
BRANCH   3  22
ATOM     22  C   LIG d   1       5.221  90.928 116.234  0.00  0.00     0.382 C 
ATOM     23  O   LIG d   1       4.678  92.057 116.305  0.00  0.00    -0.241 OA
ATOM     24  O   LIG d   1       6.373  90.773 116.680  0.00  0.00    -0.241 OA
ENDBRANCH   3  22
TORSDOF 7
ENDMDL
