MODEL 1
REMARK VINA RESULT:      -5.9      0.000      0.000
REMARK  7 active torsions:
REMARK  status: ('A' for Active; 'I' for Inactive)
REMARK    1  A    between atoms: C_2  and  C_3 
REMARK    2  A    between atoms: C_3  and  O_6 
REMARK    3  A    between atoms: C_3  and  C_4 
REMARK    4  A    between atoms: C_7  and  O_6 
REMARK    5  A    between atoms: C_9  and  C_10 
REMARK    6  A    between atoms: N_15  and  C_14 
REMARK    7  A    between atoms: N_20  and  C_19 
REMARK       I    between atoms: C_22  and  N_20 
ROOT
ATOM      1  C   LIG d   1      -6.951  74.384 118.377  0.00  0.00     0.161 C 
ATOM      2  C   LIG d   1      -8.165  75.077 118.513  0.00  0.00     0.016 C 
ATOM      3  C   LIG d   1      -8.455  76.281 117.831  0.00  0.00     0.038 C 
ATOM      4  C   LIG d   1      -7.603  76.797 116.844  0.00  0.00     0.028 C 
ATOM      5  C   LIG d   1      -6.143  76.405 117.039  0.00  0.00    -0.047 C 
ATOM      6  C   LIG d   1      -6.054  74.873 117.220  0.00  0.00     0.091 C 
ENDROOT
BRANCH   1   7
ATOM      7  O   LIG d   1      -7.206  72.971 118.250  0.00  0.00    -0.368 OA
BRANCH   7   8
ATOM      8  C   LIG d   1      -7.768  72.535 116.988  0.00  0.00     0.119 C 
BRANCH   8   9
ATOM      9  C   LIG d   1      -9.215  72.077 117.260  0.00  0.00     0.028 C 
ATOM     10  C   LIG d   1      -9.368  70.548 117.200  0.00  0.00     0.006 C 
ENDBRANCH   8   9
BRANCH   8  11
ATOM     11  C   LIG d   1      -7.045  71.296 116.454  0.00  0.00     0.028 C 
ATOM     12  C   LIG d   1      -6.057  71.624 115.323  0.00  0.00     0.006 C 
ENDBRANCH   8  11
ENDBRANCH   7   8
ENDBRANCH   1   7
BRANCH   6  13
ATOM     13  N   LIG d   1      -4.669  74.414 117.500  0.00  0.00    -0.311 N 
ATOM     14  C   LIG d   1      -3.777  74.150 116.547  0.00  0.00     0.210 C 
ATOM     15  C   LIG d   1      -2.412  73.671 117.053  0.00  0.00     0.109 C 
ATOM     16  O   LIG d   1      -3.975  74.299 115.332  0.00  0.00    -0.276 OA
ATOM     17  H   LIG d   1      -4.413  74.297 118.461  0.00  0.00     0.149 HD
ENDBRANCH   6  13
BRANCH   5  18
ATOM     18  N   LIG d   1      -5.390  76.893 115.867  0.00  0.00     0.381 N 
ATOM     19  H   LIG d   1      -5.273  77.885 115.929  0.00  0.00    -0.090 HD
ATOM     20  H   LIG d   1      -5.915  76.689 115.035  0.00  0.00    -0.090 HD
ATOM     21  H   LIG d   1      -4.500  76.448 115.825  0.00  0.00    -0.090 HD
ENDBRANCH   5  18
BRANCH   3  22
ATOM     22  C   LIG d   1      -9.591  77.003 118.164  0.00  0.00     0.382 C 
ATOM     23  O   LIG d   1      -9.487  78.190 118.555  0.00  0.00    -0.241 OA
ATOM     24  O   LIG d   1     -10.715  76.467 118.121  0.00  0.00    -0.241 OA
ENDBRANCH   3  22
TORSDOF 7
ENDMDL
MODEL 2
REMARK VINA RESULT:      -5.2      7.688     10.227
REMARK  7 active torsions:
REMARK  status: ('A' for Active; 'I' for Inactive)
REMARK    1  A    between atoms: C_2  and  C_3 
REMARK    2  A    between atoms: C_3  and  O_6 
REMARK    3  A    between atoms: C_3  and  C_4 
REMARK    4  A    between atoms: C_7  and  O_6 
REMARK    5  A    between atoms: C_9  and  C_10 
REMARK    6  A    between atoms: N_15  and  C_14 
REMARK    7  A    between atoms: N_20  and  C_19 
REMARK       I    between atoms: C_22  and  N_20 
ROOT
ATOM      1  C   LIG d   1      -2.595  81.597 113.251  0.00  0.00     0.161 C 
ATOM      2  C   LIG d   1      -3.140  80.304 113.326  0.00  0.00     0.016 C 
ATOM      3  C   LIG d   1      -2.398  79.130 113.058  0.00  0.00     0.038 C 
ATOM      4  C   LIG d   1      -1.013  79.162 112.843  0.00  0.00     0.028 C 
ATOM      5  C   LIG d   1      -0.520  80.482 112.260  0.00  0.00    -0.047 C 
ATOM      6  C   LIG d   1      -1.058  81.644 113.126  0.00  0.00     0.091 C 
ENDROOT
BRANCH   1   7
ATOM      7  O   LIG d   1      -3.030  82.377 114.382  0.00  0.00    -0.368 OA
BRANCH   7   8
ATOM      8  C   LIG d   1      -2.418  82.051 115.655  0.00  0.00     0.119 C 
BRANCH   8   9
ATOM      9  C   LIG d   1      -3.553  81.856 116.678  0.00  0.00     0.028 C 
ATOM     10  C   LIG d   1      -3.843  80.371 116.957  0.00  0.00     0.006 C 
ENDBRANCH   8   9
BRANCH   8  11
ATOM     11  C   LIG d   1      -1.587  83.221 116.189  0.00  0.00     0.028 C 
ATOM     12  C   LIG d   1      -1.184  83.042 117.661  0.00  0.00     0.006 C 
ENDBRANCH   8  11
ENDBRANCH   7   8
ENDBRANCH   1   7
BRANCH   6  13
ATOM     13  N   LIG d   1      -0.692  82.976 112.577  0.00  0.00    -0.311 N 
ATOM     14  C   LIG d   1       0.368  83.672 112.986  0.00  0.00     0.210 C 
ATOM     15  C   LIG d   1       0.551  85.031 112.304  0.00  0.00     0.109 C 
ATOM     16  O   LIG d   1       1.191  83.278 113.825  0.00  0.00    -0.276 OA
ATOM     17  H   LIG d   1      -1.289  83.357 111.869  0.00  0.00     0.149 HD
ENDBRANCH   6  13
BRANCH   5  18
ATOM     18  N   LIG d   1       0.953  80.428 112.216  0.00  0.00     0.381 N 
ATOM     19  H   LIG d   1       1.254  80.135 111.308  0.00  0.00    -0.090 HD
ATOM     20  H   LIG d   1       1.274  79.753 112.887  0.00  0.00    -0.090 HD
ATOM     21  H   LIG d   1       1.334  81.324 112.427  0.00  0.00    -0.090 HD
ENDBRANCH   5  18
BRANCH   3  22
ATOM     22  C   LIG d   1      -3.052  77.911 112.965  0.00  0.00     0.382 C 
ATOM     23  O   LIG d   1      -4.194  77.850 112.449  0.00  0.00    -0.241 OA
ATOM     24  O   LIG d   1      -2.533  76.879 113.430  0.00  0.00    -0.241 OA
ENDBRANCH   3  22
TORSDOF 7
ENDMDL
MODEL 3
REMARK VINA RESULT:      -5.1      5.386      7.648
REMARK  7 active torsions:
REMARK  status: ('A' for Active; 'I' for Inactive)
REMARK    1  A    between atoms: C_2  and  C_3 
REMARK    2  A    between atoms: C_3  and  O_6 
REMARK    3  A    between atoms: C_3  and  C_4 
REMARK    4  A    between atoms: C_7  and  O_6 
REMARK    5  A    between atoms: C_9  and  C_10 
REMARK    6  A    between atoms: N_15  and  C_14 
REMARK    7  A    between atoms: N_20  and  C_19 
REMARK       I    between atoms: C_22  and  N_20 
ROOT
ATOM      1  C   LIG d   1      -1.784  79.370 115.882  0.00  0.00     0.161 C 
ATOM      2  C   LIG d   1      -2.324  80.428 115.131  0.00  0.00     0.016 C 
ATOM      3  C   LIG d   1      -2.439  80.403 113.722  0.00  0.00     0.038 C 
ATOM      4  C   LIG d   1      -2.159  79.248 112.976  0.00  0.00     0.028 C 
ATOM      5  C   LIG d   1      -1.137  78.332 113.639  0.00  0.00    -0.047 C 
ATOM      6  C   LIG d   1      -1.577  78.059 115.095  0.00  0.00     0.091 C 
ENDROOT
BRANCH   1   7
ATOM      7  O   LIG d   1      -2.600  79.132 117.046  0.00  0.00    -0.368 OA
BRANCH   7   8
ATOM      8  C   LIG d   1      -4.020  79.373 116.890  0.00  0.00     0.119 C 
BRANCH   8   9
ATOM      9  C   LIG d   1      -4.494  80.163 118.126  0.00  0.00     0.028 C 
ATOM     10  C   LIG d   1      -4.615  81.671 117.848  0.00  0.00     0.006 C 
ENDBRANCH   8   9
BRANCH   8  11
ATOM     11  C   LIG d   1      -4.813  78.064 116.917  0.00  0.00     0.028 C 
ATOM     12  C   LIG d   1      -4.061  76.926 117.625  0.00  0.00     0.006 C 
ENDBRANCH   8  11
ENDBRANCH   7   8
ENDBRANCH   1   7
BRANCH   6  13
ATOM     13  N   LIG d   1      -0.588  77.238 115.842  0.00  0.00    -0.311 N 
ATOM     14  C   LIG d   1      -0.647  75.910 115.920  0.00  0.00     0.210 C 
ATOM     15  C   LIG d   1       0.460  75.261 116.757  0.00  0.00     0.109 C 
ATOM     16  O   LIG d   1      -1.493  75.205 115.349  0.00  0.00    -0.276 OA
ATOM     17  H   LIG d   1       0.150  77.727 116.310  0.00  0.00     0.149 HD
ENDBRANCH   6  13
BRANCH   5  18
ATOM     18  N   LIG d   1      -1.043  77.105 112.824  0.00  0.00     0.381 N 
ATOM     19  H   LIG d   1      -1.958  76.813 112.545  0.00  0.00    -0.090 HD
ATOM     20  H   LIG d   1      -0.634  76.376 113.381  0.00  0.00    -0.090 HD
ATOM     21  H   LIG d   1      -0.480  77.273 112.019  0.00  0.00    -0.090 HD
ENDBRANCH   5  18
BRANCH   3  22
ATOM     22  C   LIG d   1      -2.800  81.555 113.041  0.00  0.00     0.382 C 
ATOM     23  O   LIG d   1      -4.011  81.865 112.931  0.00  0.00    -0.241 OA
ATOM     24  O   LIG d   1      -1.934  82.266 112.497  0.00  0.00    -0.241 OA
ENDBRANCH   3  22
TORSDOF 7
ENDMDL
MODEL 4
REMARK VINA RESULT:      -5.1      3.441      5.660
REMARK  7 active torsions:
REMARK  status: ('A' for Active; 'I' for Inactive)
REMARK    1  A    between atoms: C_2  and  C_3 
REMARK    2  A    between atoms: C_3  and  O_6 
REMARK    3  A    between atoms: C_3  and  C_4 
REMARK    4  A    between atoms: C_7  and  O_6 
REMARK    5  A    between atoms: C_9  and  C_10 
REMARK    6  A    between atoms: N_15  and  C_14 
REMARK    7  A    between atoms: N_20  and  C_19 
REMARK       I    between atoms: C_22  and  N_20 
ROOT
ATOM      1  C   LIG d   1      -2.771  75.748 116.420  0.00  0.00     0.161 C 
ATOM      2  C   LIG d   1      -3.221  76.749 115.543  0.00  0.00     0.016 C 
ATOM      3  C   LIG d   1      -2.466  77.215 114.442  0.00  0.00     0.038 C 
ATOM      4  C   LIG d   1      -1.266  76.602 114.053  0.00  0.00     0.028 C 
ATOM      5  C   LIG d   1      -0.531  75.924 115.204  0.00  0.00    -0.047 C 
ATOM      6  C   LIG d   1      -1.513  74.990 115.946  0.00  0.00     0.091 C 
ENDROOT
BRANCH   1   7
ATOM      7  O   LIG d   1      -3.841  74.821 116.694  0.00  0.00    -0.368 OA
BRANCH   7   8
ATOM      8  C   LIG d   1      -5.015  74.937 115.853  0.00  0.00     0.119 C 
BRANCH   8   9
ATOM      9  C   LIG d   1      -6.241  75.036 116.781  0.00  0.00     0.028 C 
ATOM     10  C   LIG d   1      -6.929  76.409 116.699  0.00  0.00     0.006 C 
ENDBRANCH   8   9
BRANCH   8  11
ATOM     11  C   LIG d   1      -5.234  73.667 115.025  0.00  0.00     0.028 C 
ATOM     12  C   LIG d   1      -6.004  72.581 115.793  0.00  0.00     0.006 C 
ENDBRANCH   8  11
ENDBRANCH   7   8
ENDBRANCH   1   7
BRANCH   6  13
ATOM     13  N   LIG d   1      -0.897  74.351 117.138  0.00  0.00    -0.311 N 
ATOM     14  C   LIG d   1      -0.217  73.207 117.087  0.00  0.00     0.210 C 
ATOM     15  C   LIG d   1       0.318  72.712 118.435  0.00  0.00     0.109 C 
ATOM     16  O   LIG d   1       0.021  72.571 116.049  0.00  0.00    -0.276 OA
ATOM     17  H   LIG d   1      -1.016  74.815 118.017  0.00  0.00     0.149 HD
ENDBRANCH   6  13
BRANCH   5  18
ATOM     18  N   LIG d   1       0.627  75.210 114.634  0.00  0.00     0.381 N 
ATOM     19  H   LIG d   1       1.333  75.096 115.334  0.00  0.00    -0.090 HD
ATOM     20  H   LIG d   1       1.011  75.759 113.885  0.00  0.00    -0.090 HD
ATOM     21  H   LIG d   1       0.343  74.319 114.290  0.00  0.00    -0.090 HD
ENDBRANCH   5  18
BRANCH   3  22
ATOM     22  C   LIG d   1      -2.892  78.334 113.742  0.00  0.00     0.382 C 
ATOM     23  O   LIG d   1      -3.613  78.199 112.724  0.00  0.00    -0.241 OA
ATOM     24  O   LIG d   1      -2.527  79.473 114.089  0.00  0.00    -0.241 OA
ENDBRANCH   3  22
TORSDOF 7
ENDMDL
MODEL 5
REMARK VINA RESULT:      -4.9     13.264     15.443
REMARK  7 active torsions:
REMARK  status: ('A' for Active; 'I' for Inactive)
REMARK    1  A    between atoms: C_2  and  C_3 
REMARK    2  A    between atoms: C_3  and  O_6 
REMARK    3  A    between atoms: C_3  and  C_4 
REMARK    4  A    between atoms: C_7  and  O_6 
REMARK    5  A    between atoms: C_9  and  C_10 
REMARK    6  A    between atoms: N_15  and  C_14 
REMARK    7  A    between atoms: N_20  and  C_19 
REMARK       I    between atoms: C_22  and  N_20 
ROOT
ATOM      1  C   LIG d   1       2.313  85.779 114.368  0.00  0.00     0.161 C 
ATOM      2  C   LIG d   1       2.543  87.107 113.970  0.00  0.00     0.016 C 
ATOM      3  C   LIG d   1       3.625  87.884 114.443  0.00  0.00     0.038 C 
ATOM      4  C   LIG d   1       4.643  87.334 115.236  0.00  0.00     0.028 C 
ATOM      5  C   LIG d   1       4.184  86.143 116.070  0.00  0.00    -0.047 C 
ATOM      6  C   LIG d   1       3.474  85.127 115.147  0.00  0.00     0.091 C 
ENDROOT
BRANCH   1   7
ATOM      7  O   LIG d   1       1.965  84.978 113.222  0.00  0.00    -0.368 OA
BRANCH   7   8
ATOM      8  C   LIG d   1       0.665  84.340 113.261  0.00  0.00     0.119 C 
BRANCH   8   9
ATOM      9  C   LIG d   1      -0.054  84.673 111.940  0.00  0.00     0.028 C 
ATOM     10  C   LIG d   1      -0.400  86.167 111.820  0.00  0.00     0.006 C 
ENDBRANCH   8   9
BRANCH   8  11
ATOM     11  C   LIG d   1      -0.215  84.935 114.364  0.00  0.00     0.028 C 
ATOM     12  C   LIG d   1      -1.075  83.878 115.075  0.00  0.00     0.006 C 
ENDBRANCH   8  11
ENDBRANCH   7   8
ENDBRANCH   1   7
BRANCH   6  13
ATOM     13  N   LIG d   1       2.919  83.970 115.897  0.00  0.00    -0.311 N 
ATOM     14  C   LIG d   1       3.576  82.824 116.069  0.00  0.00     0.210 C 
ATOM     15  C   LIG d   1       2.814  81.754 116.856  0.00  0.00     0.109 C 
ATOM     16  O   LIG d   1       4.730  82.604 115.671  0.00  0.00    -0.276 OA
ATOM     17  H   LIG d   1       2.000  84.074 116.280  0.00  0.00     0.149 HD
ENDBRANCH   6  13
BRANCH   5  18
ATOM     18  N   LIG d   1       5.372  85.583 116.741  0.00  0.00     0.381 N 
ATOM     19  H   LIG d   1       6.156  86.190 116.603  0.00  0.00    -0.090 HD
ATOM     20  H   LIG d   1       5.588  84.692 116.330  0.00  0.00    -0.090 HD
ATOM     21  H   LIG d   1       5.195  85.474 117.715  0.00  0.00    -0.090 HD
ENDBRANCH   5  18
BRANCH   3  22
ATOM     22  C   LIG d   1       3.675  89.240 114.154  0.00  0.00     0.382 C 
ATOM     23  O   LIG d   1       3.842  90.071 115.079  0.00  0.00    -0.241 OA
ATOM     24  O   LIG d   1       3.511  89.644 112.988  0.00  0.00    -0.241 OA
ENDBRANCH   3  22
TORSDOF 7
ENDMDL
MODEL 6
REMARK VINA RESULT:      -4.8     12.443     14.973
REMARK  7 active torsions:
REMARK  status: ('A' for Active; 'I' for Inactive)
REMARK    1  A    between atoms: C_2  and  C_3 
REMARK    2  A    between atoms: C_3  and  O_6 
REMARK    3  A    between atoms: C_3  and  C_4 
REMARK    4  A    between atoms: C_7  and  O_6 
REMARK    5  A    between atoms: C_9  and  C_10 
REMARK    6  A    between atoms: N_15  and  C_14 
REMARK    7  A    between atoms: N_20  and  C_19 
REMARK       I    between atoms: C_22  and  N_20 
ROOT
ATOM      1  C   LIG d   1       2.760  84.450 112.943  0.00  0.00     0.161 C 
ATOM      2  C   LIG d   1       3.535  85.619 112.868  0.00  0.00     0.016 C 
ATOM      3  C   LIG d   1       3.019  86.912 113.117  0.00  0.00     0.038 C 
ATOM      4  C   LIG d   1       1.721  87.110 113.610  0.00  0.00     0.028 C 
ATOM      5  C   LIG d   1       0.749  86.003 113.217  0.00  0.00    -0.047 C 
ATOM      6  C   LIG d   1       1.370  84.636 113.587  0.00  0.00     0.091 C 
ENDROOT
BRANCH   1   7
ATOM      7  O   LIG d   1       3.496  83.419 113.630  0.00  0.00    -0.368 OA
BRANCH   7   8
ATOM      8  C   LIG d   1       3.376  83.404 115.074  0.00  0.00     0.119 C 
BRANCH   8   9
ATOM      9  C   LIG d   1       4.750  83.788 115.656  0.00  0.00     0.028 C 
ATOM     10  C   LIG d   1       4.751  85.195 116.279  0.00  0.00     0.006 C 
ENDBRANCH   8   9
BRANCH   8  11
ATOM     11  C   LIG d   1       3.095  81.992 115.595  0.00  0.00     0.028 C 
ATOM     12  C   LIG d   1       2.714  81.009 114.477  0.00  0.00     0.006 C 
ENDBRANCH   8  11
ENDBRANCH   7   8
ENDBRANCH   1   7
BRANCH   6  13
ATOM     13  N   LIG d   1       0.520  83.494 113.160  0.00  0.00    -0.311 N 
ATOM     14  C   LIG d   1      -0.384  82.917 113.951  0.00  0.00     0.210 C 
ATOM     15  C   LIG d   1      -1.138  81.742 113.320  0.00  0.00     0.109 C 
ATOM     16  O   LIG d   1      -0.655  83.288 115.103  0.00  0.00    -0.276 OA
ATOM     17  H   LIG d   1       0.652  83.149 112.229  0.00  0.00     0.149 HD
ENDBRANCH   6  13
BRANCH   5  18
ATOM     18  N   LIG d   1      -0.527  86.264 113.910  0.00  0.00     0.381 N 
ATOM     19  H   LIG d   1      -0.695  87.249 113.950  0.00  0.00    -0.090 HD
ATOM     20  H   LIG d   1      -0.464  85.916 114.850  0.00  0.00    -0.090 HD
ATOM     21  H   LIG d   1      -1.274  85.812 113.430  0.00  0.00    -0.090 HD
ENDBRANCH   5  18
BRANCH   3  22
ATOM     22  C   LIG d   1       3.794  88.027 112.835  0.00  0.00     0.382 C 
ATOM     23  O   LIG d   1       4.985  87.886 112.465  0.00  0.00    -0.241 OA
ATOM     24  O   LIG d   1       3.332  89.173 112.989  0.00  0.00    -0.241 OA
ENDBRANCH   3  22
TORSDOF 7
ENDMDL
MODEL 7
REMARK VINA RESULT:      -4.8     13.160     15.366
REMARK  7 active torsions:
REMARK  status: ('A' for Active; 'I' for Inactive)
REMARK    1  A    between atoms: C_2  and  C_3 
REMARK    2  A    between atoms: C_3  and  O_6 
REMARK    3  A    between atoms: C_3  and  C_4 
REMARK    4  A    between atoms: C_7  and  O_6 
REMARK    5  A    between atoms: C_9  and  C_10 
REMARK    6  A    between atoms: N_15  and  C_14 
REMARK    7  A    between atoms: N_20  and  C_19 
REMARK       I    between atoms: C_22  and  N_20 
ROOT
ATOM      1  C   LIG d   1       3.191  84.924 113.513  0.00  0.00     0.161 C 
ATOM      2  C   LIG d   1       3.442  86.189 112.956  0.00  0.00     0.016 C 
ATOM      3  C   LIG d   1       4.116  87.223 113.645  0.00  0.00     0.038 C 
ATOM      4  C   LIG d   1       4.722  87.011 114.892  0.00  0.00     0.028 C 
ATOM      5  C   LIG d   1       4.059  85.905 115.707  0.00  0.00    -0.047 C 
ATOM      6  C   LIG d   1       3.942  84.638 114.830  0.00  0.00     0.091 C 
ENDROOT
BRANCH   1   7
ATOM      7  O   LIG d   1       3.473  83.898 112.542  0.00  0.00    -0.368 OA
BRANCH   7   8
ATOM      8  C   LIG d   1       2.327  83.340 111.853  0.00  0.00     0.119 C 
BRANCH   8   9
ATOM      9  C   LIG d   1       1.077  83.667 112.693  0.00  0.00     0.028 C 
ATOM     10  C   LIG d   1      -0.123  84.079 111.824  0.00  0.00     0.006 C 
ENDBRANCH   8   9
BRANCH   8  11
ATOM     11  C   LIG d   1       2.395  81.810 111.806  0.00  0.00     0.028 C 
ATOM     12  C   LIG d   1       1.937  81.153 113.117  0.00  0.00     0.006 C 
ENDBRANCH   8  11
ENDBRANCH   7   8
ENDBRANCH   1   7
BRANCH   6  13
ATOM     13  N   LIG d   1       3.228  83.533 115.523  0.00  0.00    -0.311 N 
ATOM     14  C   LIG d   1       3.851  82.513 116.111  0.00  0.00     0.210 C 
ATOM     15  C   LIG d   1       2.926  81.473 116.750  0.00  0.00     0.109 C 
ATOM     16  O   LIG d   1       5.082  82.388 116.192  0.00  0.00    -0.276 OA
ATOM     17  H   LIG d   1       2.228  83.572 115.533  0.00  0.00     0.149 HD
ENDBRANCH   6  13
BRANCH   5  18
ATOM     18  N   LIG d   1       4.873  85.696 116.919  0.00  0.00     0.381 N 
ATOM     19  H   LIG d   1       5.825  85.942 116.735  0.00  0.00    -0.090 HD
ATOM     20  H   LIG d   1       4.841  84.723 117.168  0.00  0.00    -0.090 HD
ATOM     21  H   LIG d   1       4.519  86.250 117.668  0.00  0.00    -0.090 HD
ENDBRANCH   5  18
BRANCH   3  22
ATOM     22  C   LIG d   1       4.154  88.499 113.103  0.00  0.00     0.382 C 
ATOM     23  O   LIG d   1       5.237  88.968 112.678  0.00  0.00    -0.241 OA
ATOM     24  O   LIG d   1       3.127  89.204 113.074  0.00  0.00    -0.241 OA
ENDBRANCH   3  22
TORSDOF 7
ENDMDL
MODEL 8
REMARK VINA RESULT:      -4.8      3.471      5.725
REMARK  7 active torsions:
REMARK  status: ('A' for Active; 'I' for Inactive)
REMARK    1  A    between atoms: C_2  and  C_3 
REMARK    2  A    between atoms: C_3  and  O_6 
REMARK    3  A    between atoms: C_3  and  C_4 
REMARK    4  A    between atoms: C_7  and  O_6 
REMARK    5  A    between atoms: C_9  and  C_10 
REMARK    6  A    between atoms: N_15  and  C_14 
REMARK    7  A    between atoms: N_20  and  C_19 
REMARK       I    between atoms: C_22  and  N_20 
ROOT
ATOM      1  C   LIG d   1      -3.588  75.099 116.920  0.00  0.00     0.161 C 
ATOM      2  C   LIG d   1      -4.219  73.844 116.967  0.00  0.00     0.016 C 
ATOM      3  C   LIG d   1      -5.220  73.442 116.054  0.00  0.00     0.038 C 
ATOM      4  C   LIG d   1      -5.554  74.215 114.932  0.00  0.00     0.028 C 
ATOM      5  C   LIG d   1      -5.305  75.707 115.128  0.00  0.00    -0.047 C 
ATOM      6  C   LIG d   1      -3.860  75.912 115.637  0.00  0.00     0.091 C 
ENDROOT
BRANCH   1   7
ATOM      7  O   LIG d   1      -2.170  74.941 117.122  0.00  0.00    -0.368 OA
BRANCH   7   8
ATOM      8  C   LIG d   1      -1.633  73.620 116.865  0.00  0.00     0.119 C 
BRANCH   8   9
ATOM      9  C   LIG d   1      -0.947  73.139 118.159  0.00  0.00     0.028 C 
ATOM     10  C   LIG d   1       0.562  72.909 117.972  0.00  0.00     0.006 C 
ENDBRANCH   8   9
BRANCH   8  11
ATOM     11  C   LIG d   1      -0.523  73.665 115.810  0.00  0.00     0.028 C 
ATOM     12  C   LIG d   1      -0.276  75.081 115.266  0.00  0.00     0.006 C 
ENDBRANCH   8  11
ENDBRANCH   7   8
ENDBRANCH   1   7
BRANCH   6  13
ATOM     13  N   LIG d   1      -3.561  77.336 115.936  0.00  0.00    -0.311 N 
ATOM     14  C   LIG d   1      -3.009  78.170 115.056  0.00  0.00     0.210 C 
ATOM     15  C   LIG d   1      -2.767  79.591 115.574  0.00  0.00     0.109 C 
ATOM     16  O   LIG d   1      -2.726  77.875 113.884  0.00  0.00    -0.276 OA
ATOM     17  H   LIG d   1      -3.787  77.668 116.853  0.00  0.00     0.149 HD
ENDBRANCH   6  13
BRANCH   5  18
ATOM     18  N   LIG d   1      -5.564  76.375 113.839  0.00  0.00     0.381 N 
ATOM     19  H   LIG d   1      -5.995  75.733 113.205  0.00  0.00    -0.090 HD
ATOM     20  H   LIG d   1      -4.689  76.670 113.444  0.00  0.00    -0.090 HD
ATOM     21  H   LIG d   1      -6.157  77.165 113.977  0.00  0.00    -0.090 HD
ENDBRANCH   5  18
BRANCH   3  22
ATOM     22  C   LIG d   1      -5.928  72.271 116.281  0.00  0.00     0.382 C 
ATOM     23  O   LIG d   1      -6.152  71.480 115.334  0.00  0.00    -0.241 OA
ATOM     24  O   LIG d   1      -6.383  72.018 117.413  0.00  0.00    -0.241 OA
ENDBRANCH   3  22
TORSDOF 7
ENDMDL
MODEL 9
REMARK VINA RESULT:      -4.6      2.477      3.188
REMARK  7 active torsions:
REMARK  status: ('A' for Active; 'I' for Inactive)
REMARK    1  A    between atoms: C_2  and  C_3 
REMARK    2  A    between atoms: C_3  and  O_6 
REMARK    3  A    between atoms: C_3  and  C_4 
REMARK    4  A    between atoms: C_7  and  O_6 
REMARK    5  A    between atoms: C_9  and  C_10 
REMARK    6  A    between atoms: N_15  and  C_14 
REMARK    7  A    between atoms: N_20  and  C_19 
REMARK       I    between atoms: C_22  and  N_20 
ROOT
ATOM      1  C   LIG d   1      -4.252  75.382 118.147  0.00  0.00     0.161 C 
ATOM      2  C   LIG d   1      -5.183  76.433 118.095  0.00  0.00     0.016 C 
ATOM      3  C   LIG d   1      -4.991  77.604 117.326  0.00  0.00     0.038 C 
ATOM      4  C   LIG d   1      -3.918  77.738 116.432  0.00  0.00     0.028 C 
ATOM      5  C   LIG d   1      -2.693  76.921 116.831  0.00  0.00    -0.047 C 
ATOM      6  C   LIG d   1      -3.127  75.461 117.093  0.00  0.00     0.091 C 
ENDROOT
BRANCH   1   7
ATOM      7  O   LIG d   1      -4.937  74.118 118.055  0.00  0.00    -0.368 OA
BRANCH   7   8
ATOM      8  C   LIG d   1      -6.156  74.108 117.272  0.00  0.00     0.119 C 
BRANCH   8   9
ATOM      9  C   LIG d   1      -7.233  73.383 118.100  0.00  0.00     0.028 C 
ATOM     10  C   LIG d   1      -8.580  73.294 117.363  0.00  0.00     0.006 C 
ENDBRANCH   8   9
BRANCH   8  11
ATOM     11  C   LIG d   1      -5.993  73.273 115.998  0.00  0.00     0.028 C 
ATOM     12  C   LIG d   1      -5.304  74.047 114.863  0.00  0.00     0.006 C 
ENDBRANCH   8  11
ENDBRANCH   7   8
ENDBRANCH   1   7
BRANCH   6  13
ATOM     13  N   LIG d   1      -2.004  74.612 117.570  0.00  0.00    -0.311 N 
ATOM     14  C   LIG d   1      -1.244  73.879 116.759  0.00  0.00     0.210 C 
ATOM     15  C   LIG d   1      -0.153  73.062 117.458  0.00  0.00     0.109 C 
ATOM     16  O   LIG d   1      -1.349  73.852 115.523  0.00  0.00    -0.276 OA
ATOM     17  H   LIG d   1      -1.829  74.600 118.556  0.00  0.00     0.149 HD
ENDBRANCH   6  13
BRANCH   5  18
ATOM     18  N   LIG d   1      -1.703  77.043 115.744  0.00  0.00     0.381 N 
ATOM     19  H   LIG d   1      -2.130  76.812 114.869  0.00  0.00    -0.090 HD
ATOM     20  H   LIG d   1      -0.955  76.394 115.912  0.00  0.00    -0.090 HD
ATOM     21  H   LIG d   1      -1.345  77.973 115.712  0.00  0.00    -0.090 HD
ENDBRANCH   5  18
BRANCH   3  22
ATOM     22  C   LIG d   1      -5.860  78.675 117.476  0.00  0.00     0.382 C 
ATOM     23  O   LIG d   1      -5.534  79.811 117.055  0.00  0.00    -0.241 OA
ATOM     24  O   LIG d   1      -6.946  78.528 118.068  0.00  0.00    -0.241 OA
ENDBRANCH   3  22
TORSDOF 7
ENDMDL
