MODEL 1
REMARK VINA RESULT:      -5.4      0.000      0.000
REMARK  7 active torsions:
REMARK  status: ('A' for Active; 'I' for Inactive)
REMARK    1  A    between atoms: C_2  and  C_3 
REMARK    2  A    between atoms: C_3  and  O_6 
REMARK    3  A    between atoms: C_3  and  C_4 
REMARK    4  A    between atoms: C_7  and  O_6 
REMARK    5  A    between atoms: C_9  and  C_10 
REMARK    6  A    between atoms: N_15  and  C_14 
REMARK    7  A    between atoms: N_20  and  C_19 
REMARK       I    between atoms: C_22  and  N_20 
ROOT
ATOM      1  C   LIG d   1      -4.711  74.157 116.558  0.00  0.00     0.161 C 
ATOM      2  C   LIG d   1      -5.433  72.969 116.352  0.00  0.00     0.016 C 
ATOM      3  C   LIG d   1      -6.845  72.912 116.325  0.00  0.00     0.038 C 
ATOM      4  C   LIG d   1      -7.635  74.071 116.351  0.00  0.00     0.028 C 
ATOM      5  C   LIG d   1      -6.968  75.242 117.065  0.00  0.00    -0.047 C 
ATOM      6  C   LIG d   1      -5.553  75.448 116.478  0.00  0.00     0.091 C 
ENDROOT
BRANCH   1   7
ATOM      7  O   LIG d   1      -3.605  74.223 115.636  0.00  0.00    -0.368 OA
BRANCH   7   8
ATOM      8  C   LIG d   1      -2.343  73.696 116.116  0.00  0.00     0.119 C 
BRANCH   8   9
ATOM      9  C   LIG d   1      -2.094  74.293 117.514  0.00  0.00     0.028 C 
ATOM     10  C   LIG d   1      -1.089  75.457 117.485  0.00  0.00     0.006 C 
ENDBRANCH   8   9
BRANCH   8  11
ATOM     11  C   LIG d   1      -1.173  74.180 115.254  0.00  0.00     0.028 C 
ATOM     12  C   LIG d   1      -0.390  73.025 114.610  0.00  0.00     0.006 C 
ENDBRANCH   8  11
ENDBRANCH   7   8
ENDBRANCH   1   7
BRANCH   6  13
ATOM     13  N   LIG d   1      -4.799  76.520 117.178  0.00  0.00    -0.311 N 
ATOM     14  C   LIG d   1      -4.115  77.470 116.542  0.00  0.00     0.210 C 
ATOM     15  C   LIG d   1      -3.392  78.467 117.454  0.00  0.00     0.109 C 
ATOM     16  O   LIG d   1      -4.063  77.600 115.310  0.00  0.00    -0.276 OA
ATOM     17  H   LIG d   1      -4.812  76.509 118.179  0.00  0.00     0.149 HD
ENDBRANCH   6  13
BRANCH   5  18
ATOM     18  N   LIG d   1      -7.839  76.420 116.899  0.00  0.00     0.381 N 
ATOM     19  H   LIG d   1      -8.793  76.162 117.059  0.00  0.00    -0.090 HD
ATOM     20  H   LIG d   1      -7.758  76.755 115.955  0.00  0.00    -0.090 HD
ATOM     21  H   LIG d   1      -7.570  77.137 117.537  0.00  0.00    -0.090 HD
ENDBRANCH   5  18
BRANCH   3  22
ATOM     22  C   LIG d   1      -7.483  71.681 116.310  0.00  0.00     0.382 C 
ATOM     23  O   LIG d   1      -8.696  71.607 116.000  0.00  0.00    -0.241 OA
ATOM     24  O   LIG d   1      -6.871  70.649 116.646  0.00  0.00    -0.241 OA
ENDBRANCH   3  22
TORSDOF 7
ENDMDL
MODEL 2
REMARK VINA RESULT:      -5.3      2.441      5.371
REMARK  7 active torsions:
REMARK  status: ('A' for Active; 'I' for Inactive)
REMARK    1  A    between atoms: C_2  and  C_3 
REMARK    2  A    between atoms: C_3  and  O_6 
REMARK    3  A    between atoms: C_3  and  C_4 
REMARK    4  A    between atoms: C_7  and  O_6 
REMARK    5  A    between atoms: C_9  and  C_10 
REMARK    6  A    between atoms: N_15  and  C_14 
REMARK    7  A    between atoms: N_20  and  C_19 
REMARK       I    between atoms: C_22  and  N_20 
ROOT
ATOM      1  C   LIG d   1      -4.753  75.338 117.661  0.00  0.00     0.161 C 
ATOM      2  C   LIG d   1      -5.667  76.403 117.594  0.00  0.00     0.016 C 
ATOM      3  C   LIG d   1      -5.339  77.679 117.078  0.00  0.00     0.038 C 
ATOM      4  C   LIG d   1      -4.109  77.931 116.452  0.00  0.00     0.028 C 
ATOM      5  C   LIG d   1      -2.980  77.035 116.950  0.00  0.00    -0.047 C 
ATOM      6  C   LIG d   1      -3.441  75.562 116.880  0.00  0.00     0.091 C 
ENDROOT
BRANCH   1   7
ATOM      7  O   LIG d   1      -5.391  74.120 117.230  0.00  0.00    -0.368 OA
BRANCH   7   8
ATOM      8  C   LIG d   1      -6.474  74.269 116.279  0.00  0.00     0.119 C 
BRANCH   8   9
ATOM      9  C   LIG d   1      -7.443  73.090 116.493  0.00  0.00     0.028 C 
ATOM     10  C   LIG d   1      -7.004  71.825 115.736  0.00  0.00     0.006 C 
ENDBRANCH   8   9
BRANCH   8  11
ATOM     11  C   LIG d   1      -5.974  74.127 114.839  0.00  0.00     0.028 C 
ATOM     12  C   LIG d   1      -5.929  75.468 114.089  0.00  0.00     0.006 C 
ENDBRANCH   8  11
ENDBRANCH   7   8
ENDBRANCH   1   7
BRANCH   6  13
ATOM     13  N   LIG d   1      -2.427  74.624 117.428  0.00  0.00    -0.311 N 
ATOM     14  C   LIG d   1      -1.946  73.584 116.749  0.00  0.00     0.210 C 
ATOM     15  C   LIG d   1      -0.923  72.733 117.507  0.00  0.00     0.109 C 
ATOM     16  O   LIG d   1      -2.246  73.305 115.578  0.00  0.00    -0.276 OA
ATOM     17  H   LIG d   1      -2.104  74.795 118.361  0.00  0.00     0.149 HD
ENDBRANCH   6  13
BRANCH   5  18
ATOM     18  N   LIG d   1      -1.794  77.310 116.118  0.00  0.00     0.381 N 
ATOM     19  H   LIG d   1      -1.202  77.971 116.580  0.00  0.00    -0.090 HD
ATOM     20  H   LIG d   1      -2.093  77.711 115.246  0.00  0.00    -0.090 HD
ATOM     21  H   LIG d   1      -1.293  76.466 115.949  0.00  0.00    -0.090 HD
ENDBRANCH   5  18
BRANCH   3  22
ATOM     22  C   LIG d   1      -6.232  78.729 117.223  0.00  0.00     0.382 C 
ATOM     23  O   LIG d   1      -7.345  78.535 117.769  0.00  0.00    -0.241 OA
ATOM     24  O   LIG d   1      -5.958  79.858 116.776  0.00  0.00    -0.241 OA
ENDBRANCH   3  22
TORSDOF 7
ENDMDL
MODEL 3
REMARK VINA RESULT:      -5.2     13.625     15.466
REMARK  7 active torsions:
REMARK  status: ('A' for Active; 'I' for Inactive)
REMARK    1  A    between atoms: C_2  and  C_3 
REMARK    2  A    between atoms: C_3  and  O_6 
REMARK    3  A    between atoms: C_3  and  C_4 
REMARK    4  A    between atoms: C_7  and  O_6 
REMARK    5  A    between atoms: C_9  and  C_10 
REMARK    6  A    between atoms: N_15  and  C_14 
REMARK    7  A    between atoms: N_20  and  C_19 
REMARK       I    between atoms: C_22  and  N_20 
ROOT
ATOM      1  C   LIG d   1       1.605  87.412 115.091  0.00  0.00     0.161 C 
ATOM      2  C   LIG d   1       0.402  87.407 115.817  0.00  0.00     0.016 C 
ATOM      3  C   LIG d   1      -0.003  88.469 116.659  0.00  0.00     0.038 C 
ATOM      4  C   LIG d   1       0.701  89.681 116.714  0.00  0.00     0.028 C 
ATOM      5  C   LIG d   1       2.183  89.536 116.389  0.00  0.00    -0.047 C 
ATOM      6  C   LIG d   1       2.332  88.773 115.053  0.00  0.00     0.091 C 
ENDROOT
BRANCH   1   7
ATOM      7  O   LIG d   1       1.370  86.932 113.753  0.00  0.00    -0.368 OA
BRANCH   7   8
ATOM      8  C   LIG d   1       1.695  85.541 113.509  0.00  0.00     0.119 C 
BRANCH   8   9
ATOM      9  C   LIG d   1       3.164  85.483 113.046  0.00  0.00     0.028 C 
ATOM     10  C   LIG d   1       3.423  86.354 111.806  0.00  0.00     0.006 C 
ENDBRANCH   8   9
BRANCH   8  11
ATOM     11  C   LIG d   1       0.880  84.975 112.342  0.00  0.00     0.028 C 
ATOM     12  C   LIG d   1      -0.310  85.868 111.958  0.00  0.00     0.006 C 
ENDBRANCH   8  11
ENDBRANCH   7   8
ENDBRANCH   1   7
BRANCH   6  13
ATOM     13  N   LIG d   1       3.753  88.514 114.702  0.00  0.00    -0.311 N 
ATOM     14  C   LIG d   1       4.458  89.290 113.882  0.00  0.00     0.210 C 
ATOM     15  C   LIG d   1       5.900  88.833 113.639  0.00  0.00     0.109 C 
ATOM     16  O   LIG d   1       4.037  90.332 113.356  0.00  0.00    -0.276 OA
ATOM     17  H   LIG d   1       4.183  87.707 115.109  0.00  0.00     0.149 HD
ENDBRANCH   6  13
BRANCH   5  18
ATOM     18  N   LIG d   1       2.765  90.891 116.348  0.00  0.00     0.381 N 
ATOM     19  H   LIG d   1       2.096  91.557 116.679  0.00  0.00    -0.090 HD
ATOM     20  H   LIG d   1       2.993  91.119 115.396  0.00  0.00    -0.090 HD
ATOM     21  H   LIG d   1       3.586  90.927 116.911  0.00  0.00    -0.090 HD
ENDBRANCH   5  18
BRANCH   3  22
ATOM     22  C   LIG d   1      -1.103  88.307 117.487  0.00  0.00     0.382 C 
ATOM     23  O   LIG d   1      -2.080  89.089 117.392  0.00  0.00    -0.241 OA
ATOM     24  O   LIG d   1      -1.113  87.417 118.358  0.00  0.00    -0.241 OA
ENDBRANCH   3  22
TORSDOF 7
ENDMDL
MODEL 4
REMARK VINA RESULT:      -5.0     11.769     15.196
REMARK  7 active torsions:
REMARK  status: ('A' for Active; 'I' for Inactive)
REMARK    1  A    between atoms: C_2  and  C_3 
REMARK    2  A    between atoms: C_3  and  O_6 
REMARK    3  A    between atoms: C_3  and  C_4 
REMARK    4  A    between atoms: C_7  and  O_6 
REMARK    5  A    between atoms: C_9  and  C_10 
REMARK    6  A    between atoms: N_15  and  C_14 
REMARK    7  A    between atoms: N_20  and  C_19 
REMARK       I    between atoms: C_22  and  N_20 
ROOT
ATOM      1  C   LIG d   1     -15.863  65.854 114.215  0.00  0.00     0.161 C 
ATOM      2  C   LIG d   1     -15.468  66.714 113.177  0.00  0.00     0.016 C 
ATOM      3  C   LIG d   1     -14.523  67.753 113.345  0.00  0.00     0.038 C 
ATOM      4  C   LIG d   1     -13.793  67.907 114.533  0.00  0.00     0.028 C 
ATOM      5  C   LIG d   1     -14.523  67.381 115.764  0.00  0.00    -0.047 C 
ATOM      6  C   LIG d   1     -14.996  65.936 115.489  0.00  0.00     0.091 C 
ENDROOT
BRANCH   1   7
ATOM      7  O   LIG d   1     -15.916  64.497 113.731  0.00  0.00    -0.368 OA
BRANCH   7   8
ATOM      8  C   LIG d   1     -17.230  63.889 113.683  0.00  0.00     0.119 C 
BRANCH   8   9
ATOM      9  C   LIG d   1     -18.229  64.896 114.286  0.00  0.00     0.028 C 
ATOM     10  C   LIG d   1     -19.471  65.093 113.401  0.00  0.00     0.006 C 
ENDBRANCH   8   9
BRANCH   8  11
ATOM     11  C   LIG d   1     -17.306  62.653 114.585  0.00  0.00     0.028 C 
ATOM     12  C   LIG d   1     -18.445  61.699 114.194  0.00  0.00     0.006 C 
ENDBRANCH   8  11
ENDBRANCH   7   8
ENDBRANCH   1   7
BRANCH   6  13
ATOM     13  N   LIG d   1     -15.792  65.375 116.612  0.00  0.00    -0.311 N 
ATOM     14  C   LIG d   1     -15.396  64.335 117.343  0.00  0.00     0.210 C 
ATOM     15  C   LIG d   1     -16.376  63.906 118.440  0.00  0.00     0.109 C 
ATOM     16  O   LIG d   1     -14.312  63.748 117.210  0.00  0.00    -0.276 OA
ATOM     17  H   LIG d   1     -16.671  65.811 116.809  0.00  0.00     0.149 HD
ENDBRANCH   6  13
BRANCH   5  18
ATOM     18  N   LIG d   1     -13.595  67.478 116.907  0.00  0.00     0.381 N 
ATOM     19  H   LIG d   1     -13.994  67.027 117.706  0.00  0.00    -0.090 HD
ATOM     20  H   LIG d   1     -13.454  68.448 117.130  0.00  0.00    -0.090 HD
ATOM     21  H   LIG d   1     -12.724  67.052 116.676  0.00  0.00    -0.090 HD
ENDBRANCH   5  18
BRANCH   3  22
ATOM     22  C   LIG d   1     -14.331  68.677 112.329  0.00  0.00     0.382 C 
ATOM     23  O   LIG d   1     -13.198  68.806 111.805  0.00  0.00    -0.241 OA
ATOM     24  O   LIG d   1     -15.264  69.415 111.961  0.00  0.00    -0.241 OA
ENDBRANCH   3  22
TORSDOF 7
ENDMDL
MODEL 5
REMARK VINA RESULT:      -4.9     11.899     14.733
REMARK  7 active torsions:
REMARK  status: ('A' for Active; 'I' for Inactive)
REMARK    1  A    between atoms: C_2  and  C_3 
REMARK    2  A    between atoms: C_3  and  O_6 
REMARK    3  A    between atoms: C_3  and  C_4 
REMARK    4  A    between atoms: C_7  and  O_6 
REMARK    5  A    between atoms: C_9  and  C_10 
REMARK    6  A    between atoms: N_15  and  C_14 
REMARK    7  A    between atoms: N_20  and  C_19 
REMARK       I    between atoms: C_22  and  N_20 
ROOT
ATOM      1  C   LIG d   1     -14.817  66.019 115.977  0.00  0.00     0.161 C 
ATOM      2  C   LIG d   1     -14.488  67.167 115.237  0.00  0.00     0.016 C 
ATOM      3  C   LIG d   1     -14.911  67.384 113.906  0.00  0.00     0.038 C 
ATOM      4  C   LIG d   1     -15.825  66.531 113.271  0.00  0.00     0.028 C 
ATOM      5  C   LIG d   1     -15.786  65.100 113.798  0.00  0.00    -0.047 C 
ATOM      6  C   LIG d   1     -15.905  65.130 115.339  0.00  0.00     0.091 C 
ENDROOT
BRANCH   1   7
ATOM      7  O   LIG d   1     -15.197  66.393 117.316  0.00  0.00    -0.368 OA
BRANCH   7   8
ATOM      8  C   LIG d   1     -15.684  67.747 117.486  0.00  0.00     0.119 C 
BRANCH   8   9
ATOM      9  C   LIG d   1     -14.804  68.424 118.555  0.00  0.00     0.028 C 
ATOM     10  C   LIG d   1     -13.331  67.991 118.462  0.00  0.00     0.006 C 
ENDBRANCH   8   9
BRANCH   8  11
ATOM     11  C   LIG d   1     -17.103  67.761 118.061  0.00  0.00     0.028 C 
ATOM     12  C   LIG d   1     -17.853  66.440 117.829  0.00  0.00     0.006 C 
ENDBRANCH   8  11
ENDBRANCH   7   8
ENDBRANCH   1   7
BRANCH   6  13
ATOM     13  N   LIG d   1     -15.791  63.777 115.942  0.00  0.00    -0.311 N 
ATOM     14  C   LIG d   1     -16.842  63.014 116.237  0.00  0.00     0.210 C 
ATOM     15  C   LIG d   1     -16.502  61.662 116.871  0.00  0.00     0.109 C 
ATOM     16  O   LIG d   1     -18.022  63.315 116.003  0.00  0.00    -0.276 OA
ATOM     17  H   LIG d   1     -14.868  63.440 116.136  0.00  0.00     0.149 HD
ENDBRANCH   6  13
BRANCH   5  18
ATOM     18  N   LIG d   1     -16.880  64.355 113.147  0.00  0.00     0.381 N 
ATOM     19  H   LIG d   1     -17.442  63.904 113.841  0.00  0.00    -0.090 HD
ATOM     20  H   LIG d   1     -16.484  63.648 112.554  0.00  0.00    -0.090 HD
ATOM     21  H   LIG d   1     -17.442  64.976 112.607  0.00  0.00    -0.090 HD
ENDBRANCH   5  18
BRANCH   3  22
ATOM     22  C   LIG d   1     -14.387  68.444 113.182  0.00  0.00     0.382 C 
ATOM     23  O   LIG d   1     -14.799  68.674 112.020  0.00  0.00    -0.241 OA
ATOM     24  O   LIG d   1     -13.476  69.147 113.660  0.00  0.00    -0.241 OA
ENDBRANCH   3  22
TORSDOF 7
ENDMDL
MODEL 6
REMARK VINA RESULT:      -4.8     11.975     15.867
REMARK  7 active torsions:
REMARK  status: ('A' for Active; 'I' for Inactive)
REMARK    1  A    between atoms: C_2  and  C_3 
REMARK    2  A    between atoms: C_3  and  O_6 
REMARK    3  A    between atoms: C_3  and  C_4 
REMARK    4  A    between atoms: C_7  and  O_6 
REMARK    5  A    between atoms: C_9  and  C_10 
REMARK    6  A    between atoms: N_15  and  C_14 
REMARK    7  A    between atoms: N_20  and  C_19 
REMARK       I    between atoms: C_22  and  N_20 
ROOT
ATOM      1  C   LIG d   1     -15.618  64.987 116.512  0.00  0.00     0.161 C 
ATOM      2  C   LIG d   1     -14.923  66.208 116.538  0.00  0.00     0.016 C 
ATOM      3  C   LIG d   1     -14.605  66.947 115.375  0.00  0.00     0.038 C 
ATOM      4  C   LIG d   1     -15.095  66.588 114.111  0.00  0.00     0.028 C 
ATOM      5  C   LIG d   1     -15.373  65.095 113.970  0.00  0.00    -0.047 C 
ATOM      6  C   LIG d   1     -16.258  64.636 115.152  0.00  0.00     0.091 C 
ENDROOT
BRANCH   1   7
ATOM      7  O   LIG d   1     -16.613  64.970 117.554  0.00  0.00    -0.368 OA
BRANCH   7   8
ATOM      8  C   LIG d   1     -17.798  65.769 117.317  0.00  0.00     0.119 C 
BRANCH   8   9
ATOM      9  C   LIG d   1     -18.010  66.661 118.555  0.00  0.00     0.028 C 
ATOM     10  C   LIG d   1     -17.504  68.097 118.338  0.00  0.00     0.006 C 
ENDBRANCH   8   9
BRANCH   8  11
ATOM     11  C   LIG d   1     -19.052  64.894 117.228  0.00  0.00     0.028 C 
ATOM     12  C   LIG d   1     -20.086  65.434 116.227  0.00  0.00     0.006 C 
ENDBRANCH   8  11
ENDBRANCH   7   8
ENDBRANCH   1   7
BRANCH   6  13
ATOM     13  N   LIG d   1     -16.507  63.171 115.138  0.00  0.00    -0.311 N 
ATOM     14  C   LIG d   1     -17.573  62.615 114.565  0.00  0.00     0.210 C 
ATOM     15  C   LIG d   1     -17.648  61.089 114.682  0.00  0.00     0.109 C 
ATOM     16  O   LIG d   1     -18.448  63.237 113.944  0.00  0.00    -0.276 OA
ATOM     17  H   LIG d   1     -15.831  62.589 115.592  0.00  0.00     0.149 HD
ENDBRANCH   6  13
BRANCH   5  18
ATOM     18  N   LIG d   1     -16.008  64.882 112.656  0.00  0.00     0.381 N 
ATOM     19  H   LIG d   1     -15.659  64.039 112.244  0.00  0.00    -0.090 HD
ATOM     20  H   LIG d   1     -15.771  65.649 112.052  0.00  0.00    -0.090 HD
ATOM     21  H   LIG d   1     -16.997  64.824 112.761  0.00  0.00    -0.090 HD
ENDBRANCH   5  18
BRANCH   3  22
ATOM     22  C   LIG d   1     -13.753  68.038 115.466  0.00  0.00     0.382 C 
ATOM     23  O   LIG d   1     -12.835  68.047 116.321  0.00  0.00    -0.241 OA
ATOM     24  O   LIG d   1     -13.919  69.031 114.733  0.00  0.00    -0.241 OA
ENDBRANCH   3  22
TORSDOF 7
ENDMDL
MODEL 7
REMARK VINA RESULT:      -4.8      2.626      4.929
REMARK  7 active torsions:
REMARK  status: ('A' for Active; 'I' for Inactive)
REMARK    1  A    between atoms: C_2  and  C_3 
REMARK    2  A    between atoms: C_3  and  O_6 
REMARK    3  A    between atoms: C_3  and  C_4 
REMARK    4  A    between atoms: C_7  and  O_6 
REMARK    5  A    between atoms: C_9  and  C_10 
REMARK    6  A    between atoms: N_15  and  C_14 
REMARK    7  A    between atoms: N_20  and  C_19 
REMARK       I    between atoms: C_22  and  N_20 
ROOT
ATOM      1  C   LIG d   1      -3.705  75.666 117.973  0.00  0.00     0.161 C 
ATOM      2  C   LIG d   1      -2.442  75.051 117.945  0.00  0.00     0.016 C 
ATOM      3  C   LIG d   1      -2.101  74.013 117.048  0.00  0.00     0.038 C 
ATOM      4  C   LIG d   1      -2.958  73.620 116.009  0.00  0.00     0.028 C 
ATOM      5  C   LIG d   1      -4.432  73.862 116.316  0.00  0.00    -0.047 C 
ATOM      6  C   LIG d   1      -4.616  75.327 116.774  0.00  0.00     0.091 C 
ENDROOT
BRANCH   1   7
ATOM      7  O   LIG d   1      -3.551  77.094 118.097  0.00  0.00    -0.368 OA
BRANCH   7   8
ATOM      8  C   LIG d   1      -3.586  77.848 116.861  0.00  0.00     0.119 C 
BRANCH   8   9
ATOM      9  C   LIG d   1      -2.165  78.388 116.608  0.00  0.00     0.028 C 
ATOM     10  C   LIG d   1      -1.453  77.653 115.461  0.00  0.00     0.006 C 
ENDBRANCH   8   9
BRANCH   8  11
ATOM     11  C   LIG d   1      -4.474  79.089 116.991  0.00  0.00     0.028 C 
ATOM     12  C   LIG d   1      -5.386  79.043 118.228  0.00  0.00     0.006 C 
ENDBRANCH   8  11
ENDBRANCH   7   8
ENDBRANCH   1   7
BRANCH   6  13
ATOM     13  N   LIG d   1      -6.016  75.625 117.174  0.00  0.00    -0.311 N 
ATOM     14  C   LIG d   1      -6.905  76.193 116.362  0.00  0.00     0.210 C 
ATOM     15  C   LIG d   1      -8.286  76.430 116.981  0.00  0.00     0.109 C 
ATOM     16  O   LIG d   1      -6.691  76.495 115.179  0.00  0.00    -0.276 OA
ATOM     17  H   LIG d   1      -6.284  75.384 118.108  0.00  0.00     0.149 HD
ENDBRANCH   6  13
BRANCH   5  18
ATOM     18  N   LIG d   1      -5.200  73.537 115.098  0.00  0.00     0.381 N 
ATOM     19  H   LIG d   1      -4.685  72.889 114.537  0.00  0.00    -0.090 HD
ATOM     20  H   LIG d   1      -5.335  74.378 114.565  0.00  0.00    -0.090 HD
ATOM     21  H   LIG d   1      -6.082  73.146 115.346  0.00  0.00    -0.090 HD
ENDBRANCH   5  18
BRANCH   3  22
ATOM     22  C   LIG d   1      -0.906  73.329 117.211  0.00  0.00     0.382 C 
ATOM     23  O   LIG d   1      -0.464  72.610 116.282  0.00  0.00    -0.241 OA
ATOM     24  O   LIG d   1      -0.287  73.387 118.290  0.00  0.00    -0.241 OA
ENDBRANCH   3  22
TORSDOF 7
ENDMDL
MODEL 8
REMARK VINA RESULT:      -4.7      2.576      6.370
REMARK  7 active torsions:
REMARK  status: ('A' for Active; 'I' for Inactive)
REMARK    1  A    between atoms: C_2  and  C_3 
REMARK    2  A    between atoms: C_3  and  O_6 
REMARK    3  A    between atoms: C_3  and  C_4 
REMARK    4  A    between atoms: C_7  and  O_6 
REMARK    5  A    between atoms: C_9  and  C_10 
REMARK    6  A    between atoms: N_15  and  C_14 
REMARK    7  A    between atoms: N_20  and  C_19 
REMARK       I    between atoms: C_22  and  N_20 
ROOT
ATOM      1  C   LIG d   1      -3.944  75.857 117.443  0.00  0.00     0.161 C 
ATOM      2  C   LIG d   1      -2.832  76.590 117.887  0.00  0.00     0.016 C 
ATOM      3  C   LIG d   1      -1.496  76.229 117.598  0.00  0.00     0.038 C 
ATOM      4  C   LIG d   1      -1.184  75.187 116.712  0.00  0.00     0.028 C 
ATOM      5  C   LIG d   1      -2.261  74.108 116.644  0.00  0.00    -0.047 C 
ATOM      6  C   LIG d   1      -3.628  74.780 116.383  0.00  0.00     0.091 C 
ENDROOT
BRANCH   1   7
ATOM      7  O   LIG d   1      -4.960  76.756 116.956  0.00  0.00    -0.368 OA
BRANCH   7   8
ATOM      8  C   LIG d   1      -5.983  77.138 117.908  0.00  0.00     0.119 C 
BRANCH   8   9
ATOM      9  C   LIG d   1      -7.076  76.052 117.873  0.00  0.00     0.028 C 
ATOM     10  C   LIG d   1      -8.024  76.212 116.673  0.00  0.00     0.006 C 
ENDBRANCH   8   9
BRANCH   8  11
ATOM     11  C   LIG d   1      -6.683  78.432 117.485  0.00  0.00     0.028 C 
ATOM     12  C   LIG d   1      -5.718  79.623 117.375  0.00  0.00     0.006 C 
ENDBRANCH   8  11
ENDBRANCH   7   8
ENDBRANCH   1   7
BRANCH   6  13
ATOM     13  N   LIG d   1      -4.749  73.804 116.385  0.00  0.00    -0.311 N 
ATOM     14  C   LIG d   1      -5.557  73.614 115.344  0.00  0.00     0.210 C 
ATOM     15  C   LIG d   1      -6.661  72.574 115.563  0.00  0.00     0.109 C 
ATOM     16  O   LIG d   1      -5.445  74.184 114.248  0.00  0.00    -0.276 OA
ATOM     17  H   LIG d   1      -4.892  73.276 117.224  0.00  0.00     0.149 HD
ENDBRANCH   6  13
BRANCH   5  18
ATOM     18  N   LIG d   1      -1.872  73.158 115.584  0.00  0.00     0.381 N 
ATOM     19  H   LIG d   1      -2.683  72.871 115.073  0.00  0.00    -0.090 HD
ATOM     20  H   LIG d   1      -1.464  72.345 116.011  0.00  0.00    -0.090 HD
ATOM     21  H   LIG d   1      -1.216  73.584 114.968  0.00  0.00    -0.090 HD
ENDBRANCH   5  18
BRANCH   3  22
ATOM     22  C   LIG d   1      -0.453  76.890 118.230  0.00  0.00     0.382 C 
ATOM     23  O   LIG d   1      -0.528  78.125 118.438  0.00  0.00    -0.241 OA
ATOM     24  O   LIG d   1       0.580  76.274 118.555  0.00  0.00    -0.241 OA
ENDBRANCH   3  22
TORSDOF 7
ENDMDL
MODEL 9
REMARK VINA RESULT:      -4.7     13.306     15.126
REMARK  7 active torsions:
REMARK  status: ('A' for Active; 'I' for Inactive)
REMARK    1  A    between atoms: C_2  and  C_3 
REMARK    2  A    between atoms: C_3  and  O_6 
REMARK    3  A    between atoms: C_3  and  C_4 
REMARK    4  A    between atoms: C_7  and  O_6 
REMARK    5  A    between atoms: C_9  and  C_10 
REMARK    6  A    between atoms: N_15  and  C_14 
REMARK    7  A    between atoms: N_20  and  C_19 
REMARK       I    between atoms: C_22  and  N_20 
ROOT
ATOM      1  C   LIG d   1       1.868  87.025 114.805  0.00  0.00     0.161 C 
ATOM      2  C   LIG d   1       0.763  86.476 114.132  0.00  0.00     0.016 C 
ATOM      3  C   LIG d   1       0.813  86.025 112.793  0.00  0.00     0.038 C 
ATOM      4  C   LIG d   1       2.018  85.952 112.080  0.00  0.00     0.028 C 
ATOM      5  C   LIG d   1       3.060  86.964 112.546  0.00  0.00    -0.047 C 
ATOM      6  C   LIG d   1       3.219  86.851 114.079  0.00  0.00     0.091 C 
ENDROOT
BRANCH   1   7
ATOM      7  O   LIG d   1       1.944  86.487 116.140  0.00  0.00    -0.368 OA
BRANCH   7   8
ATOM      8  C   LIG d   1       1.603  87.397 117.214  0.00  0.00     0.119 C 
BRANCH   8   9
ATOM      9  C   LIG d   1       0.209  86.996 117.735  0.00  0.00     0.028 C 
ATOM     10  C   LIG d   1      -0.871  88.030 117.378  0.00  0.00     0.006 C 
ENDBRANCH   8   9
BRANCH   8  11
ATOM     11  C   LIG d   1       1.446  88.831 116.701  0.00  0.00     0.028 C 
ATOM     12  C   LIG d   1       2.433  89.810 117.357  0.00  0.00     0.006 C 
ENDBRANCH   8  11
ENDBRANCH   7   8
ENDBRANCH   1   7
BRANCH   6  13
ATOM     13  N   LIG d   1       4.158  87.863 114.628  0.00  0.00    -0.311 N 
ATOM     14  C   LIG d   1       4.242  89.110 114.168  0.00  0.00     0.210 C 
ATOM     15  C   LIG d   1       5.291  89.986 114.862  0.00  0.00     0.109 C 
ATOM     16  O   LIG d   1       3.526  89.584 113.273  0.00  0.00    -0.276 OA
ATOM     17  H   LIG d   1       4.755  87.573 115.378  0.00  0.00     0.149 HD
ENDBRANCH   6  13
BRANCH   5  18
ATOM     18  N   LIG d   1       4.310  86.686 111.813  0.00  0.00     0.381 N 
ATOM     19  H   LIG d   1       4.599  85.743 111.982  0.00  0.00    -0.090 HD
ATOM     20  H   LIG d   1       5.029  87.301 112.151  0.00  0.00    -0.090 HD
ATOM     21  H   LIG d   1       4.172  86.828 110.837  0.00  0.00    -0.090 HD
ENDBRANCH   5  18
BRANCH   3  22
ATOM     22  C   LIG d   1      -0.360  85.678 112.141  0.00  0.00     0.382 C 
ATOM     23  O   LIG d   1      -1.178  86.568 111.805  0.00  0.00    -0.241 OA
ATOM     24  O   LIG d   1      -0.633  84.482 111.925  0.00  0.00    -0.241 OA
ENDBRANCH   3  22
TORSDOF 7
ENDMDL
