MODEL 1
REMARK VINA RESULT:      -5.3      0.000      0.000
REMARK  7 active torsions:
REMARK  status: ('A' for Active; 'I' for Inactive)
REMARK    1  A    between atoms: C_2  and  C_3 
REMARK    2  A    between atoms: C_3  and  O_6 
REMARK    3  A    between atoms: C_3  and  C_4 
REMARK    4  A    between atoms: C_7  and  O_6 
REMARK    5  A    between atoms: C_9  and  C_10 
REMARK    6  A    between atoms: N_15  and  C_14 
REMARK    7  A    between atoms: N_20  and  C_19 
REMARK       I    between atoms: C_22  and  N_20 
ROOT
ATOM      1  C   LIG d   1      -2.775  76.403 115.241  0.00  0.00     0.161 C 
ATOM      2  C   LIG d   1      -2.445  75.523 116.284  0.00  0.00     0.016 C 
ATOM      3  C   LIG d   1      -1.384  75.753 117.191  0.00  0.00     0.038 C 
ATOM      4  C   LIG d   1      -0.673  76.962 117.207  0.00  0.00     0.028 C 
ATOM      5  C   LIG d   1      -0.639  77.664 115.854  0.00  0.00    -0.047 C 
ATOM      6  C   LIG d   1      -2.082  77.780 115.312  0.00  0.00     0.091 C 
ENDROOT
BRANCH   1   7
ATOM      7  O   LIG d   1      -4.206  76.566 115.173  0.00  0.00    -0.368 OA
BRANCH   7   8
ATOM      8  C   LIG d   1      -4.984  75.743 116.076  0.00  0.00     0.119 C 
BRANCH   8   9
ATOM      9  C   LIG d   1      -5.912  74.863 115.217  0.00  0.00     0.028 C 
ATOM     10  C   LIG d   1      -6.989  74.153 116.054  0.00  0.00     0.006 C 
ENDBRANCH   8   9
BRANCH   8  11
ATOM     11  C   LIG d   1      -5.919  76.595 116.940  0.00  0.00     0.028 C 
ATOM     12  C   LIG d   1      -5.162  77.486 117.938  0.00  0.00     0.006 C 
ENDBRANCH   8  11
ENDBRANCH   7   8
ENDBRANCH   1   7
BRANCH   6  13
ATOM     13  N   LIG d   1      -2.130  78.379 113.953  0.00  0.00    -0.311 N 
ATOM     14  C   LIG d   1      -2.380  79.668 113.728  0.00  0.00     0.210 C 
ATOM     15  C   LIG d   1      -2.404  80.074 112.252  0.00  0.00     0.109 C 
ATOM     16  O   LIG d   1      -2.552  80.520 114.613  0.00  0.00    -0.276 OA
ATOM     17  H   LIG d   1      -1.971  77.765 113.178  0.00  0.00     0.149 HD
ENDBRANCH   6  13
BRANCH   5  18
ATOM     18  N   LIG d   1       0.014  78.972 116.047  0.00  0.00     0.381 N 
ATOM     19  H   LIG d   1       0.001  79.218 117.016  0.00  0.00    -0.090 HD
ATOM     20  H   LIG d   1      -0.500  79.670 115.538  0.00  0.00    -0.090 HD
ATOM     21  H   LIG d   1       0.954  78.937 115.718  0.00  0.00    -0.090 HD
ENDBRANCH   5  18
BRANCH   3  22
ATOM     22  C   LIG d   1      -1.000  74.750 118.068  0.00  0.00     0.382 C 
ATOM     23  O   LIG d   1       0.157  74.752 118.554  0.00  0.00    -0.241 OA
ATOM     24  O   LIG d   1      -1.780  73.820 118.344  0.00  0.00    -0.241 OA
ENDBRANCH   3  22
TORSDOF 7
ENDMDL
MODEL 2
REMARK VINA RESULT:      -5.2      8.728     12.047
REMARK  7 active torsions:
REMARK  status: ('A' for Active; 'I' for Inactive)
REMARK    1  A    between atoms: C_2  and  C_3 
REMARK    2  A    between atoms: C_3  and  O_6 
REMARK    3  A    between atoms: C_3  and  C_4 
REMARK    4  A    between atoms: C_7  and  O_6 
REMARK    5  A    between atoms: C_9  and  C_10 
REMARK    6  A    between atoms: N_15  and  C_14 
REMARK    7  A    between atoms: N_20  and  C_19 
REMARK       I    between atoms: C_22  and  N_20 
ROOT
ATOM      1  C   LIG d   1       1.869  86.942 115.230  0.00  0.00     0.161 C 
ATOM      2  C   LIG d   1       2.783  87.863 114.690  0.00  0.00     0.016 C 
ATOM      3  C   LIG d   1       3.240  87.812 113.353  0.00  0.00     0.038 C 
ATOM      4  C   LIG d   1       2.696  86.921 112.417  0.00  0.00     0.028 C 
ATOM      5  C   LIG d   1       2.140  85.647 113.044  0.00  0.00    -0.047 C 
ATOM      6  C   LIG d   1       1.180  86.031 114.193  0.00  0.00     0.091 C 
ENDROOT
BRANCH   1   7
ATOM      7  O   LIG d   1       0.884  87.638 116.020  0.00  0.00    -0.368 OA
BRANCH   7   8
ATOM      8  C   LIG d   1       1.014  87.511 117.457  0.00  0.00     0.119 C 
BRANCH   8   9
ATOM      9  C   LIG d   1      -0.407  87.527 118.053  0.00  0.00     0.028 C 
ATOM     10  C   LIG d   1      -1.485  87.184 117.011  0.00  0.00     0.006 C 
ENDBRANCH   8   9
BRANCH   8  11
ATOM     11  C   LIG d   1       1.722  88.726 118.062  0.00  0.00     0.028 C 
ATOM     12  C   LIG d   1       1.301  90.050 117.404  0.00  0.00     0.006 C 
ENDBRANCH   8  11
ENDBRANCH   7   8
ENDBRANCH   1   7
BRANCH   6  13
ATOM     13  N   LIG d   1       0.657  84.843 114.916  0.00  0.00    -0.311 N 
ATOM     14  C   LIG d   1      -0.525  84.287 114.655  0.00  0.00     0.210 C 
ATOM     15  C   LIG d   1      -0.880  83.081 115.530  0.00  0.00     0.109 C 
ATOM     16  O   LIG d   1      -1.298  84.658 113.759  0.00  0.00    -0.276 OA
ATOM     17  H   LIG d   1       1.234  84.457 115.638  0.00  0.00     0.149 HD
ENDBRANCH   6  13
BRANCH   5  18
ATOM     18  N   LIG d   1       1.482  84.873 111.975  0.00  0.00     0.381 N 
ATOM     19  H   LIG d   1       1.670  83.898 112.097  0.00  0.00    -0.090 HD
ATOM     20  H   LIG d   1       1.859  85.159 111.088  0.00  0.00    -0.090 HD
ATOM     21  H   LIG d   1       0.499  85.034 111.993  0.00  0.00    -0.090 HD
ENDBRANCH   5  18
BRANCH   3  22
ATOM     22  C   LIG d   1       4.283  88.633 112.952  0.00  0.00     0.382 C 
ATOM     23  O   LIG d   1       5.385  88.132 112.622  0.00  0.00    -0.241 OA
ATOM     24  O   LIG d   1       4.150  89.872 112.958  0.00  0.00    -0.241 OA
ENDBRANCH   3  22
TORSDOF 7
ENDMDL
MODEL 3
REMARK VINA RESULT:      -5.0      1.809      2.038
REMARK  7 active torsions:
REMARK  status: ('A' for Active; 'I' for Inactive)
REMARK    1  A    between atoms: C_2  and  C_3 
REMARK    2  A    between atoms: C_3  and  O_6 
REMARK    3  A    between atoms: C_3  and  C_4 
REMARK    4  A    between atoms: C_7  and  O_6 
REMARK    5  A    between atoms: C_9  and  C_10 
REMARK    6  A    between atoms: N_15  and  C_14 
REMARK    7  A    between atoms: N_20  and  C_19 
REMARK       I    between atoms: C_22  and  N_20 
ROOT
ATOM      1  C   LIG d   1      -2.662  77.424 115.280  0.00  0.00     0.161 C 
ATOM      2  C   LIG d   1      -2.158  76.116 115.376  0.00  0.00     0.016 C 
ATOM      3  C   LIG d   1      -0.851  75.816 115.823  0.00  0.00     0.038 C 
ATOM      4  C   LIG d   1      -0.004  76.802 116.352  0.00  0.00     0.028 C 
ATOM      5  C   LIG d   1      -0.284  78.198 115.805  0.00  0.00    -0.047 C 
ATOM      6  C   LIG d   1      -1.792  78.503 115.957  0.00  0.00     0.091 C 
ENDROOT
BRANCH   1   7
ATOM      7  O   LIG d   1      -4.007  77.469 115.795  0.00  0.00    -0.368 OA
BRANCH   7   8
ATOM      8  C   LIG d   1      -4.306  76.553 116.877  0.00  0.00     0.119 C 
BRANCH   8   9
ATOM      9  C   LIG d   1      -5.694  75.943 116.598  0.00  0.00     0.028 C 
ATOM     10  C   LIG d   1      -5.776  75.281 115.212  0.00  0.00     0.006 C 
ENDBRANCH   8   9
BRANCH   8  11
ATOM     11  C   LIG d   1      -4.449  77.293 118.211  0.00  0.00     0.028 C 
ATOM     12  C   LIG d   1      -4.905  78.750 118.037  0.00  0.00     0.006 C 
ENDBRANCH   8  11
ENDBRANCH   7   8
ENDBRANCH   1   7
BRANCH   6  13
ATOM     13  N   LIG d   1      -2.166  79.816 115.370  0.00  0.00    -0.311 N 
ATOM     14  C   LIG d   1      -2.258  80.938 116.082  0.00  0.00     0.210 C 
ATOM     15  C   LIG d   1      -2.678  82.177 115.285  0.00  0.00     0.109 C 
ATOM     16  O   LIG d   1      -2.001  81.031 117.291  0.00  0.00    -0.276 OA
ATOM     17  H   LIG d   1      -2.361  79.838 114.388  0.00  0.00     0.149 HD
ENDBRANCH   6  13
BRANCH   5  18
ATOM     18  N   LIG d   1       0.575  79.145 116.541  0.00  0.00     0.381 N 
ATOM     19  H   LIG d   1       0.020  79.681 117.178  0.00  0.00    -0.090 HD
ATOM     20  H   LIG d   1       1.000  79.776 115.885  0.00  0.00    -0.090 HD
ATOM     21  H   LIG d   1       1.280  78.649 117.040  0.00  0.00    -0.090 HD
ENDBRANCH   5  18
BRANCH   3  22
ATOM     22  C   LIG d   1      -0.365  74.523 115.707  0.00  0.00     0.382 C 
ATOM     23  O   LIG d   1      -0.140  73.843 116.737  0.00  0.00    -0.241 OA
ATOM     24  O   LIG d   1      -0.105  74.044 114.587  0.00  0.00    -0.241 OA
ENDBRANCH   3  22
TORSDOF 7
ENDMDL
MODEL 4
REMARK VINA RESULT:      -5.0      3.338      5.967
REMARK  7 active torsions:
REMARK  status: ('A' for Active; 'I' for Inactive)
REMARK    1  A    between atoms: C_2  and  C_3 
REMARK    2  A    between atoms: C_3  and  O_6 
REMARK    3  A    between atoms: C_3  and  C_4 
REMARK    4  A    between atoms: C_7  and  O_6 
REMARK    5  A    between atoms: C_9  and  C_10 
REMARK    6  A    between atoms: N_15  and  C_14 
REMARK    7  A    between atoms: N_20  and  C_19 
REMARK       I    between atoms: C_22  and  N_20 
ROOT
ATOM      1  C   LIG d   1      -5.759  75.752 116.481  0.00  0.00     0.161 C 
ATOM      2  C   LIG d   1      -6.402  74.542 116.170  0.00  0.00     0.016 C 
ATOM      3  C   LIG d   1      -7.765  74.291 116.450  0.00  0.00     0.038 C 
ATOM      4  C   LIG d   1      -8.622  75.295 116.926  0.00  0.00     0.028 C 
ATOM      5  C   LIG d   1      -7.902  76.376 117.725  0.00  0.00    -0.047 C 
ATOM      6  C   LIG d   1      -6.704  76.898 116.899  0.00  0.00     0.091 C 
ENDROOT
BRANCH   1   7
ATOM      7  O   LIG d   1      -4.931  76.163 115.376  0.00  0.00    -0.368 OA
BRANCH   7   8
ATOM      8  C   LIG d   1      -3.507  75.943 115.530  0.00  0.00     0.119 C 
BRANCH   8   9
ATOM      9  C   LIG d   1      -3.190  75.999 117.037  0.00  0.00     0.028 C 
ATOM     10  C   LIG d   1      -2.227  74.884 117.475  0.00  0.00     0.006 C 
ENDBRANCH   8   9
BRANCH   8  11
ATOM     11  C   LIG d   1      -2.697  77.082 114.903  0.00  0.00     0.028 C 
ATOM     12  C   LIG d   1      -2.549  78.293 115.837  0.00  0.00     0.006 C 
ENDBRANCH   8  11
ENDBRANCH   7   8
ENDBRANCH   1   7
BRANCH   6  13
ATOM     13  N   LIG d   1      -5.896  77.899 117.642  0.00  0.00    -0.311 N 
ATOM     14  C   LIG d   1      -6.245  79.178 117.765  0.00  0.00     0.210 C 
ATOM     15  C   LIG d   1      -5.260  80.045 118.555  0.00  0.00     0.109 C 
ATOM     16  O   LIG d   1      -7.293  79.671 117.321  0.00  0.00    -0.276 OA
ATOM     17  H   LIG d   1      -5.045  77.578 118.061  0.00  0.00     0.149 HD
ENDBRANCH   6  13
BRANCH   5  18
ATOM     18  N   LIG d   1      -8.888  77.427 118.041  0.00  0.00     0.381 N 
ATOM     19  H   LIG d   1      -9.812  77.088 117.866  0.00  0.00    -0.090 HD
ATOM     20  H   LIG d   1      -8.723  78.218 117.443  0.00  0.00    -0.090 HD
ATOM     21  H   LIG d   1      -8.802  77.700 118.996  0.00  0.00    -0.090 HD
ENDBRANCH   5  18
BRANCH   3  22
ATOM     22  C   LIG d   1      -8.275  73.012 116.291  0.00  0.00     0.382 C 
ATOM     23  O   LIG d   1      -9.472  72.773 116.581  0.00  0.00    -0.241 OA
ATOM     24  O   LIG d   1      -7.541  72.083 115.903  0.00  0.00    -0.241 OA
ENDBRANCH   3  22
TORSDOF 7
ENDMDL
MODEL 5
REMARK VINA RESULT:      -5.0     15.672     18.941
REMARK  7 active torsions:
REMARK  status: ('A' for Active; 'I' for Inactive)
REMARK    1  A    between atoms: C_2  and  C_3 
REMARK    2  A    between atoms: C_3  and  O_6 
REMARK    3  A    between atoms: C_3  and  C_4 
REMARK    4  A    between atoms: C_7  and  O_6 
REMARK    5  A    between atoms: C_9  and  C_10 
REMARK    6  A    between atoms: N_15  and  C_14 
REMARK    7  A    between atoms: N_20  and  C_19 
REMARK       I    between atoms: C_22  and  N_20 
ROOT
ATOM      1  C   LIG d   1     -17.023  65.254 114.261  0.00  0.00     0.161 C 
ATOM      2  C   LIG d   1     -16.522  66.226 113.380  0.00  0.00     0.016 C 
ATOM      3  C   LIG d   1     -15.632  67.251 113.776  0.00  0.00     0.038 C 
ATOM      4  C   LIG d   1     -15.062  67.283 115.057  0.00  0.00     0.028 C 
ATOM      5  C   LIG d   1     -15.927  66.619 116.123  0.00  0.00    -0.047 C 
ATOM      6  C   LIG d   1     -16.325  65.207 115.637  0.00  0.00     0.091 C 
ENDROOT
BRANCH   1   7
ATOM      7  O   LIG d   1     -16.982  63.957 113.633  0.00  0.00    -0.368 OA
BRANCH   7   8
ATOM      8  C   LIG d   1     -18.263  63.370 113.299  0.00  0.00     0.119 C 
BRANCH   8   9
ATOM      9  C   LIG d   1     -19.354  64.390 113.679  0.00  0.00     0.028 C 
ATOM     10  C   LIG d   1     -20.303  64.697 112.509  0.00  0.00     0.006 C 
ENDBRANCH   8   9
BRANCH   8  11
ATOM     11  C   LIG d   1     -18.549  62.133 114.156  0.00  0.00     0.028 C 
ATOM     12  C   LIG d   1     -17.369  61.150 114.196  0.00  0.00     0.006 C 
ENDBRANCH   8  11
ENDBRANCH   7   8
ENDBRANCH   1   7
BRANCH   6  13
ATOM     13  N   LIG d   1     -17.242  64.519 116.583  0.00  0.00    -0.311 N 
ATOM     14  C   LIG d   1     -16.941  63.376 117.195  0.00  0.00     0.210 C 
ATOM     15  C   LIG d   1     -18.036  62.827 118.115  0.00  0.00     0.109 C 
ATOM     16  O   LIG d   1     -15.858  62.781 117.090  0.00  0.00    -0.276 OA
ATOM     17  H   LIG d   1     -18.131  64.949 116.751  0.00  0.00     0.149 HD
ENDBRANCH   6  13
BRANCH   5  18
ATOM     18  N   LIG d   1     -15.153  66.601 117.378  0.00  0.00     0.381 N 
ATOM     19  H   LIG d   1     -14.809  65.678 117.551  0.00  0.00    -0.090 HD
ATOM     20  H   LIG d   1     -15.759  66.859 118.137  0.00  0.00    -0.090 HD
ATOM     21  H   LIG d   1     -14.393  67.242 117.319  0.00  0.00    -0.090 HD
ENDBRANCH   5  18
BRANCH   3  22
ATOM     22  C   LIG d   1     -15.336  68.282 112.897  0.00  0.00     0.382 C 
ATOM     23  O   LIG d   1     -15.975  68.393 111.823  0.00  0.00    -0.241 OA
ATOM     24  O   LIG d   1     -14.408  69.076 113.144  0.00  0.00    -0.241 OA
ENDBRANCH   3  22
TORSDOF 7
ENDMDL
MODEL 6
REMARK VINA RESULT:      -4.9     12.328     15.090
REMARK  7 active torsions:
REMARK  status: ('A' for Active; 'I' for Inactive)
REMARK    1  A    between atoms: C_2  and  C_3 
REMARK    2  A    between atoms: C_3  and  O_6 
REMARK    3  A    between atoms: C_3  and  C_4 
REMARK    4  A    between atoms: C_7  and  O_6 
REMARK    5  A    between atoms: C_9  and  C_10 
REMARK    6  A    between atoms: N_15  and  C_14 
REMARK    7  A    between atoms: N_20  and  C_19 
REMARK       I    between atoms: C_22  and  N_20 
ROOT
ATOM      1  C   LIG d   1      10.951  79.014 114.532  0.00  0.00     0.161 C 
ATOM      2  C   LIG d   1       9.586  79.197 114.814  0.00  0.00     0.016 C 
ATOM      3  C   LIG d   1       8.732  78.152 115.234  0.00  0.00     0.038 C 
ATOM      4  C   LIG d   1       9.221  76.876 115.550  0.00  0.00     0.028 C 
ATOM      5  C   LIG d   1      10.497  76.513 114.798  0.00  0.00    -0.047 C 
ATOM      6  C   LIG d   1      11.526  77.653 114.977  0.00  0.00     0.091 C 
ENDROOT
BRANCH   1   7
ATOM      7  O   LIG d   1      11.716  80.093 115.104  0.00  0.00    -0.368 OA
BRANCH   7   8
ATOM      8  C   LIG d   1      12.265  81.052 114.167  0.00  0.00     0.119 C 
BRANCH   8   9
ATOM      9  C   LIG d   1      12.141  80.444 112.756  0.00  0.00     0.028 C 
ATOM     10  C   LIG d   1      11.320  81.331 111.805  0.00  0.00     0.006 C 
ENDBRANCH   8   9
BRANCH   8  11
ATOM     11  C   LIG d   1      13.767  81.253 114.391  0.00  0.00     0.028 C 
ATOM     12  C   LIG d   1      14.314  80.411 115.554  0.00  0.00     0.006 C 
ENDBRANCH   8  11
ENDBRANCH   7   8
ENDBRANCH   1   7
BRANCH   6  13
ATOM     13  N   LIG d   1      12.773  77.418 114.205  0.00  0.00    -0.311 N 
ATOM     14  C   LIG d   1      13.874  76.887 114.734  0.00  0.00     0.210 C 
ATOM     15  C   LIG d   1      15.055  76.749 113.767  0.00  0.00     0.109 C 
ATOM     16  O   LIG d   1      13.975  76.488 115.904  0.00  0.00    -0.276 OA
ATOM     17  H   LIG d   1      12.769  77.684 113.239  0.00  0.00     0.149 HD
ENDBRANCH   6  13
BRANCH   5  18
ATOM     18  N   LIG d   1      10.971  75.219 115.323  0.00  0.00     0.381 N 
ATOM     19  H   LIG d   1      10.718  74.485 114.692  0.00  0.00    -0.090 HD
ATOM     20  H   LIG d   1      10.525  75.043 116.206  0.00  0.00    -0.090 HD
ATOM     21  H   LIG d   1      11.960  75.240 115.440  0.00  0.00    -0.090 HD
ENDBRANCH   5  18
BRANCH   3  22
ATOM     22  C   LIG d   1       7.364  78.369 115.305  0.00  0.00     0.382 C 
ATOM     23  O   LIG d   1       6.902  79.195 116.129  0.00  0.00    -0.241 OA
ATOM     24  O   LIG d   1       6.583  77.718 114.585  0.00  0.00    -0.241 OA
ENDBRANCH   3  22
TORSDOF 7
ENDMDL
MODEL 7
REMARK VINA RESULT:      -4.9     10.904     13.610
REMARK  7 active torsions:
REMARK  status: ('A' for Active; 'I' for Inactive)
REMARK    1  A    between atoms: C_2  and  C_3 
REMARK    2  A    between atoms: C_3  and  O_6 
REMARK    3  A    between atoms: C_3  and  C_4 
REMARK    4  A    between atoms: C_7  and  O_6 
REMARK    5  A    between atoms: C_9  and  C_10 
REMARK    6  A    between atoms: N_15  and  C_14 
REMARK    7  A    between atoms: N_20  and  C_19 
REMARK       I    between atoms: C_22  and  N_20 
ROOT
ATOM      1  C   LIG d   1       3.720  88.224 115.744  0.00  0.00     0.161 C 
ATOM      2  C   LIG d   1       2.999  87.712 114.652  0.00  0.00     0.016 C 
ATOM      3  C   LIG d   1       3.486  87.721 113.325  0.00  0.00     0.038 C 
ATOM      4  C   LIG d   1       4.799  88.107 113.020  0.00  0.00     0.028 C 
ATOM      5  C   LIG d   1       5.385  89.102 114.016  0.00  0.00    -0.047 C 
ATOM      6  C   LIG d   1       5.199  88.547 115.447  0.00  0.00     0.091 C 
ENDROOT
BRANCH   1   7
ATOM      7  O   LIG d   1       3.619  87.320 116.862  0.00  0.00    -0.368 OA
BRANCH   7   8
ATOM      8  C   LIG d   1       2.620  86.277 116.750  0.00  0.00     0.119 C 
BRANCH   8   9
ATOM      9  C   LIG d   1       1.730  86.352 118.006  0.00  0.00     0.028 C 
ATOM     10  C   LIG d   1       0.435  87.145 117.760  0.00  0.00     0.006 C 
ENDBRANCH   8   9
BRANCH   8  11
ATOM     11  C   LIG d   1       3.260  84.886 116.791  0.00  0.00     0.028 C 
ATOM     12  C   LIG d   1       2.999  84.072 115.513  0.00  0.00     0.006 C 
ENDBRANCH   8  11
ENDBRANCH   7   8
ENDBRANCH   1   7
BRANCH   6  13
ATOM     13  N   LIG d   1       5.669  89.497 116.489  0.00  0.00    -0.311 N 
ATOM     14  C   LIG d   1       6.887  89.451 117.027  0.00  0.00     0.210 C 
ATOM     15  C   LIG d   1       7.160  90.511 118.099  0.00  0.00     0.109 C 
ATOM     16  O   LIG d   1       7.777  88.653 116.696  0.00  0.00    -0.276 OA
ATOM     17  H   LIG d   1       5.022  90.197 116.793  0.00  0.00     0.149 HD
ENDBRANCH   6  13
BRANCH   5  18
ATOM     18  N   LIG d   1       6.801  89.312 113.657  0.00  0.00     0.381 N 
ATOM     19  H   LIG d   1       6.896  89.348 112.662  0.00  0.00    -0.090 HD
ATOM     20  H   LIG d   1       7.341  88.536 113.997  0.00  0.00    -0.090 HD
ATOM     21  H   LIG d   1       7.133  90.160 114.060  0.00  0.00    -0.090 HD
ENDBRANCH   5  18
BRANCH   3  22
ATOM     22  C   LIG d   1       2.641  87.378 112.280  0.00  0.00     0.382 C 
ATOM     23  O   LIG d   1       1.852  88.230 111.806  0.00  0.00    -0.241 OA
ATOM     24  O   LIG d   1       2.626  86.214 111.836  0.00  0.00    -0.241 OA
ENDBRANCH   3  22
TORSDOF 7
ENDMDL
MODEL 8
REMARK VINA RESULT:      -4.7      2.466      5.104
REMARK  7 active torsions:
REMARK  status: ('A' for Active; 'I' for Inactive)
REMARK    1  A    between atoms: C_2  and  C_3 
REMARK    2  A    between atoms: C_3  and  O_6 
REMARK    3  A    between atoms: C_3  and  C_4 
REMARK    4  A    between atoms: C_7  and  O_6 
REMARK    5  A    between atoms: C_9  and  C_10 
REMARK    6  A    between atoms: N_15  and  C_14 
REMARK    7  A    between atoms: N_20  and  C_19 
REMARK       I    between atoms: C_22  and  N_20 
ROOT
ATOM      1  C   LIG d   1      -0.980  77.585 115.053  0.00  0.00     0.161 C 
ATOM      2  C   LIG d   1      -2.299  77.192 114.769  0.00  0.00     0.016 C 
ATOM      3  C   LIG d   1      -2.975  76.169 115.473  0.00  0.00     0.038 C 
ATOM      4  C   LIG d   1      -2.427  75.569 116.616  0.00  0.00     0.028 C 
ATOM      5  C   LIG d   1      -0.902  75.578 116.633  0.00  0.00    -0.047 C 
ATOM      6  C   LIG d   1      -0.406  77.018 116.368  0.00  0.00     0.091 C 
ENDROOT
BRANCH   1   7
ATOM      7  O   LIG d   1      -0.886  79.023 115.044  0.00  0.00    -0.368 OA
BRANCH   7   8
ATOM      8  C   LIG d   1      -1.119  79.685 116.312  0.00  0.00     0.119 C 
BRANCH   8   9
ATOM      9  C   LIG d   1      -2.391  80.542 116.160  0.00  0.00     0.028 C 
ATOM     10  C   LIG d   1      -3.534  80.063 117.070  0.00  0.00     0.006 C 
ENDBRANCH   8   9
BRANCH   8  11
ATOM     11  C   LIG d   1       0.001  80.677 116.637  0.00  0.00     0.028 C 
ATOM     12  C   LIG d   1      -0.009  81.126 118.107  0.00  0.00     0.006 C 
ENDBRANCH   8  11
ENDBRANCH   7   8
ENDBRANCH   1   7
BRANCH   6  13
ATOM     13  N   LIG d   1       1.075  77.100 116.285  0.00  0.00    -0.311 N 
ATOM     14  C   LIG d   1       1.849  77.453 117.310  0.00  0.00     0.210 C 
ATOM     15  C   LIG d   1       3.349  77.494 117.004  0.00  0.00     0.109 C 
ATOM     16  O   LIG d   1       1.437  77.705 118.453  0.00  0.00    -0.276 OA
ATOM     17  H   LIG d   1       1.495  76.882 115.403  0.00  0.00     0.149 HD
ENDBRANCH   6  13
BRANCH   5  18
ATOM     18  N   LIG d   1      -0.468  75.047 117.939  0.00  0.00     0.381 N 
ATOM     19  H   LIG d   1      -1.170  75.228 118.628  0.00  0.00    -0.090 HD
ATOM     20  H   LIG d   1       0.375  75.518 118.217  0.00  0.00    -0.090 HD
ATOM     21  H   LIG d   1      -0.303  74.067 117.871  0.00  0.00    -0.090 HD
ENDBRANCH   5  18
BRANCH   3  22
ATOM     22  C   LIG d   1      -4.198  75.709 115.009  0.00  0.00     0.382 C 
ATOM     23  O   LIG d   1      -4.528  75.901 113.814  0.00  0.00    -0.241 OA
ATOM     24  O   LIG d   1      -4.995  75.145 115.782  0.00  0.00    -0.241 OA
ENDBRANCH   3  22
TORSDOF 7
ENDMDL
MODEL 9
REMARK VINA RESULT:      -4.7      9.286     12.061
REMARK  7 active torsions:
REMARK  status: ('A' for Active; 'I' for Inactive)
REMARK    1  A    between atoms: C_2  and  C_3 
REMARK    2  A    between atoms: C_3  and  O_6 
REMARK    3  A    between atoms: C_3  and  C_4 
REMARK    4  A    between atoms: C_7  and  O_6 
REMARK    5  A    between atoms: C_9  and  C_10 
REMARK    6  A    between atoms: N_15  and  C_14 
REMARK    7  A    between atoms: N_20  and  C_19 
REMARK       I    between atoms: C_22  and  N_20 
ROOT
ATOM      1  C   LIG d   1       1.809  86.698 115.188  0.00  0.00     0.161 C 
ATOM      2  C   LIG d   1       2.703  87.118 114.189  0.00  0.00     0.016 C 
ATOM      3  C   LIG d   1       3.510  88.273 114.303  0.00  0.00     0.038 C 
ATOM      4  C   LIG d   1       3.590  89.007 115.496  0.00  0.00     0.028 C 
ATOM      5  C   LIG d   1       2.331  88.913 116.351  0.00  0.00    -0.047 C 
ATOM      6  C   LIG d   1       1.965  87.423 116.541  0.00  0.00     0.091 C 
ENDROOT
BRANCH   1   7
ATOM      7  O   LIG d   1       1.915  85.272 115.369  0.00  0.00    -0.368 OA
BRANCH   7   8
ATOM      8  C   LIG d   1       0.828  84.479 114.832  0.00  0.00     0.119 C 
BRANCH   8   9
ATOM      9  C   LIG d   1       1.334  83.816 113.537  0.00  0.00     0.028 C 
ATOM     10  C   LIG d   1       0.704  84.432 112.277  0.00  0.00     0.006 C 
ENDBRANCH   8   9
BRANCH   8  11
ATOM     11  C   LIG d   1      -0.347  85.362 114.403  0.00  0.00     0.028 C 
ATOM     12  C   LIG d   1      -1.633  85.068 115.193  0.00  0.00     0.006 C 
ENDBRANCH   8  11
ENDBRANCH   7   8
ENDBRANCH   1   7
BRANCH   6  13
ATOM     13  N   LIG d   1       0.697  87.243 117.296  0.00  0.00    -0.311 N 
ATOM     14  C   LIG d   1      -0.340  88.072 117.195  0.00  0.00     0.210 C 
ATOM     15  C   LIG d   1      -1.542  87.715 118.076  0.00  0.00     0.109 C 
ATOM     16  O   LIG d   1      -0.392  89.051 116.436  0.00  0.00    -0.276 OA
ATOM     17  H   LIG d   1       0.641  86.456 117.913  0.00  0.00     0.149 HD
ENDBRANCH   6  13
BRANCH   5  18
ATOM     18  N   LIG d   1       2.603  89.609 117.623  0.00  0.00     0.381 N 
ATOM     19  H   LIG d   1       3.559  89.475 117.885  0.00  0.00    -0.090 HD
ATOM     20  H   LIG d   1       2.021  89.213 118.340  0.00  0.00    -0.090 HD
ATOM     21  H   LIG d   1       2.410  90.581 117.527  0.00  0.00    -0.090 HD
ENDBRANCH   5  18
BRANCH   3  22
ATOM     22  C   LIG d   1       4.219  88.728 113.201  0.00  0.00     0.382 C 
ATOM     23  O   LIG d   1       4.105  89.921 112.831  0.00  0.00    -0.241 OA
ATOM     24  O   LIG d   1       4.936  87.948 112.546  0.00  0.00    -0.241 OA
ENDBRANCH   3  22
TORSDOF 7
ENDMDL
